REMARK  Name = 
REMARK  11 active torsions:
REMARK  status: ('A' for Active; 'I' for Inactive)
REMARK    1  A    between atoms: C_15  and  C_19
REMARK    2  A    between atoms: C_19  and  C_24
REMARK    3  A    between atoms: C_24  and  C_29
REMARK    4  A    between atoms: C_32  and  O_38
REMARK    5  A    between atoms: C_39  and  O_46
REMARK    6  A    between atoms: C_45  and  O_50
REMARK    7  A    between atoms: O_50  and  C_66
REMARK    8  A    between atoms: C_51  and  O_55
REMARK    9  A    between atoms: C_66  and  C_67
REMARK   10  A    between atoms: C_67  and  C_70
REMARK   11  A    between atoms: C_67  and  C_71
REMARK                            x       y       z     vdW  Elec       q    Type
REMARK                         _______ _______ _______ _____ _____    ______ ____
ROOT
ATOM      1  N   UNL     1      14.893 -15.226   0.000  0.00  0.00    +0.000 N 
ATOM      2  C   UNL     1      15.594 -14.814   0.000  0.00  0.00    +0.000 C 
ATOM      3  C   UNL     1      14.893 -16.051   0.000  0.00  0.00    +0.000 C 
ATOM      4  C   UNL     1      14.150 -14.814   0.000  0.00  0.00    +0.000 C 
ATOM      5  C   UNL     1      16.295 -15.226   0.000  0.00  0.00    +0.000 C 
ATOM      6  C   UNL     1      15.594 -13.989   0.000  0.00  0.00    +0.000 C 
ATOM      7  C   UNL     1      14.150 -16.464   0.000  0.00  0.00    +0.000 C 
ATOM      8  O   UNL     1      15.594 -16.464   0.000  0.00  0.00    +0.000 OA
ATOM      9  C   UNL     1      14.150 -13.989   0.000  0.00  0.00    +0.000 C 
ATOM     10  O   UNL     1      16.996 -14.814   0.000  0.00  0.00    +0.000 OA
ATOM     11  O   UNL     1      16.295 -15.886   0.000  0.00  0.00    +0.000 OA
ATOM     12  C   UNL     1      14.893 -13.535   0.000  0.00  0.00    +0.000 C 
ATOM     13  C   UNL     1      14.150 -17.289   0.000  0.00  0.00    +0.000 C 
ATOM     14  O   UNL     1      13.449 -16.010   0.000  0.00  0.00    +0.000 OA
ATOM     15  C   UNL     1      17.739 -15.226   0.000  0.00  0.00    +0.000 C 
ATOM     16  O   UNL     1      14.851 -17.701   0.000  0.00  0.00    +0.000 OA
ATOM     17  C   UNL     1      13.408 -17.701   0.000  0.00  0.00    +0.000 C 
ATOM     18  O   UNL     1      13.985 -18.114   0.000  0.00  0.00    +0.000 OA
ATOM     19  C   UNL     1      17.739 -16.051   0.000  0.00  0.00    +0.000 C 
ATOM     20  C   UNL     1      14.851 -18.526   0.000  0.00  0.00    +0.000 C 
ATOM     21  C   UNL     1      13.408 -18.485   0.000  0.00  0.00    +0.000 C 
ATOM     22  C   UNL     1      12.707 -17.248   0.000  0.00  0.00    +0.000 C 
ATOM     23  C   UNL     1      18.440 -16.464   0.000  0.00  0.00    +0.000 C 
ATOM     24  C   UNL     1      15.553 -18.939   0.000  0.00  0.00    +0.000 C 
ATOM     25  C   UNL     1      14.150 -18.939   0.000  0.00  0.00    +0.000 C 
ATOM     26  C   UNL     1      18.440 -17.289   0.000  0.00  0.00    +0.000 C 
ATOM     27  O   UNL     1      19.183 -16.010   0.000  0.00  0.00    +0.000 OA
ATOM     28  C   UNL     1      15.553 -19.764   0.000  0.00  0.00    +0.000 C 
ATOM     29  C   UNL     1      19.183 -17.701   0.000  0.00  0.00    +0.000 C 
ATOM     30  C   UNL     1      17.739 -17.701   0.000  0.00  0.00    +0.000 C 
ATOM     31  C   UNL     1      16.254 -20.176   0.000  0.00  0.00    +0.000 C 
ATOM     32  C   UNL     1      19.183 -18.485   0.000  0.00  0.00    +0.000 C 
ATOM     33  C   UNL     1      16.254 -21.001   0.000  0.00  0.00    +0.000 C 
ATOM     34  C   UNL     1      16.996 -19.764   0.000  0.00  0.00    +0.000 C 
ATOM     35  C   UNL     1      19.884 -18.898   0.000  0.00  0.00    +0.000 C 
ATOM     36  C   UNL     1      18.440 -18.898   0.000  0.00  0.00    +0.000 C 
ATOM     37  C   UNL     1      16.955 -21.414   0.000  0.00  0.00    +0.000 C 
ATOM     38  C   UNL     1      19.884 -19.723   0.000  0.00  0.00    +0.000 C 
ATOM     39  O   UNL     1      20.585 -18.485   0.000  0.00  0.00    +0.000 OA
ATOM     40  C   UNL     1      16.955 -22.239   0.000  0.00  0.00    +0.000 C 
ATOM     41  C   UNL     1      20.585 -20.135   0.000  0.00  0.00    +0.000 C 
ATOM     42  C   UNL     1      17.698 -22.651   0.000  0.00  0.00    +0.000 C 
ATOM     43  C   UNL     1      20.585 -20.960   0.000  0.00  0.00    +0.000 C 
ATOM     44  O   UNL     1      21.286 -19.723   0.000  0.00  0.00    +0.000 OA
ATOM     45  C   UNL     1      18.399 -22.239   0.000  0.00  0.00    +0.000 C 
ATOM     46  C   UNL     1      19.884 -21.373   0.000  0.00  0.00    +0.000 C 
ATOM     47  C   UNL     1      21.286 -21.373   0.000  0.00  0.00    +0.000 C 
ATOM     48  C   UNL     1      19.224 -22.239   0.000  0.00  0.00    +0.000 C 
ATOM     49  C   UNL     1      19.430 -23.023   0.000  0.00  0.00    +0.000 C 
ENDROOT
BRANCH  15  50
ATOM     50  C   UNL     1      18.440 -14.814   0.000  0.00  0.00    +0.000 C 
ATOM     51  C   UNL     1      18.440 -13.989   0.000  0.00  0.00    +0.000 C 
BRANCH  50  52
ATOM     52  C   UNL     1      19.183 -15.226   0.000  0.00  0.00    +0.000 C 
BRANCH  52  53
ATOM     53  C   UNL     1      19.884 -14.814   0.000  0.00  0.00    +0.000 C 
ATOM     54  C   UNL     1      20.585 -15.226   0.000  0.00  0.00    +0.000 C 
ATOM     55  C   UNL     1      19.884 -13.989   0.000  0.00  0.00    +0.000 C 
ATOM     56  C   UNL     1      21.286 -14.814   0.000  0.00  0.00    +0.000 C 
ATOM     57  C   UNL     1      20.585 -13.576   0.000  0.00  0.00    +0.000 C 
ATOM     58  C   UNL     1      21.286 -13.989   0.000  0.00  0.00    +0.000 C 
BRANCH  56  59
ATOM     59  O   UNL     1      22.029 -15.226   0.000  0.00  0.00    +0.000 OA
ATOM     60  C   UNL     1      22.029 -16.052   0.000  0.00  0.00    +0.000 C 
ENDBRANCH  56  59
BRANCH  58  61
ATOM     61  O   UNL     1      22.029 -13.535   0.000  0.00  0.00    +0.000 OA
BRANCH  61  62
ATOM     62  C   UNL     1      22.765 -13.936   0.000  0.00  0.00    +0.000 C 
ATOM     63  O   UNL     1      22.786 -14.777   0.000  0.00  0.00    +0.000 OA
BRANCH  62  64
ATOM     64  C   UNL     1      23.477 -13.501   0.000  0.00  0.00    +0.000 C 
ATOM     65  C   UNL     1      24.190 -12.900   0.000  0.00  0.00    +0.000 C 
BRANCH  64  66
ATOM     66  C   UNL     1      23.456 -12.672   0.000  0.00  0.00    +0.000 C 
ATOM     67  O   UNL     1      24.152 -12.246   0.000  0.00  0.00    +0.000 OA
ENDBRANCH  64  66
BRANCH  64  68
ATOM     68  C   UNL     1      24.208 -13.899   0.000  0.00  0.00    +0.000 C 
ATOM     69  O   UNL     1      24.893 -13.480   0.000  0.00  0.00    +0.000 OA
ENDBRANCH  64  68
ENDBRANCH  62  64
ENDBRANCH  61  62
ENDBRANCH  58  61
ENDBRANCH  52  53
ENDBRANCH  50  52
ENDBRANCH  15  50
BRANCH  28  70
ATOM     70  O   UNL     1      14.851 -20.176   0.000  0.00  0.00    +0.000 OA
ATOM     71  C   UNL     1      14.851 -21.001   0.000  0.00  0.00    +0.000 C 
ENDBRANCH  28  70
BRANCH  38  72
ATOM     72  O   UNL     1      19.142 -20.135   0.000  0.00  0.00    +0.000 OA
ATOM     73  C   UNL     1      19.142 -20.960   0.000  0.00  0.00    +0.000 C 
ENDBRANCH  38  72
TORSDOF 11
