REMARK  Name = 
REMARK  9 active torsions:
REMARK  status: ('A' for Active; 'I' for Inactive)
REMARK    1  A    between atoms: O_1  and  C_18
REMARK    2  A    between atoms: O_1  and  C_25
REMARK    3  A    between atoms: N_2  and  C_26
REMARK    4  A    between atoms: C_3  and  C_4
REMARK    5  A    between atoms: C_3  and  C_5
REMARK    6  A    between atoms: C_3  and  C_6
REMARK    7  A    between atoms: C_4  and  C_7
REMARK    8  A    between atoms: C_4  and  C_8
REMARK    9  A    between atoms: C_25  and  C_26
REMARK                            x       y       z     vdW  Elec       q    Type
REMARK                         _______ _______ _______ _____ _____    ______ ____
ROOT
ATOM      1  C   UNL     1       3.793   1.444   0.000  0.00  0.00    +0.000 C 
ENDROOT
BRANCH   1   2
ATOM      2  C   UNL     1       4.508   1.856   0.000  0.00  0.00    +0.000 A 
ATOM      3  C   UNL     1       4.508   2.681   0.000  0.00  0.00    +0.000 A 
ATOM      4  C   UNL     1       5.222   1.444   0.000  0.00  0.00    +0.000 A 
ATOM      5  C   UNL     1       5.222   3.094   0.000  0.00  0.00    +0.000 A 
ATOM      6  C   UNL     1       5.937   1.856   0.000  0.00  0.00    +0.000 A 
ATOM      7  C   UNL     1       5.937   2.681   0.000  0.00  0.00    +0.000 A 
ENDBRANCH   1   2
BRANCH   1   8
ATOM      8  C   UNL     1       3.793   0.619   0.000  0.00  0.00    +0.000 A 
ATOM      9  C   UNL     1       3.079   0.206   0.000  0.00  0.00    +0.000 A 
ATOM     10  C   UNL     1       4.508   0.206   0.000  0.00  0.00    +0.000 A 
ATOM     11  C   UNL     1       3.079  -0.619   0.000  0.00  0.00    +0.000 A 
ATOM     12  C   UNL     1       4.508  -0.619   0.000  0.00  0.00    +0.000 A 
ATOM     13  C   UNL     1       3.793  -1.031   0.000  0.00  0.00    +0.000 A 
BRANCH  13  14
ATOM     14  O   UNL     1       3.793  -1.856   0.000  0.00  0.00    +0.000 OA
BRANCH  14  15
ATOM     15  C   UNL     1       3.079  -2.269   0.000  0.00  0.00    +0.000 C 
BRANCH  15  16
ATOM     16  C   UNL     1       3.079  -3.094   0.000  0.00  0.00    +0.000 C 
BRANCH  16  17
ATOM     17  N   UNL     1       2.365  -3.506   0.000  0.00  0.00    +0.000 NA
ATOM     18  C   UNL     1       2.365  -4.331   0.000  0.00  0.00    +0.000 C 
ATOM     19  C   UNL     1       1.650  -3.094   0.000  0.00  0.00    +0.000 C 
ENDBRANCH  16  17
ENDBRANCH  15  16
ENDBRANCH  14  15
ENDBRANCH  13  14
ENDBRANCH   1   8
BRANCH   1  20
ATOM     20  C   UNL     1       3.079   1.856   0.000  0.00  0.00    +0.000 C 
BRANCH  20  21
ATOM     21  C   UNL     1       3.079   2.681   0.000  0.00  0.00    +0.000 A 
ATOM     22  C   UNL     1       2.365   3.094   0.000  0.00  0.00    +0.000 A 
ATOM     23  C   UNL     1       3.793   3.094   0.000  0.00  0.00    +0.000 A 
ATOM     24  C   UNL     1       2.365   3.919   0.000  0.00  0.00    +0.000 A 
ATOM     25  C   UNL     1       3.793   3.919   0.000  0.00  0.00    +0.000 A 
ATOM     26  C   UNL     1       3.079   4.331   0.000  0.00  0.00    +0.000 A 
ENDBRANCH  20  21
BRANCH  20  27
ATOM     27  C   UNL     1       2.365   1.444   0.000  0.00  0.00    +0.000 C 
ATOM     28  C   UNL     1       1.650   1.856   0.000  0.00  0.00    +0.000 C 
ENDBRANCH  20  27
ENDBRANCH   1  20
TORSDOF 9
