REMARK  Name = 
REMARK  2 active torsions:
REMARK  status: ('A' for Active; 'I' for Inactive)
REMARK    1  A    between atoms: N_2  and  CA_3
REMARK    2  A    between atoms: CA_3  and  C_6
REMARK                            x       y       z     vdW  Elec       q    Type
REMARK                         _______ _______ _______ _____ _____    ______ ____
ROOT
ATOM      1  CA  UNL     1       0.825   0.000   0.000  0.00  0.00    +0.000 C 
ATOM      2  C   UNL     1       0.000   0.000   0.000  0.00  0.00    +0.000 C 
ATOM      3  C   UNL     1      -0.412  -0.715   0.000  0.00  0.00    +0.000 C 
ENDROOT
BRANCH   1   4
ATOM      4  C   UNL     1       1.238   0.715   0.000  0.00  0.00    +0.000 C 
ATOM      5  O   UNL     1       0.825   1.429   0.000  0.00  0.00    +0.000 OA
ATOM      6  OXT UNL     1       2.062   0.715   0.000  0.00  0.00    +0.000 OA
ENDBRANCH   1   4
BRANCH   1   8
ATOM      7  C   UNL     1       2.062  -0.715   0.000  0.00  0.00    +0.000 C 
ATOM      8  N   UNL     1       1.238  -0.715   0.000  0.00  0.00    +0.000 NA
ENDBRANCH   1   8
TORSDOF 2
