REMARK  Name = 
REMARK  7 active torsions:
REMARK  status: ('A' for Active; 'I' for Inactive)
REMARK    1  A    between atoms: C_3  and  C_4
REMARK    2  A    between atoms: C_4  and  C_5
REMARK    3  A    between atoms: C_5  and  C_6
REMARK    4  A    between atoms: C_6  and  C_9
REMARK    5  A    between atoms: C_9  and  C_11
REMARK    6  A    between atoms: C_10  and  N_14
REMARK    7  A    between atoms: C_12  and  N_15
REMARK                            x       y       z     vdW  Elec       q    Type
REMARK                         _______ _______ _______ _____ _____    ______ ____
ROOT
ATOM      1  C   UNL     1       2.143   3.712   0.000  0.00  0.00    +0.000 A 
ATOM      2  C   UNL     1       2.858   4.950   0.000  0.00  0.00    +0.000 A 
ATOM      3  C   UNL     1       2.858   4.125   0.000  0.00  0.00    +0.000 A 
ATOM      4  C   UNL     1       1.429   4.125   0.000  0.00  0.00    +0.000 A 
ATOM      5  C   UNL     1       2.143   5.362   0.000  0.00  0.00    +0.000 A 
ATOM      6  C   UNL     1       1.429   4.950   0.000  0.00  0.00    +0.000 A 
ATOM      7  O   UNL     1       0.715   5.362   0.000  0.00  0.00    +0.000 OA
ENDROOT
BRANCH   5   8
ATOM      8  N   UNL     1       2.143   6.188   0.000  0.00  0.00    +0.000 N 
ATOM      9  O   UNL     1       1.429   6.600   0.000  0.00  0.00    +0.000 OA
ATOM     10  O   UNL     1       2.858   6.600   0.000  0.00  0.00    +0.000 OA
ENDBRANCH   5   8
BRANCH   3  11
ATOM     11  N   UNL     1       3.572   3.712   0.000  0.00  0.00    +0.000 N 
ATOM     12  O   UNL     1       4.287   4.125   0.000  0.00  0.00    +0.000 OA
ATOM     13  O   UNL     1       3.572   2.888   0.000  0.00  0.00    +0.000 OA
ENDBRANCH   3  11
BRANCH   4  15
ATOM     14  C   UNL     1       0.715   2.888   0.000  0.00  0.00    +0.000 C 
ATOM     15  C   UNL     1       0.715   3.712   0.000  0.00  0.00    +0.000 C 
BRANCH  15  16
ATOM     16  C   UNL     1       0.000   4.125   0.000  0.00  0.00    +0.000 C 
BRANCH  16  17
ATOM     17  C   UNL     1      -0.715   3.712   0.000  0.00  0.00    +0.000 C 
BRANCH  17  18
ATOM     18  C   UNL     1      -1.429   4.125   0.000  0.00  0.00    +0.000 C 
BRANCH  18  20
ATOM     19  C   UNL     1      -2.858   4.125   0.000  0.00  0.00    +0.000 C 
ATOM     20  C   UNL     1      -2.143   3.712   0.000  0.00  0.00    +0.000 C 
ENDBRANCH  18  20
ENDBRANCH  17  18
ENDBRANCH  16  17
ENDBRANCH  15  16
ENDBRANCH   4  15
TORSDOF 7
