REMARK  Name = 
REMARK  0 active torsions:
REMARK  status: ('A' for Active; 'I' for Inactive)
REMARK                            x       y       z     vdW  Elec       q    Type
REMARK                         _______ _______ _______ _____ _____    ______ ____
ROOT
ATOM      1  S   UNL     1       1.758   1.175   0.000  0.00  0.00    +0.000 S 
ATOM      2  S   UNL     1       0.996   1.490   0.000  0.00  0.00    +0.000 S 
ATOM      3  S   UNL     1       2.074   0.412   0.000  0.00  0.00    +0.000 S 
ATOM      4  S   UNL     1       0.234   1.175   0.000  0.00  0.00    +0.000 S 
ATOM      5  S   UNL     1       1.758  -0.350   0.000  0.00  0.00    +0.000 S 
ATOM      6  S   UNL     1      -0.082   0.412   0.000  0.00  0.00    +0.000 S 
ATOM      7  S   UNL     1       0.996  -0.665   0.000  0.00  0.00    +0.000 S 
ATOM      8  S   UNL     1       0.234  -0.350   0.000  0.00  0.00    +0.000 S 
ENDROOT
TORSDOF 0
