REMARK  Name = 
REMARK  9 active torsions:
REMARK  status: ('A' for Active; 'I' for Inactive)
REMARK    1  A    between atoms: C_1  and  C_2
REMARK    2  A    between atoms: C_3  and  O_18
REMARK    3  A    between atoms: N_4  and  C_7
REMARK    4  A    between atoms: C_9  and  O_20
REMARK    5  A    between atoms: N_11  and  C_27
REMARK    6  A    between atoms: C_21  and  O_29
REMARK    7  A    between atoms: C_27  and  C_28
REMARK    8  A    between atoms: C_28  and  C_30
REMARK    9  A    between atoms: O_29  and  C_30
REMARK                            x       y       z     vdW  Elec       q    Type
REMARK                         _______ _______ _______ _____ _____    ______ ____
ROOT
ATOM      1  C   UNL     1       9.178  -8.111   0.000  0.00  0.00    +0.000 C 
ATOM      2  C   UNL     1       9.892  -8.524   0.000  0.00  0.00    +0.000 C 
ATOM      3  N   UNL     1       9.177  -9.761   0.000  0.00  0.00    +0.000 NA
ATOM      4  C   UNL     1       9.891  -9.349   0.000  0.00  0.00    +0.000 C 
ATOM      5  C   UNL     1       8.463  -8.523   0.000  0.00  0.00    +0.000 C 
ATOM      6  C   UNL     1       8.463  -9.348   0.000  0.00  0.00    +0.000 C 
ENDROOT
BRANCH   1   8
ATOM      7  C   UNL     1       8.473  -6.878   0.000  0.00  0.00    +0.000 C 
ATOM      8  N   UNL     1       9.179  -7.286   0.000  0.00  0.00    +0.000 NA
ATOM      9  O   UNL     1       8.473  -6.053   0.000  0.00  0.00    +0.000 OA
BRANCH   7  10
ATOM     10  C   UNL     1       7.758  -7.291   0.000  0.00  0.00    +0.000 A 
ATOM     11  C   UNL     1       7.044  -6.878   0.000  0.00  0.00    +0.000 A 
ATOM     12  C   UNL     1       7.758  -8.116   0.000  0.00  0.00    +0.000 A 
ATOM     13  C   UNL     1       6.329  -7.291   0.000  0.00  0.00    +0.000 A 
ATOM     14  C   UNL     1       7.044  -8.528   0.000  0.00  0.00    +0.000 A 
ATOM     15  C   UNL     1       6.329  -8.116   0.000  0.00  0.00    +0.000 A 
ATOM     16  N   UNL     1       5.615  -8.528   0.000  0.00  0.00    +0.000 NA
ATOM     17 CL   UNL     1       7.044  -9.353   0.000  0.00  0.00    +0.000 Cl
BRANCH  11  18
ATOM     18  O   UNL     1       7.044  -6.053   0.000  0.00  0.00    +0.000 OA
ATOM     19  C   UNL     1       6.329  -5.641   0.000  0.00  0.00    +0.000 C 
ENDBRANCH  11  18
ENDBRANCH   7  10
ENDBRANCH   1   8
BRANCH   2  20
ATOM     20  O   UNL     1      10.607  -8.112   0.000  0.00  0.00    +0.000 OA
ATOM     21  C   UNL     1      11.321  -8.525   0.000  0.00  0.00    +0.000 C 
ENDBRANCH   2  20
BRANCH   3  22
ATOM     22  C   UNL     1       9.176 -10.586   0.000  0.00  0.00    +0.000 C 
BRANCH  22  23
ATOM     23  C   UNL     1       9.890 -10.999   0.000  0.00  0.00    +0.000 C 
BRANCH  23  24
ATOM     24  C   UNL     1      10.605 -10.587   0.000  0.00  0.00    +0.000 C 
BRANCH  24  25
ATOM     25  O   UNL     1      11.319 -11.000   0.000  0.00  0.00    +0.000 OA
BRANCH  25  27
ATOM     26  C   UNL     1      13.463  -9.765   0.000  0.00  0.00    +0.000 A 
ATOM     27  C   UNL     1      12.034 -10.589   0.000  0.00  0.00    +0.000 A 
ATOM     28  F   UNL     1      14.178  -9.353   0.000  0.00  0.00    +0.000 F 
ATOM     29  C   UNL     1      12.749  -9.352   0.000  0.00  0.00    +0.000 A 
ATOM     30  C   UNL     1      13.463 -10.590   0.000  0.00  0.00    +0.000 A 
ATOM     31  C   UNL     1      12.034  -9.764   0.000  0.00  0.00    +0.000 A 
ATOM     32  C   UNL     1      12.748 -11.002   0.000  0.00  0.00    +0.000 A 
ENDBRANCH  25  27
ENDBRANCH  24  25
ENDBRANCH  23  24
ENDBRANCH  22  23
ENDBRANCH   3  22
TORSDOF 9
