REMARK  Name = 
REMARK  7 active torsions:
REMARK  status: ('A' for Active; 'I' for Inactive)
REMARK    1  A    between atoms: N_5  and  C_8
REMARK    2  A    between atoms: N_5  and  C_13
REMARK    3  A    between atoms: N_7  and  C_23
REMARK    4  A    between atoms: C_13  and  C_16
REMARK    5  A    between atoms: C_15  and  C_17
REMARK    6  A    between atoms: C_16  and  C_18
REMARK    7  A    between atoms: C_31  and  C_32
REMARK                            x       y       z     vdW  Elec       q    Type
REMARK                         _______ _______ _______ _____ _____    ______ ____
ROOT
ATOM      1 CL   UNL     1      10.788   5.427   0.000  0.00  0.00    +0.000 Cl
ENDROOT
TORSDOF 0
REMARK  Name = 
REMARK  7 active torsions:
REMARK  status: ('A' for Active; 'I' for Inactive)
REMARK    1  A    between atoms: N_5  and  C_8
REMARK    2  A    between atoms: N_5  and  C_13
REMARK    3  A    between atoms: N_7  and  C_23
REMARK    4  A    between atoms: C_13  and  C_16
REMARK    5  A    between atoms: C_15  and  C_17
REMARK    6  A    between atoms: C_16  and  C_18
REMARK    7  A    between atoms: C_31  and  C_32
REMARK                            x       y       z     vdW  Elec       q    Type
REMARK                         _______ _______ _______ _____ _____    ______ ____
ROOT
ATOM      1  O   UNL     1       7.980   5.462   0.000  0.00  0.00    +0.000 OA
ATOM      2  N   UNL     1       6.551   5.462   0.000  0.00  0.00    +0.000 N 
ATOM      3  C   UNL     1       5.122   4.637   0.000  0.00  0.00    +0.000 C 
ATOM      4  C   UNL     1       5.837   4.224   0.000  0.00  0.00    +0.000 C 
ATOM      5  C   UNL     1       5.122   5.462   0.000  0.00  0.00    +0.000 C 
ATOM      6  C   UNL     1       6.551   4.637   0.000  0.00  0.00    +0.000 C 
ATOM      7  C   UNL     1       5.837   5.874   0.000  0.00  0.00    +0.000 C 
ATOM      8  C   UNL     1       7.266   5.874   0.000  0.00  0.00    +0.000 C 
ENDROOT
BRANCH   8   9
ATOM      9  C   UNL     1       7.266   6.699   0.000  0.00  0.00    +0.000 A 
ATOM     10  C   UNL     1       6.551   7.112   0.000  0.00  0.00    +0.000 A 
ATOM     11  C   UNL     1       7.980   7.112   0.000  0.00  0.00    +0.000 A 
ATOM     12  C   UNL     1       6.551   7.937   0.000  0.00  0.00    +0.000 A 
ATOM     13  C   UNL     1       7.980   7.937   0.000  0.00  0.00    +0.000 A 
ATOM     14  C   UNL     1       7.266   8.349   0.000  0.00  0.00    +0.000 A 
ATOM     15  C   UNL     1       5.837   8.349   0.000  0.00  0.00    +0.000 C 
ATOM     16  C   UNL     1       8.695   8.349   0.000  0.00  0.00    +0.000 C 
BRANCH  14  18
ATOM     17  O   UNL     1       8.695   9.174   0.000  0.00  0.00    +0.000 OA
ATOM     18  N   UNL     1       7.266   9.174   0.000  0.00  0.00    +0.000 NA
ATOM     19  C   UNL     1       7.980   9.587   0.000  0.00  0.00    +0.000 C 
BRANCH  19  20
ATOM     20  C   UNL     1       7.980  10.412   0.000  0.00  0.00    +0.000 C 
ATOM     21  C   UNL     1       8.695  10.824   0.000  0.00  0.00    +0.000 C 
ENDBRANCH  19  20
ENDBRANCH  14  18
ENDBRANCH   8   9
BRANCH   3  22
ATOM     22  N   UNL     1       4.408   4.224   0.000  0.00  0.00    +0.000 NA
ATOM     23  C   UNL     1       3.693   4.637   0.000  0.00  0.00    +0.000 C 
BRANCH  22  24
ATOM     24  C   UNL     1       4.408   3.399   0.000  0.00  0.00    +0.000 C 
BRANCH  24  25
ATOM     25  C   UNL     1       3.693   2.987   0.000  0.00  0.00    +0.000 C 
BRANCH  25  26
ATOM     26  C   UNL     1       3.693   2.162   0.000  0.00  0.00    +0.000 A 
ATOM     27  C   UNL     1       2.979   1.749   0.000  0.00  0.00    +0.000 A 
ATOM     28  C   UNL     1       4.408   1.749   0.000  0.00  0.00    +0.000 A 
ATOM     29  C   UNL     1       2.979   0.924   0.000  0.00  0.00    +0.000 A 
ATOM     30  C   UNL     1       4.408   0.924   0.000  0.00  0.00    +0.000 A 
ATOM     31  C   UNL     1       3.693   0.511   0.000  0.00  0.00    +0.000 A 
ENDBRANCH  25  26
ENDBRANCH  24  25
ENDBRANCH  22  24
ENDBRANCH   3  22
TORSDOF 7
REMARK  Name = 
REMARK  7 active torsions:
REMARK  status: ('A' for Active; 'I' for Inactive)
REMARK    1  A    between atoms: N_5  and  C_8
REMARK    2  A    between atoms: N_5  and  C_13
REMARK    3  A    between atoms: N_7  and  C_23
REMARK    4  A    between atoms: C_13  and  C_16
REMARK    5  A    between atoms: C_15  and  C_17
REMARK    6  A    between atoms: C_16  and  C_18
REMARK    7  A    between atoms: C_31  and  C_32
REMARK                            x       y       z     vdW  Elec       q    Type
REMARK                         _______ _______ _______ _____ _____    ______ ____
ROOT
ATOM      1  O   HOH     1       0.443   5.427   0.000  0.00  0.00    +0.000 OA
ENDROOT
TORSDOF 0
