REMARK  Name = 
REMARK  1 active torsions:
REMARK  status: ('A' for Active; 'I' for Inactive)
REMARK    1  A    between atoms: C_11  and  C_17
REMARK                            x       y       z     vdW  Elec       q    Type
REMARK                         _______ _______ _______ _____ _____    ______ ____
ROOT
ATOM      1  O   UNL     1       1.650  -1.746   0.000  0.00  0.00    +0.000 OA
ATOM      2  O   UNL     1       2.800  -2.410   0.000  0.00  0.00    +0.000 OA
ATOM      3  O   UNL     1       4.217   2.801   0.000  0.00  0.00    +0.000 OA
ATOM      4  N   UNL     1       4.217   1.372   0.000  0.00  0.00    +0.000 N 
ATOM      5  N   UNL     1       4.674   0.704   0.000  0.00  0.00    +0.000 NA
ATOM      6  C   UNL     1       3.410   1.434   0.000  0.00  0.00    +0.000 C 
ATOM      7  C   UNL     1       2.857   0.843   0.000  0.00  0.00    +0.000 C 
ATOM      8  C   UNL     1       2.973   0.042   0.000  0.00  0.00    +0.000 A 
ATOM      9  C   UNL     1       3.687  -0.371   0.000  0.00  0.00    +0.000 A 
ATOM     10  C   UNL     1       4.438  -0.070   0.000  0.00  0.00    +0.000 C 
ATOM     11  C   UNL     1       3.111   2.202   0.000  0.00  0.00    +0.000 C 
ATOM     12  C   UNL     1       2.258  -0.371   0.000  0.00  0.00    +0.000 A 
ATOM     13  C   UNL     1       3.687  -1.196   0.000  0.00  0.00    +0.000 A 
ATOM     14  C   UNL     1       2.258  -1.196   0.000  0.00  0.00    +0.000 A 
ATOM     15  C   UNL     1       2.973  -1.608   0.000  0.00  0.00    +0.000 A 
ATOM     16  C   UNL     1       4.629   2.087   0.000  0.00  0.00    +0.000 C 
ATOM     17  C   UNL     1       1.984  -2.495   0.000  0.00  0.00    +0.000 C 
ATOM     18  C   UNL     1       5.454   2.087   0.000  0.00  0.00    +0.000 C 
ENDROOT
BRANCH  10  20
ATOM     19  N   UNL     1       6.869  -2.302   0.000  0.00  0.00    +0.000 NA
ATOM     20  C   UNL     1       5.046  -0.628   0.000  0.00  0.00    +0.000 A 
ATOM     21  C   UNL     1       5.833  -0.381   0.000  0.00  0.00    +0.000 A 
ATOM     22  C   UNL     1       4.867  -1.433   0.000  0.00  0.00    +0.000 A 
ATOM     23  C   UNL     1       6.441  -0.939   0.000  0.00  0.00    +0.000 A 
ATOM     24  C   UNL     1       5.475  -1.991   0.000  0.00  0.00    +0.000 A 
ATOM     25  C   UNL     1       6.262  -1.744   0.000  0.00  0.00    +0.000 A 
ENDBRANCH  10  20
TORSDOF 1
