REMARK  Name = 
REMARK  9 active torsions:
REMARK  status: ('A' for Active; 'I' for Inactive)
REMARK    1  A    between atoms: N_13  and  C_21
REMARK    2  A    between atoms: N_14  and  C_22
REMARK    3  A    between atoms: C_15  and  C_16
REMARK    4  A    between atoms: C_15  and  C_17
REMARK    5  A    between atoms: C_16  and  C_18
REMARK    6  A    between atoms: C_17  and  C_19
REMARK    7  A    between atoms: C_18  and  C_20
REMARK    8  A    between atoms: C_27  and  C_33
REMARK    9  A    between atoms: C_28  and  C_34
REMARK                            x       y       z     vdW  Elec       q    Type
REMARK                         _______ _______ _______ _____ _____    ______ ____
ROOT
ATOM      1  C   UNL     1       5.222   0.412   0.000  0.00  0.00    +0.000 C 
ENDROOT
BRANCH   1   2
ATOM      2  C   UNL     1       5.222  -0.412   0.000  0.00  0.00    +0.000 C 
BRANCH   2   3
ATOM      3  C   UNL     1       4.508  -0.825   0.000  0.00  0.00    +0.000 C 
BRANCH   3   6
ATOM      4  O   UNL     1       5.222  -2.062   0.000  0.00  0.00    +0.000 OA
ATOM      5  N   UNL     1       3.793  -2.062   0.000  0.00  0.00    +0.000 NA
ATOM      6  C   UNL     1       4.508  -1.650   0.000  0.00  0.00    +0.000 C 
BRANCH   5  10
ATOM      7  I   UNL     1       2.365  -2.888   0.000  0.00  0.00    +0.000 I 
ATOM      8  I   UNL     1       5.222  -2.888   0.000  0.00  0.00    +0.000 I 
ATOM      9  I   UNL     1       3.793  -5.363   0.000  0.00  0.00    +0.000 I 
ATOM     10  C   UNL     1       3.793  -2.888   0.000  0.00  0.00    +0.000 A 
ATOM     11  C   UNL     1       3.079  -3.300   0.000  0.00  0.00    +0.000 A 
ATOM     12  C   UNL     1       4.508  -3.300   0.000  0.00  0.00    +0.000 A 
ATOM     13  C   UNL     1       3.079  -4.125   0.000  0.00  0.00    +0.000 A 
ATOM     14  C   UNL     1       4.508  -4.125   0.000  0.00  0.00    +0.000 A 
ATOM     15  C   UNL     1       3.793  -4.538   0.000  0.00  0.00    +0.000 A 
BRANCH  13  18
ATOM     16  O   UNL     1       2.365  -5.363   0.000  0.00  0.00    +0.000 OA
ATOM     17  O   UNL     1       1.650  -4.125   0.000  0.00  0.00    +0.000 OA
ATOM     18  C   UNL     1       2.365  -4.538   0.000  0.00  0.00    +0.000 C 
ENDBRANCH  13  18
ENDBRANCH   5  10
ENDBRANCH   3   6
ENDBRANCH   2   3
ENDBRANCH   1   2
BRANCH   1  19
ATOM     19  C   UNL     1       5.937   0.825   0.000  0.00  0.00    +0.000 C 
BRANCH  19  22
ATOM     20  O   UNL     1       5.222   2.062   0.000  0.00  0.00    +0.000 OA
ATOM     21  N   UNL     1       6.652   2.062   0.000  0.00  0.00    +0.000 NA
ATOM     22  C   UNL     1       5.937   1.650   0.000  0.00  0.00    +0.000 C 
BRANCH  21  26
ATOM     23  I   UNL     1       5.222   2.888   0.000  0.00  0.00    +0.000 I 
ATOM     24  I   UNL     1       8.080   2.888   0.000  0.00  0.00    +0.000 I 
ATOM     25  I   UNL     1       6.652   5.363   0.000  0.00  0.00    +0.000 I 
ATOM     26  C   UNL     1       6.652   2.888   0.000  0.00  0.00    +0.000 A 
ATOM     27  C   UNL     1       5.937   3.300   0.000  0.00  0.00    +0.000 A 
ATOM     28  C   UNL     1       7.366   3.300   0.000  0.00  0.00    +0.000 A 
ATOM     29  C   UNL     1       5.937   4.125   0.000  0.00  0.00    +0.000 A 
ATOM     30  C   UNL     1       7.366   4.125   0.000  0.00  0.00    +0.000 A 
ATOM     31  C   UNL     1       6.652   4.538   0.000  0.00  0.00    +0.000 A 
BRANCH  29  34
ATOM     32  O   UNL     1       5.222   5.363   0.000  0.00  0.00    +0.000 OA
ATOM     33  O   UNL     1       4.508   4.125   0.000  0.00  0.00    +0.000 OA
ATOM     34  C   UNL     1       5.222   4.538   0.000  0.00  0.00    +0.000 C 
ENDBRANCH  29  34
ENDBRANCH  21  26
ENDBRANCH  19  22
ENDBRANCH   1  19
TORSDOF 9
