REMARK  Name = 
REMARK  3 active torsions:
REMARK  status: ('A' for Active; 'I' for Inactive)
REMARK    1  A    between atoms: C_2  and  C_4
REMARK    2  A    between atoms: CA_3  and  C_4
REMARK    3  A    between atoms: CA_3  and  C_13
REMARK                            x       y       z     vdW  Elec       q    Type
REMARK                         _______ _______ _______ _____ _____    ______ ____
ROOT
ATOM      1  C   UNL     1      -0.715   0.412   0.000  0.00  0.00    +0.000 A 
ATOM      2  C   UNL     1      -0.715  -0.412   0.000  0.00  0.00    +0.000 A 
ATOM      3  N   UNL     1      -1.499  -0.667   0.000  0.00  0.00    +0.000 NA
ATOM      4  C   UNL     1      -1.984   0.000   0.000  0.00  0.00    +0.000 A 
ATOM      5  C   UNL     1      -1.499   0.667   0.000  0.00  0.00    +0.000 A 
ATOM      6  C   UNL     1      -1.835   1.421   0.000  0.00  0.00    +0.000 A 
ATOM      7  C   UNL     1      -2.804   0.086   0.000  0.00  0.00    +0.000 A 
ATOM      8  C   UNL     1      -3.140   0.840   0.000  0.00  0.00    +0.000 A 
ATOM      9  C   UNL     1      -2.655   1.507   0.000  0.00  0.00    +0.000 A 
ATOM     10  O   UNL     1      -2.991   2.261   0.000  0.00  0.00    +0.000 OA
ENDROOT
BRANCH   1  11
ATOM     11  C   UNL     1       0.000   0.825   0.000  0.00  0.00    +0.000 C 
BRANCH  11  13
ATOM     12  N   UNL     1       0.715  -0.412   0.000  0.00  0.00    +0.000 NA
ATOM     13  CA  UNL     1       0.715   0.412   0.000  0.00  0.00    +0.000 C 
BRANCH  13  15
ATOM     14  O   UNL     1       1.429   1.650   0.000  0.00  0.00    +0.000 OA
ATOM     15  C   UNL     1       1.429   0.825   0.000  0.00  0.00    +0.000 C 
ATOM     16  OXT UNL     1       2.143   0.412   0.000  0.00  0.00    +0.000 OA
ENDBRANCH  13  15
ENDBRANCH  11  13
ENDBRANCH   1  11
TORSDOF 3
