REMARK  Name = 
REMARK  4 active torsions:
REMARK  status: ('A' for Active; 'I' for Inactive)
REMARK    1  A    between atoms: C_2  and  O_10
REMARK    2  A    between atoms: C_4  and  C_5
REMARK    3  A    between atoms: O_10  and  C_11
REMARK    4  A    between atoms: C_15  and  C_16
REMARK                            x       y       z     vdW  Elec       q    Type
REMARK                         _______ _______ _______ _____ _____    ______ ____
ROOT
ATOM      1  C   UNL     1       0.357   0.056   0.000  0.00  0.00    +0.000 A 
ATOM      2  C   UNL     1      -0.357  -0.356   0.000  0.00  0.00    +0.000 A 
ATOM      3  O   UNL     1      -0.357  -1.181   0.000  0.00  0.00    +0.000 OA
ATOM      4  O   UNL     1      -0.357   1.294   0.000  0.00  0.00    +0.000 OA
ATOM      5  C   UNL     1       0.357   0.881   0.000  0.00  0.00    +0.000 A 
ATOM      6  C   UNL     1      -2.501   0.056   0.000  0.00  0.00    +0.000 A 
ATOM      7  C   UNL     1      -1.787  -0.356   0.000  0.00  0.00    +0.000 A 
ATOM      8  C   UNL     1      -1.072   0.056   0.000  0.00  0.00    +0.000 A 
ATOM      9  C   UNL     1      -1.072   0.881   0.000  0.00  0.00    +0.000 A 
ATOM     10  C   UNL     1      -1.787   1.294   0.000  0.00  0.00    +0.000 A 
ATOM     11  C   UNL     1      -2.501   0.881   0.000  0.00  0.00    +0.000 A 
ATOM     12  O   UNL     1      -3.216   1.294   0.000  0.00  0.00    +0.000 OA
ATOM     13  O   UNL     1      -1.787  -1.181   0.000  0.00  0.00    +0.000 OA
ENDROOT
BRANCH   5  14
ATOM     14  C   UNL     1       1.072   1.294   0.000  0.00  0.00    +0.000 A 
ATOM     15  C   UNL     1       1.072   2.119   0.000  0.00  0.00    +0.000 A 
ATOM     16  C   UNL     1       1.787   2.531   0.000  0.00  0.00    +0.000 A 
ATOM     17  C   UNL     1       2.500   2.119   0.000  0.00  0.00    +0.000 A 
ATOM     18  O   UNL     1       3.216   2.531   0.000  0.00  0.00    +0.000 OA
ATOM     19  C   UNL     1       1.787   0.881   0.000  0.00  0.00    +0.000 A 
ATOM     20  C   UNL     1       2.500   1.294   0.000  0.00  0.00    +0.000 A 
ATOM     21  O   UNL     1       3.216   0.881   0.000  0.00  0.00    +0.000 OA
ENDBRANCH   5  14
BRANCH   1  22
ATOM     22  O   UNL     1       1.072  -0.356   0.000  0.00  0.00    +0.000 OA
BRANCH  22  24
ATOM     23  C   UNL     1       1.787  -1.594   0.000  0.00  0.00    +0.000 C 
ATOM     24  C   UNL     1       1.072  -1.181   0.000  0.00  0.00    +0.000 C 
ATOM     25  O   UNL     1       0.357  -1.594   0.000  0.00  0.00    +0.000 OA
ATOM     26  C   UNL     1       0.357  -2.419   0.000  0.00  0.00    +0.000 C 
ATOM     27  C   UNL     1       1.787  -2.419   0.000  0.00  0.00    +0.000 C 
ATOM     28  C   UNL     1       1.072  -2.831   0.000  0.00  0.00    +0.000 C 
ATOM     29  O   UNL     1       1.072  -3.656   0.000  0.00  0.00    +0.000 OA
ATOM     30  O   UNL     1       2.501  -1.181   0.000  0.00  0.00    +0.000 OA
ATOM     31  O   UNL     1       2.501  -2.831   0.000  0.00  0.00    +0.000 OA
BRANCH  26  32
ATOM     32  C   UNL     1      -0.357  -2.831   0.000  0.00  0.00    +0.000 C 
ATOM     33  O   UNL     1      -0.357  -3.656   0.000  0.00  0.00    +0.000 OA
ENDBRANCH  26  32
ENDBRANCH  22  24
ENDBRANCH   1  22
TORSDOF 4
