REMARK  Name = 
REMARK  5 active torsions:
REMARK  status: ('A' for Active; 'I' for Inactive)
REMARK    1  A    between atoms: C_4  and  S_5
REMARK    2  A    between atoms: S_5  and  C_6
REMARK    3  A    between atoms: C_9  and  C_11
REMARK    4  A    between atoms: C_16  and  C_24
REMARK    5  A    between atoms: C_20  and  C_21
REMARK                            x       y       z     vdW  Elec       q    Type
REMARK                         _______ _______ _______ _____ _____    ______ ____
ROOT
ATOM      1  C   UNL     1       1.773   0.249   0.000  0.00  0.00    +0.000 C 
ATOM      2  C   UNL     1       2.558   0.504   0.000  0.00  0.00    +0.000 C 
ATOM      3  C   UNL     1       2.813   1.288   0.000  0.00  0.00    +0.000 C 
ATOM      4  C   UNL     1       3.043  -0.164   0.000  0.00  0.00    +0.000 C 
ATOM      5  C   UNL     1       2.558  -0.831   0.000  0.00  0.00    +0.000 C 
ATOM      6  N   UNL     1       1.773  -0.576   0.000  0.00  0.00    +0.000 N 
ATOM      7  C   UNL     1       0.948  -0.576   0.000  0.00  0.00    +0.000 C 
ATOM      8  O   UNL     1       0.365  -1.159   0.000  0.00  0.00    +0.000 OA
ATOM      9  C   UNL     1       0.948   0.249   0.000  0.00  0.00    +0.000 C 
ENDROOT
BRANCH   9  10
ATOM     10  C   UNL     1       0.365   0.832   0.000  0.00  0.00    +0.000 C 
ATOM     11  C   UNL     1      -0.432   0.619   0.000  0.00  0.00    +0.000 C 
ATOM     12  O   UNL     1       0.579   1.629   0.000  0.00  0.00    +0.000 OA
ENDBRANCH   9  10
BRANCH   5  13
ATOM     13  C   UNL     1       2.813  -1.616   0.000  0.00  0.00    +0.000 C 
ATOM     14  O   UNL     1       2.261  -2.229   0.000  0.00  0.00    +0.000 OA
ATOM     15  O   UNL     1       3.620  -1.787   0.000  0.00  0.00    +0.000 OA
ENDBRANCH   5  13
BRANCH   4  16
ATOM     16  S   UNL     1       3.868  -0.164   0.000  0.00  0.00    +0.000 S 
BRANCH  16  17
ATOM     17  C   UNL     1       4.280   0.551   0.000  0.00  0.00    +0.000 C 
ATOM     18  C   UNL     1       5.101   0.637   0.000  0.00  0.00    +0.000 C 
ATOM     19  N   UNL     1       5.272   1.444   0.000  0.00  0.00    +0.000 NA
ATOM     20  C   UNL     1       4.558   1.857   0.000  0.00  0.00    +0.000 C 
ATOM     21  C   UNL     1       3.945   1.304   0.000  0.00  0.00    +0.000 C 
BRANCH  20  22
ATOM     22  C   UNL     1       4.472   2.677   0.000  0.00  0.00    +0.000 C 
ATOM     23  O   UNL     1       3.718   3.013   0.000  0.00  0.00    +0.000 OA
ATOM     24  N   UNL     1       5.139   3.162   0.000  0.00  0.00    +0.000 N 
ATOM     25  C   UNL     1       5.053   3.982   0.000  0.00  0.00    +0.000 C 
ATOM     26  C   UNL     1       5.893   2.826   0.000  0.00  0.00    +0.000 C 
ENDBRANCH  20  22
ENDBRANCH  16  17
ENDBRANCH   4  16
TORSDOF 5
