REMARK  Name = 
REMARK  3 active torsions:
REMARK  status: ('A' for Active; 'I' for Inactive)
REMARK    1  A    between atoms: O_1  and  C_17
REMARK    2  A    between atoms: O_1  and  C_19
REMARK    3  A    between atoms: N_5  and  C_20
REMARK                            x       y       z     vdW  Elec       q    Type
REMARK                         _______ _______ _______ _____ _____    ______ ____
ROOT
ATOM      1  N   UNL     1       9.147  -1.208   0.000  0.00  0.00    +0.000 NA
ATOM      2  N   UNL     1       8.230   0.061   0.000  0.00  0.00    +0.000 N 
ATOM      3  C   UNL     1       7.817  -1.209   0.000  0.00  0.00    +0.000 C 
ATOM      4  C   UNL     1       8.485  -0.724   0.000  0.00  0.00    +0.000 C 
ATOM      5  C   UNL     1       8.073  -1.988   0.000  0.00  0.00    +0.000 C 
ATOM      6  C   UNL     1       7.150  -0.724   0.000  0.00  0.00    +0.000 A 
ATOM      7  C   UNL     1       8.893  -1.987   0.000  0.00  0.00    +0.000 C 
ATOM      8  C   UNL     1       7.405   0.061   0.000  0.00  0.00    +0.000 A 
ATOM      9  C   UNL     1       7.150  -1.694   0.000  0.00  0.00    +0.000 C 
ATOM     10  C   UNL     1       9.932  -0.954   0.000  0.00  0.00    +0.000 C 
ATOM     11  C   UNL     1       6.312  -0.915   0.000  0.00  0.00    +0.000 A 
ATOM     12  C   UNL     1       8.715   0.728   0.000  0.00  0.00    +0.000 C 
ATOM     13  C   UNL     1       6.840   0.708   0.000  0.00  0.00    +0.000 A 
ATOM     14  C   UNL     1       5.732  -0.281   0.000  0.00  0.00    +0.000 A 
ATOM     15  C   UNL     1       5.998   0.536   0.000  0.00  0.00    +0.000 A 
ENDROOT
BRANCH  14  16
ATOM     16  O   UNL     1       4.926  -0.456   0.000  0.00  0.00    +0.000 OA
BRANCH  16  19
ATOM     17  O   UNL     1       4.623   0.941   0.000  0.00  0.00    +0.000 OA
ATOM     18  N   UNL     1       3.565  -0.020   0.000  0.00  0.00    +0.000 NA
ATOM     19  C   UNL     1       4.371   0.155   0.000  0.00  0.00    +0.000 C 
BRANCH  18  20
ATOM     20  C   UNL     1       3.011   0.591   0.000  0.00  0.00    +0.000 A 
ATOM     21  C   UNL     1       2.204   0.417   0.000  0.00  0.00    +0.000 A 
ATOM     22  C   UNL     1       3.263   1.377   0.000  0.00  0.00    +0.000 A 
ATOM     23  C   UNL     1       1.650   1.028   0.000  0.00  0.00    +0.000 A 
ATOM     24  C   UNL     1       2.708   1.988   0.000  0.00  0.00    +0.000 A 
ATOM     25  C   UNL     1       1.902   1.813   0.000  0.00  0.00    +0.000 A 
ENDBRANCH  18  20
ENDBRANCH  16  19
ENDBRANCH  14  16
TORSDOF 3
