REMARK  Name = 
REMARK  3 active torsions:
REMARK  status: ('A' for Active; 'I' for Inactive)
REMARK    1  A    between atoms: C_2  and  C_13
REMARK    2  A    between atoms: C_3  and  C_4
REMARK    3  A    between atoms: C_7  and  C_10
REMARK                            x       y       z     vdW  Elec       q    Type
REMARK                         _______ _______ _______ _____ _____    ______ ____
ROOT
ATOM      1  C   UNL     1      -0.715  -0.412   0.000  0.00  0.00    +0.000 A 
ATOM      2  C   UNL     1      -0.715  -1.238   0.000  0.00  0.00    +0.000 A 
ATOM      3  C   UNL     1       0.000  -1.650   0.000  0.00  0.00    +0.000 A 
ATOM      4  C   UNL     1       0.715  -1.238   0.000  0.00  0.00    +0.000 A 
ATOM      5  C   UNL     1       0.715  -0.412   0.000  0.00  0.00    +0.000 A 
ATOM      6  C   UNL     1       0.000   0.000   0.000  0.00  0.00    +0.000 A 
ATOM      7  C   UNL     1       1.429   0.000   0.000  0.00  0.00    +0.000 C 
ATOM      8  C   UNL     1       0.899   0.632   0.000  0.00  0.00    +0.000 C 
ATOM      9  C   UNL     1       1.959   0.632   0.000  0.00  0.00    +0.000 C 
ATOM     10  C   UNL     1       2.143  -0.412   0.000  0.00  0.00    +0.000 C 
ATOM     11  C   UNL     1       2.143  -1.238   0.000  0.00  0.00    +0.000 C 
ATOM     12  C   UNL     1       1.429  -1.650   0.000  0.00  0.00    +0.000 C 
ATOM     13  C   UNL     1       1.816  -2.378   0.000  0.00  0.00    +0.000 C 
ATOM     14  C   UNL     1       1.042  -2.378   0.000  0.00  0.00    +0.000 C 
ENDROOT
BRANCH   1  16
ATOM     15  C   UNL     1      -1.429   0.825   0.000  0.00  0.00    +0.000 C 
ATOM     16  C   UNL     1      -1.429   0.000   0.000  0.00  0.00    +0.000 C 
ATOM     17  C   UNL     1      -2.143  -0.412   0.000  0.00  0.00    +0.000 C 
BRANCH  17  18
ATOM     18  C   UNL     1      -2.858   0.000   0.000  0.00  0.00    +0.000 A 
ATOM     19  C   UNL     1      -3.572  -0.412   0.000  0.00  0.00    +0.000 A 
ATOM     20  C   UNL     1      -4.287   0.000   0.000  0.00  0.00    +0.000 A 
ATOM     21  C   UNL     1      -4.287   0.825   0.000  0.00  0.00    +0.000 A 
ATOM     22  C   UNL     1      -3.572   1.238   0.000  0.00  0.00    +0.000 A 
ATOM     23  C   UNL     1      -2.858   0.825   0.000  0.00  0.00    +0.000 A 
BRANCH  21  24
ATOM     24  C   UNL     1      -5.001   1.238   0.000  0.00  0.00    +0.000 C 
ATOM     25  O   UNL     1      -5.001   2.062   0.000  0.00  0.00    +0.000 OA
ATOM     26  O   UNL     1      -5.716   0.825   0.000  0.00  0.00    +0.000 OA
ENDBRANCH  21  24
ENDBRANCH  17  18
ENDBRANCH   1  16
TORSDOF 3
