REMARK  Name = 
REMARK  13 active torsions:
REMARK  status: ('A' for Active; 'I' for Inactive)
REMARK    1  A    between atoms: C_1  and  C_2
REMARK    2  A    between atoms: C_1  and  C_3
REMARK    3  A    between atoms: C_2  and  C_4
REMARK    4  A    between atoms: C_3  and  C_9
REMARK    5  A    between atoms: C_4  and  C_10
REMARK    6  A    between atoms: C_9  and  N_23
REMARK    7  A    between atoms: C_10  and  N_24
REMARK    8  A    between atoms: C_13  and  C_21
REMARK    9  A    between atoms: C_13  and  N_23
REMARK   10  A    between atoms: C_14  and  C_22
REMARK   11  A    between atoms: C_14  and  N_24
REMARK   12  A    between atoms: C_15  and  C_21
REMARK   13  A    between atoms: C_16  and  C_22
REMARK                            x       y       z     vdW  Elec       q    Type
REMARK                         _______ _______ _______ _____ _____    ______ ____
ROOT
ATOM      1  C   UNL     1       2.858   2.475   0.000  0.00  0.00    +0.000 C 
ENDROOT
BRANCH   1   2
ATOM      2  C   UNL     1       3.572   2.062   0.000  0.00  0.00    +0.000 C 
BRANCH   2   3
ATOM      3  C   UNL     1       4.287   2.475   0.000  0.00  0.00    +0.000 C 
BRANCH   3   4
ATOM      4  N   UNL     1       5.001   2.062   0.000  0.00  0.00    +0.000 NA
BRANCH   4   5
ATOM      5  C   UNL     1       5.716   2.475   0.000  0.00  0.00    +0.000 C 
BRANCH   5   6
ATOM      6  C   UNL     1       6.430   2.062   0.000  0.00  0.00    +0.000 C 
ATOM      7  O   UNL     1       6.430   1.238   0.000  0.00  0.00    +0.000 OA
BRANCH   6  11
ATOM      8  C   UNL     1       7.859   2.062   0.000  0.00  0.00    +0.000 A 
ATOM      9  C   UNL     1       8.574   2.475   0.000  0.00  0.00    +0.000 A 
ATOM     10  C   UNL     1       7.145   3.300   0.000  0.00  0.00    +0.000 A 
ATOM     11  C   UNL     1       7.145   2.475   0.000  0.00  0.00    +0.000 A 
ATOM     12  C   UNL     1       8.574   3.300   0.000  0.00  0.00    +0.000 A 
ATOM     13  C   UNL     1       7.859   3.712   0.000  0.00  0.00    +0.000 A 
ATOM     14  O   UNL     1       9.288   3.712   0.000  0.00  0.00    +0.000 OA
ATOM     15  O   UNL     1       7.859   4.537   0.000  0.00  0.00    +0.000 OA
ENDBRANCH   6  11
ENDBRANCH   5   6
ENDBRANCH   4   5
ENDBRANCH   3   4
ENDBRANCH   2   3
ENDBRANCH   1   2
BRANCH   1  16
ATOM     16  C   UNL     1       2.143   2.062   0.000  0.00  0.00    +0.000 C 
BRANCH  16  17
ATOM     17  C   UNL     1       1.429   2.475   0.000  0.00  0.00    +0.000 C 
BRANCH  17  18
ATOM     18  C   UNL     1       0.714   2.062   0.000  0.00  0.00    +0.000 C 
BRANCH  18  19
ATOM     19  N   UNL     1       0.000   2.475   0.000  0.00  0.00    +0.000 NA
BRANCH  19  20
ATOM     20  C   UNL     1      -0.714   2.062   0.000  0.00  0.00    +0.000 C 
BRANCH  20  21
ATOM     21  C   UNL     1      -1.429   2.475   0.000  0.00  0.00    +0.000 C 
ATOM     22  O   UNL     1      -1.429   3.300   0.000  0.00  0.00    +0.000 OA
BRANCH  21  26
ATOM     23  C   UNL     1      -2.858   2.475   0.000  0.00  0.00    +0.000 A 
ATOM     24  C   UNL     1      -3.572   2.062   0.000  0.00  0.00    +0.000 A 
ATOM     25  C   UNL     1      -2.143   1.238   0.000  0.00  0.00    +0.000 A 
ATOM     26  C   UNL     1      -2.143   2.062   0.000  0.00  0.00    +0.000 A 
ATOM     27  C   UNL     1      -3.572   1.238   0.000  0.00  0.00    +0.000 A 
ATOM     28  C   UNL     1      -2.858   0.825   0.000  0.00  0.00    +0.000 A 
ATOM     29  O   UNL     1      -4.287   0.825   0.000  0.00  0.00    +0.000 OA
ATOM     30  O   UNL     1      -2.858   0.000   0.000  0.00  0.00    +0.000 OA
ENDBRANCH  21  26
ENDBRANCH  20  21
ENDBRANCH  19  20
ENDBRANCH  18  19
ENDBRANCH  17  18
ENDBRANCH  16  17
ENDBRANCH   1  16
TORSDOF 13
