REMARK  Name = 
REMARK  16 active torsions:
REMARK  status: ('A' for Active; 'I' for Inactive)
REMARK    1  A    between atoms: C_1  and  C_7
REMARK    2  A    between atoms: C_1  and  O_45
REMARK    3  A    between atoms: C_2  and  C_8
REMARK    4  A    between atoms: C_2  and  O_46
REMARK    5  A    between atoms: C_19  and  N_29
REMARK    6  A    between atoms: C_20  and  N_30
REMARK    7  A    between atoms: O_45  and  P_53
REMARK    8  A    between atoms: O_46  and  P_54
REMARK    9  A    between atoms: O_49  and  P_53
REMARK   10  A    between atoms: O_49  and  P_55
REMARK   11  A    between atoms: O_50  and  P_54
REMARK   12  A    between atoms: O_50  and  P_56
REMARK   13  A    between atoms: O_51  and  P_55
REMARK   14  A    between atoms: O_51  and  P_57
REMARK   15  A    between atoms: O_52  and  P_56
REMARK   16  A    between atoms: O_52  and  P_57
REMARK                            x       y       z     vdW  Elec       q    Type
REMARK                         _______ _______ _______ _____ _____    ______ ____
ROOT
ATOM      1  O   UNL     1      -1.827  -6.078   0.000  0.00  0.00    +0.000 OA
ATOM      2  O   UNL     1      -2.797  -4.743   0.000  0.00  0.00    +0.000 OA
ATOM      3  P   UNL     1      -2.312  -5.410   0.000  0.00  0.00    +0.000 P 
ENDROOT
BRANCH   3   4
ATOM      4  O   UNL     1      -2.979  -5.895   0.000  0.00  0.00    +0.000 OA
BRANCH   4   7
ATOM      5  O   UNL     1      -2.073  -6.629   0.000  0.00  0.00    +0.000 OA
ATOM      6  O   UNL     1      -3.714  -6.802   0.000  0.00  0.00    +0.000 OA
ATOM      7  P   UNL     1      -2.893  -6.716   0.000  0.00  0.00    +0.000 P 
BRANCH   7   8
ATOM      8  O   UNL     1      -2.807  -7.536   0.000  0.00  0.00    +0.000 OA
BRANCH   8  11
ATOM      9  O   UNL     1      -2.989  -8.688   0.000  0.00  0.00    +0.000 OA
ATOM     10  O   UNL     1      -3.959  -7.354   0.000  0.00  0.00    +0.000 OA
ATOM     11  P   UNL     1      -3.474  -8.021   0.000  0.00  0.00    +0.000 P 
BRANCH  11  12
ATOM     12  O   UNL     1      -4.142  -8.506   0.000  0.00  0.00    +0.000 OA
BRANCH  12  13
ATOM     13  C   UNL     1      -4.056  -9.326   0.000  0.00  0.00    +0.000 C 
BRANCH  13  14
ATOM     14  C   UNL     1      -4.723  -9.811   0.000  0.00  0.00    +0.000 C 
ATOM     15  C   UNL     1      -5.508  -9.556   0.000  0.00  0.00    +0.000 C 
ATOM     16  C   UNL     1      -5.992 -10.224   0.000  0.00  0.00    +0.000 C 
ATOM     17  C   UNL     1      -5.508 -10.891   0.000  0.00  0.00    +0.000 C 
ATOM     18  O   UNL     1      -5.763  -8.772   0.000  0.00  0.00    +0.000 OA
ATOM     19  O   UNL     1      -6.817 -10.224   0.000  0.00  0.00    +0.000 OA
ATOM     20  O   UNL     1      -4.723 -10.636   0.000  0.00  0.00    +0.000 OA
BRANCH  17  30
ATOM     21  C   UNL     1      -7.976 -11.931   0.000  0.00  0.00    +0.000 A 
ATOM     22  C   UNL     1      -5.278 -12.343   0.000  0.00  0.00    +0.000 A 
ATOM     23  C   UNL     1      -6.547 -12.756   0.000  0.00  0.00    +0.000 A 
ATOM     24  C   UNL     1      -7.262 -13.168   0.000  0.00  0.00    +0.000 A 
ATOM     25  C   UNL     1      -6.547 -11.931   0.000  0.00  0.00    +0.000 A 
ATOM     26  N   UNL     1      -7.262 -13.993   0.000  0.00  0.00    +0.000 NA
ATOM     27  N   UNL     1      -7.976 -12.756   0.000  0.00  0.00    +0.000 NA
ATOM     28  N   UNL     1      -7.262 -11.518   0.000  0.00  0.00    +0.000 NA
ATOM     29  N   UNL     1      -5.763 -13.011   0.000  0.00  0.00    +0.000 NA
ATOM     30  N   UNL     1      -5.763 -11.676   0.000  0.00  0.00    +0.000 N 
ENDBRANCH  17  30
ENDBRANCH  13  14
ENDBRANCH  12  13
ENDBRANCH  11  12
ENDBRANCH   8  11
ENDBRANCH   7   8
ENDBRANCH   4   7
ENDBRANCH   3   4
BRANCH   3  31
ATOM     31  O   UNL     1      -1.644  -4.925   0.000  0.00  0.00    +0.000 OA
BRANCH  31  34
ATOM     32  O   UNL     1      -0.910  -4.019   0.000  0.00  0.00    +0.000 OA
ATOM     33  O   UNL     1      -2.551  -4.191   0.000  0.00  0.00    +0.000 OA
ATOM     34  P   UNL     1      -1.731  -4.105   0.000  0.00  0.00    +0.000 P 
BRANCH  34  35
ATOM     35  O   UNL     1      -1.817  -3.284   0.000  0.00  0.00    +0.000 OA
BRANCH  35  38
ATOM     36  O   UNL     1      -0.665  -3.467   0.000  0.00  0.00    +0.000 OA
ATOM     37  O   UNL     1      -1.634  -2.132   0.000  0.00  0.00    +0.000 OA
ATOM     38  P   UNL     1      -1.149  -2.799   0.000  0.00  0.00    +0.000 P 
BRANCH  38  39
ATOM     39  O   UNL     1      -0.482  -2.314   0.000  0.00  0.00    +0.000 OA
BRANCH  39  40
ATOM     40  C   UNL     1      -0.568  -1.494   0.000  0.00  0.00    +0.000 C 
BRANCH  40  41
ATOM     41  C   UNL     1       0.099  -1.009   0.000  0.00  0.00    +0.000 C 
ATOM     42  C   UNL     1       0.884  -1.264   0.000  0.00  0.00    +0.000 C 
ATOM     43  C   UNL     1       1.369  -0.597   0.000  0.00  0.00    +0.000 C 
ATOM     44  C   UNL     1       0.884   0.071   0.000  0.00  0.00    +0.000 C 
ATOM     45  O   UNL     1       1.139  -2.049   0.000  0.00  0.00    +0.000 OA
ATOM     46  O   UNL     1       2.194  -0.597   0.000  0.00  0.00    +0.000 OA
ATOM     47  O   UNL     1       0.099  -0.184   0.000  0.00  0.00    +0.000 OA
BRANCH  44  57
ATOM     48  C   UNL     1       3.352   1.110   0.000  0.00  0.00    +0.000 A 
ATOM     49  C   UNL     1       0.654   1.523   0.000  0.00  0.00    +0.000 A 
ATOM     50  C   UNL     1       1.923   1.935   0.000  0.00  0.00    +0.000 A 
ATOM     51  C   UNL     1       2.638   2.348   0.000  0.00  0.00    +0.000 A 
ATOM     52  C   UNL     1       1.923   1.110   0.000  0.00  0.00    +0.000 A 
ATOM     53  N   UNL     1       2.638   3.173   0.000  0.00  0.00    +0.000 NA
ATOM     54  N   UNL     1       3.352   1.935   0.000  0.00  0.00    +0.000 NA
ATOM     55  N   UNL     1       2.638   0.698   0.000  0.00  0.00    +0.000 NA
ATOM     56  N   UNL     1       1.139   2.190   0.000  0.00  0.00    +0.000 NA
ATOM     57  N   UNL     1       1.139   0.856   0.000  0.00  0.00    +0.000 N 
ENDBRANCH  44  57
ENDBRANCH  40  41
ENDBRANCH  39  40
ENDBRANCH  38  39
ENDBRANCH  35  38
ENDBRANCH  34  35
ENDBRANCH  31  34
ENDBRANCH   3  31
TORSDOF 16
