REMARK  Name = 
REMARK  14 active torsions:
REMARK  status: ('A' for Active; 'I' for Inactive)
REMARK    1  A    between atoms: C_4  and  C_5
REMARK    2  A    between atoms: C_4  and  C_18
REMARK    3  A    between atoms: C_5  and  C_6
REMARK    4  A    between atoms: C_6  and  C_10
REMARK    5  A    between atoms: C_7  and  C_8
REMARK    6  A    between atoms: C_7  and  C_9
REMARK    7  A    between atoms: C_8  and  C_11
REMARK    8  A    between atoms: C_9  and  C_12
REMARK    9  A    between atoms: C_10  and  C_13
REMARK   10  A    between atoms: C_11  and  C_14
REMARK   11  A    between atoms: C_12  and  C_15
REMARK   12  A    between atoms: C_14  and  C_17
REMARK   13  A    between atoms: C_15  and  C_19
REMARK   14  A    between atoms: C_20  and  C_21
REMARK                            x       y       z     vdW  Elec       q    Type
REMARK                         _______ _______ _______ _____ _____    ______ ____
ROOT
ATOM      1  C   UNL     1      13.200  -9.822   0.000  0.00  0.00    +0.000 C 
ATOM      2  C   UNL     1      13.915  -9.409   0.000  0.00  0.00    +0.000 C 
ENDROOT
BRANCH   2   4
ATOM      3  C   UNL     1      15.344  -9.409   0.000  0.00  0.00    +0.000 C 
ATOM      4  C   UNL     1      14.629  -9.822   0.000  0.00  0.00    +0.000 C 
BRANCH   3   6
ATOM      5  O   UNL     1      16.058 -10.647   0.000  0.00  0.00    +0.000 OA
ATOM      6  C   UNL     1      16.058  -9.822   0.000  0.00  0.00    +0.000 C 
BRANCH   6   7
ATOM      7  C   UNL     1      16.773  -9.409   0.000  0.00  0.00    +0.000 C 
BRANCH   7   8
ATOM      8  C   UNL     1      17.487  -9.822   0.000  0.00  0.00    +0.000 C 
BRANCH   8   9
ATOM      9  C   UNL     1      18.202  -9.409   0.000  0.00  0.00    +0.000 C 
BRANCH   9  10
ATOM     10  C   UNL     1      18.916  -9.822   0.000  0.00  0.00    +0.000 C 
ATOM     11  C   UNL     1      19.631  -9.409   0.000  0.00  0.00    +0.000 C 
ENDBRANCH   9  10
ENDBRANCH   8   9
ENDBRANCH   7   8
ENDBRANCH   6   7
ENDBRANCH   3   6
ENDBRANCH   2   4
BRANCH   1  12
ATOM     12  C   UNL     1      13.200 -10.647   0.000  0.00  0.00    +0.000 C 
BRANCH  12  13
ATOM     13  C   UNL     1      12.486 -11.059   0.000  0.00  0.00    +0.000 C 
BRANCH  13  14
ATOM     14  C   UNL     1      12.486 -11.884   0.000  0.00  0.00    +0.000 C 
BRANCH  14  15
ATOM     15  C   UNL     1      11.771 -12.297   0.000  0.00  0.00    +0.000 C 
BRANCH  15  16
ATOM     16  C   UNL     1      11.771 -13.122   0.000  0.00  0.00    +0.000 C 
BRANCH  16  17
ATOM     17  C   UNL     1      11.057 -13.534   0.000  0.00  0.00    +0.000 C 
BRANCH  17  18
ATOM     18  C   UNL     1      11.057 -14.359   0.000  0.00  0.00    +0.000 C 
BRANCH  18  21
ATOM     19  O   UNL     1      10.342 -15.597   0.000  0.00  0.00    +0.000 OA
ATOM     20  O   UNL     1       9.628 -14.359   0.000  0.00  0.00    +0.000 OA
ATOM     21  C   UNL     1      10.342 -14.772   0.000  0.00  0.00    +0.000 C 
ENDBRANCH  18  21
ENDBRANCH  17  18
ENDBRANCH  16  17
ENDBRANCH  15  16
ENDBRANCH  14  15
ENDBRANCH  13  14
ENDBRANCH  12  13
ENDBRANCH   1  12
TORSDOF 14
