REMARK  Name = 
REMARK  5 active torsions:
REMARK  status: ('A' for Active; 'I' for Inactive)
REMARK    1  A    between atoms: C_8  and  C_9
REMARK    2  A    between atoms: C_8  and  C_10
REMARK    3  A    between atoms: C_8  and  C_11
REMARK    4  A    between atoms: C_9  and  C_12
REMARK    5  A    between atoms: C_10  and  C_13
REMARK                            x       y       z     vdW  Elec       q    Type
REMARK                         _______ _______ _______ _____ _____    ______ ____
ROOT
ATOM      1  O   UNL     1       1.679   0.427   0.000  0.00  0.00    +0.000 OA
ATOM      2  C   UNL     1       1.267   1.142   0.000  0.00  0.00    +0.000 C 
ENDROOT
BRANCH   2   5
ATOM      3  O   UNL     1       2.696   1.142   0.000  0.00  0.00    +0.000 OA
ATOM      4  O   UNL     1       1.982   2.379   0.000  0.00  0.00    +0.000 OA
ATOM      5  C   UNL     1       1.982   1.554   0.000  0.00  0.00    +0.000 C 
ENDBRANCH   2   5
BRANCH   2   6
ATOM      6  C   UNL     1       0.553   0.729   0.000  0.00  0.00    +0.000 C 
BRANCH   6   9
ATOM      7  O   UNL     1      -0.162  -0.508   0.000  0.00  0.00    +0.000 OA
ATOM      8  O   UNL     1       1.267  -0.508   0.000  0.00  0.00    +0.000 OA
ATOM      9  C   UNL     1       0.553  -0.096   0.000  0.00  0.00    +0.000 C 
ENDBRANCH   6   9
ENDBRANCH   2   6
BRANCH   2  10
ATOM     10  C   UNL     1       0.855   1.856   0.000  0.00  0.00    +0.000 C 
BRANCH  10  13
ATOM     11  O   UNL     1      -0.383   2.571   0.000  0.00  0.00    +0.000 OA
ATOM     12  O   UNL     1      -0.383   1.142   0.000  0.00  0.00    +0.000 OA
ATOM     13  C   UNL     1       0.029   1.856   0.000  0.00  0.00    +0.000 C 
ENDBRANCH  10  13
ENDBRANCH   2  10
TORSDOF 5
REMARK  Name = 
REMARK  5 active torsions:
REMARK  status: ('A' for Active; 'I' for Inactive)
REMARK    1  A    between atoms: C_8  and  C_9
REMARK    2  A    between atoms: C_8  and  C_10
REMARK    3  A    between atoms: C_8  and  C_11
REMARK    4  A    between atoms: C_9  and  C_12
REMARK    5  A    between atoms: C_10  and  C_13
REMARK                            x       y       z     vdW  Elec       q    Type
REMARK                         _______ _______ _______ _____ _____    ______ ____
ROOT
ATOM      1 GA   UNL     1       3.516   2.220   0.000  0.00  0.00    +0.000 Ga
ENDROOT
TORSDOF 0
