REMARK  Name = 
REMARK  3 active torsions:
REMARK  status: ('A' for Active; 'I' for Inactive)
REMARK    1  A    between atoms: CA_2  and  C_3
REMARK    2  A    between atoms: CA_2  and  CB_5
REMARK    3  A    between atoms: CB_5  and  CG_6
REMARK                            x       y       z     vdW  Elec       q    Type
REMARK                         _______ _______ _______ _____ _____    ______ ____
ROOT
ATOM      1  CG  PHE A   1       0.715   1.238   0.000  0.00  0.00    +0.000 A 
ATOM      2  CD1 PHE A   1       1.429   0.825   0.000  0.00  0.00    +0.000 A 
ATOM      3  CE1 PHE A   1       1.429   0.000   0.000  0.00  0.00    +0.000 A 
ATOM      4  CZ  PHE A   1       0.715  -0.412   0.000  0.00  0.00    +0.000 A 
ATOM      5  CE2 PHE A   1       0.000   0.000   0.000  0.00  0.00    +0.000 A 
ATOM      6  CD2 PHE A   1       0.000   0.825   0.000  0.00  0.00    +0.000 A 
ENDROOT
BRANCH   1   7
ATOM      7  CB  PHE A   1       0.715   2.062   0.000  0.00  0.00    +0.000 C 
BRANCH   7   9
ATOM      8  N   PHE A   1      -0.715   2.062   0.000  0.00  0.00    +0.000 NA
ATOM      9  CA  PHE A   1       0.000   2.475   0.000  0.00  0.00    +0.000 C 
BRANCH   9  10
ATOM     10  C   PHE A   1       0.000   3.300   0.000  0.00  0.00    +0.000 C 
ATOM     11  O   PHE A   1      -0.715   3.712   0.000  0.00  0.00    +0.000 OA
ENDBRANCH   9  10
ENDBRANCH   7   9
ENDBRANCH   1   7
TORSDOF 3
