REMARK  Name = 
REMARK  12 active torsions:
REMARK  status: ('A' for Active; 'I' for Inactive)
REMARK    1  A    between atoms: C_5  and  C_6
REMARK    2  A    between atoms: C_6  and  C_7
REMARK    3  A    between atoms: C_7  and  C_8
REMARK    4  A    between atoms: C_8  and  C_9
REMARK    5  A    between atoms: C_9  and  C_10
REMARK    6  A    between atoms: C_10  and  C_15
REMARK    7  A    between atoms: C_11  and  C_13
REMARK    8  A    between atoms: C_11  and  C_14
REMARK    9  A    between atoms: C_12  and  C_13
REMARK   10  A    between atoms: C_12  and  N_16
REMARK   11  A    between atoms: C_13  and  O_20
REMARK   12  A    between atoms: C_15  and  O_20
REMARK                            x       y       z     vdW  Elec       q    Type
REMARK                         _______ _______ _______ _____ _____    ______ ____
ROOT
ATOM      1  C   UNL     1       8.714   2.556   0.000  0.00  0.00    +0.000 C 
ENDROOT
BRANCH   1   2
ATOM      2  C   UNL     1       8.714   3.381   0.000  0.00  0.00    +0.000 C 
BRANCH   2   3
ATOM      3  C   UNL     1       9.428   3.793   0.000  0.00  0.00    +0.000 C 
ATOM      4  O   UNL     1       9.428   4.618   0.000  0.00  0.00    +0.000 OA
ATOM      5  O   UNL     1      10.143   3.381   0.000  0.00  0.00    +0.000 OA
ENDBRANCH   2   3
ENDBRANCH   1   2
BRANCH   1   6
ATOM      6  C   UNL     1       9.428   2.143   0.000  0.00  0.00    +0.000 C 
BRANCH   6  10
ATOM      7  C   UNL     1       9.428   0.493   0.000  0.00  0.00    +0.000 C 
ATOM      8  C   UNL     1       8.603   1.318   0.000  0.00  0.00    +0.000 C 
ATOM      9  C   UNL     1      10.253   1.318   0.000  0.00  0.00    +0.000 C 
ATOM     10  N   UNL     1       9.428   1.318   0.000  0.00  0.00    +0.000 N 
ENDBRANCH   6  10
ENDBRANCH   1   6
BRANCH   1  11
ATOM     11  O   UNL     1       7.999   2.143   0.000  0.00  0.00    +0.000 OA
BRANCH  11  12
ATOM     12  C   UNL     1       7.285   2.556   0.000  0.00  0.00    +0.000 C 
ATOM     13  O   UNL     1       7.285   3.381   0.000  0.00  0.00    +0.000 OA
BRANCH  12  14
ATOM     14  C   UNL     1       6.570   2.143   0.000  0.00  0.00    +0.000 C 
BRANCH  14  15
ATOM     15  C   UNL     1       5.856   2.556   0.000  0.00  0.00    +0.000 C 
BRANCH  15  16
ATOM     16  C   UNL     1       5.141   2.143   0.000  0.00  0.00    +0.000 C 
BRANCH  16  17
ATOM     17  C   UNL     1       4.427   2.556   0.000  0.00  0.00    +0.000 C 
BRANCH  17  18
ATOM     18  C   UNL     1       3.712   2.143   0.000  0.00  0.00    +0.000 C 
BRANCH  18  20
ATOM     19  C   UNL     1       2.284   2.143   0.000  0.00  0.00    +0.000 C 
ATOM     20  C   UNL     1       2.998   2.556   0.000  0.00  0.00    +0.000 C 
ENDBRANCH  18  20
ENDBRANCH  17  18
ENDBRANCH  16  17
ENDBRANCH  15  16
ENDBRANCH  14  15
ENDBRANCH  12  14
ENDBRANCH  11  12
ENDBRANCH   1  11
TORSDOF 12
