REMARK  Name = 
REMARK  17 active torsions:
REMARK  status: ('A' for Active; 'I' for Inactive)
REMARK    1  A    between atoms: O_2  and  C_3
REMARK    2  A    between atoms: C_13  and  C_46
REMARK    3  A    between atoms: C_18  and  O_44
REMARK    4  A    between atoms: C_26  and  O_42
REMARK    5  A    between atoms: C_28  and  O_29
REMARK    6  A    between atoms: C_46  and  C_48
REMARK    7  A    between atoms: C_48  and  O_49
REMARK    8  A    between atoms: C_48  and  C_51
REMARK    9  A    between atoms: C_51  and  C_53
REMARK   10  A    between atoms: C_53  and  C_54
REMARK   11  A    between atoms: C_54  and  C_55
REMARK   12  A    between atoms: C_55  and  C_57
REMARK   13  A    between atoms: C_57  and  C_59
REMARK   14  A    between atoms: C_59  and  C_60
REMARK   15  A    between atoms: C_59  and  O_67
REMARK   16  A    between atoms: C_60  and  C_61
REMARK   17  A    between atoms: C_62  and  N_63
REMARK                            x       y       z     vdW  Elec       q    Type
REMARK                         _______ _______ _______ _____ _____    ______ ____
ROOT
ATOM      1  C   UNL     1       0.544   5.079   0.000  0.00  0.00    +0.000 C 
ATOM      2  C   UNL     1       1.354   5.239   0.000  0.00  0.00    +0.000 C 
ATOM      3  C   UNL     1       1.620   6.019   0.000  0.00  0.00    +0.000 C 
ATOM      4  C   UNL     1       1.078   6.641   0.000  0.00  0.00    +0.000 C 
ATOM      5  C   UNL     1       2.430   6.179   0.000  0.00  0.00    +0.000 C 
ATOM      6  C   UNL     1       2.973   5.558   0.000  0.00  0.00    +0.000 C 
ATOM      7  C   UNL     1       3.782   5.717   0.000  0.00  0.00    +0.000 C 
ATOM      8  C   UNL     1       4.325   5.096   0.000  0.00  0.00    +0.000 C 
ATOM      9  O   UNL     1       5.134   5.255   0.000  0.00  0.00    +0.000 OA
ATOM     10  O   UNL     1       4.058   4.315   0.000  0.00  0.00    +0.000 OA
ATOM     11  C   UNL     1       3.249   4.155   0.000  0.00  0.00    +0.000 C 
ATOM     12  C   UNL     1       2.982   3.375   0.000  0.00  0.00    +0.000 C 
ATOM     13  C   UNL     1       3.056   2.553   0.000  0.00  0.00    +0.000 C 
ATOM     14  C   UNL     1       2.173   3.215   0.000  0.00  0.00    +0.000 C 
ATOM     15  C   UNL     1       1.906   2.435   0.000  0.00  0.00    +0.000 C 
ATOM     16  C   UNL     1       1.097   2.275   0.000  0.00  0.00    +0.000 C 
ATOM     17  C   UNL     1       0.830   1.494   0.000  0.00  0.00    +0.000 C 
ATOM     18  C   UNL     1       0.021   1.335   0.000  0.00  0.00    +0.000 C 
ATOM     19  O   UNL     1      -0.522   1.956   0.000  0.00  0.00    +0.000 OA
ATOM     20  C   UNL     1      -0.246   0.554   0.000  0.00  0.00    +0.000 C 
ATOM     21  C   UNL     1       0.297  -0.067   0.000  0.00  0.00    +0.000 C 
ATOM     22  C   UNL     1      -1.056   0.395   0.000  0.00  0.00    +0.000 C 
ATOM     23  C   UNL     1      -1.598   1.016   0.000  0.00  0.00    +0.000 C 
ATOM     24  C   UNL     1      -2.408   0.857   0.000  0.00  0.00    +0.000 C 
ATOM     25  C   UNL     1      -2.950   1.478   0.000  0.00  0.00    +0.000 C 
ATOM     26  C   UNL     1      -2.684   2.259   0.000  0.00  0.00    +0.000 C 
ATOM     27  C   UNL     1      -1.875   2.418   0.000  0.00  0.00    +0.000 C 
ATOM     28  C   UNL     1      -1.332   1.797   0.000  0.00  0.00    +0.000 C 
ATOM     29  C   UNL     1      -1.608   3.199   0.000  0.00  0.00    +0.000 C 
ATOM     30  O   UNL     1      -2.151   3.820   0.000  0.00  0.00    +0.000 OA
ATOM     31  C   UNL     1      -1.884   4.601   0.000  0.00  0.00    +0.000 C 
ATOM     32  O   UNL     1      -2.427   5.222   0.000  0.00  0.00    +0.000 OA
ATOM     33  C   UNL     1      -1.075   4.760   0.000  0.00  0.00    +0.000 C 
ATOM     34  C   UNL     1      -0.532   4.139   0.000  0.00  0.00    +0.000 C 
ATOM     35  C   UNL     1       0.278   4.298   0.000  0.00  0.00    +0.000 C 
ATOM     36  C   UNL     1      -0.798   3.358   0.000  0.00  0.00    +0.000 C 
ATOM     37  O   UNL     1      -0.256   2.737   0.000  0.00  0.00    +0.000 OA
ENDROOT
BRANCH  26  38
ATOM     38  O   UNL     1      -3.227   2.880   0.000  0.00  0.00    +0.000 OA
ATOM     39  C   UNL     1      -4.036   2.720   0.000  0.00  0.00    +0.000 C 
ENDBRANCH  26  38
BRANCH  24  40
ATOM     40  O   UNL     1      -2.674   0.076   0.000  0.00  0.00    +0.000 OA
ATOM     41  C   UNL     1      -3.484  -0.084   0.000  0.00  0.00    +0.000 C 
ENDBRANCH  24  40
BRANCH  16  42
ATOM     42  O   UNL     1       1.639   1.654   0.000  0.00  0.00    +0.000 OA
ATOM     43  C   UNL     1       1.373   0.873   0.000  0.00  0.00    +0.000 C 
ENDBRANCH  16  42
BRANCH  11  44
ATOM     44  C   UNL     1       3.792   3.534   0.000  0.00  0.00    +0.000 C 
ATOM     45  C   UNL     1       4.601   3.694   0.000  0.00  0.00    +0.000 C 
BRANCH  44  46
ATOM     46  C   UNL     1       3.525   2.753   0.000  0.00  0.00    +0.000 C 
BRANCH  46  47
ATOM     47  O   UNL     1       2.964   2.149   0.000  0.00  0.00    +0.000 OA
ATOM     48  C   UNL     1       3.207   1.360   0.000  0.00  0.00    +0.000 C 
ENDBRANCH  46  47
BRANCH  46  49
ATOM     49  C   UNL     1       4.068   2.132   0.000  0.00  0.00    +0.000 C 
ATOM     50  C   UNL     1       3.801   1.351   0.000  0.00  0.00    +0.000 C 
BRANCH  49  51
ATOM     51  C   UNL     1       4.877   2.292   0.000  0.00  0.00    +0.000 C 
BRANCH  51  52
ATOM     52  C   UNL     1       5.420   1.670   0.000  0.00  0.00    +0.000 C 
BRANCH  52  53
ATOM     53  C   UNL     1       6.229   1.830   0.000  0.00  0.00    +0.000 C 
ATOM     54  O   UNL     1       6.496   2.611   0.000  0.00  0.00    +0.000 OA
BRANCH  53  55
ATOM     55  C   UNL     1       6.772   1.209   0.000  0.00  0.00    +0.000 C 
ATOM     56  C   UNL     1       6.506   0.428   0.000  0.00  0.00    +0.000 C 
BRANCH  55  57
ATOM     57  C   UNL     1       7.582   1.368   0.000  0.00  0.00    +0.000 C 
BRANCH  57  58
ATOM     58  O   UNL     1       7.848   2.149   0.000  0.00  0.00    +0.000 OA
ATOM     59  C   UNL     1       8.658   2.308   0.000  0.00  0.00    +0.000 C 
ENDBRANCH  57  58
BRANCH  57  60
ATOM     60  C   UNL     1       8.125   0.747   0.000  0.00  0.00    +0.000 C 
BRANCH  60  61
ATOM     61  C   UNL     1       8.934   0.906   0.000  0.00  0.00    +0.000 C 
ATOM     62  C   UNL     1       9.477   0.285   0.000  0.00  0.00    +0.000 C 
BRANCH  62  63
ATOM     63  N   UNL     1      10.286   0.444   0.000  0.00  0.00    +0.000 N 
ATOM     64  C   UNL     1      10.553   1.225   0.000  0.00  0.00    +0.000 C 
ATOM     65  C   UNL     1      10.829  -0.177   0.000  0.00  0.00    +0.000 C 
ATOM     66  O   UNL     1      11.639  -0.018   0.000  0.00  0.00    +0.000 OA
ENDBRANCH  62  63
ENDBRANCH  60  61
ENDBRANCH  57  60
ENDBRANCH  55  57
ENDBRANCH  53  55
ENDBRANCH  52  53
ENDBRANCH  51  52
ENDBRANCH  49  51
ENDBRANCH  46  49
ENDBRANCH  44  46
ENDBRANCH  11  44
BRANCH   1  68
ATOM     67  C   UNL     1       0.268   6.481   0.000  0.00  0.00    +0.000 C 
ATOM     68  O   UNL     1       0.002   5.700   0.000  0.00  0.00    +0.000 OA
ENDBRANCH   1  68
TORSDOF 17
