REMARK  Name = 
REMARK  6 active torsions:
REMARK  status: ('A' for Active; 'I' for Inactive)
REMARK    1  A    between atoms: C_9  and  C_18
REMARK    2  A    between atoms: C_9  and  N_24
REMARK    3  A    between atoms: C_10  and  C_14
REMARK    4  A    between atoms: C_10  and  O_25
REMARK    5  A    between atoms: C_13  and  C_18
REMARK    6  A    between atoms: C_18  and  O_25
REMARK                            x       y       z     vdW  Elec       q    Type
REMARK                         _______ _______ _______ _____ _____    ______ ____
ROOT
ATOM      1  C   UNL     1       2.143  -0.412   0.000  0.00  0.00    +0.000 C 
ENDROOT
BRANCH   1   6
ATOM      2  C   UNL     1       0.000   0.000   0.000  0.00  0.00    +0.000 A 
ATOM      3  C   UNL     1       0.714  -0.412   0.000  0.00  0.00    +0.000 A 
ATOM      4  C   UNL     1       0.714   1.238   0.000  0.00  0.00    +0.000 A 
ATOM      5  C   UNL     1       0.000   0.825   0.000  0.00  0.00    +0.000 A 
ATOM      6  C   UNL     1       1.429   0.000   0.000  0.00  0.00    +0.000 A 
ATOM      7  C   UNL     1       1.429   0.825   0.000  0.00  0.00    +0.000 A 
ATOM      8 CL   UNL     1      -0.714   1.238   0.000  0.00  0.00    +0.000 Cl
ATOM      9 CL   UNL     1       2.143   1.238   0.000  0.00  0.00    +0.000 Cl
ENDBRANCH   1   6
BRANCH   1  10
ATOM     10  C   UNL     1       2.143  -1.238   0.000  0.00  0.00    +0.000 C 
BRANCH  10  15
ATOM     11  C   UNL     1       0.536  -2.642   0.000  0.00  0.00    +0.000 A 
ATOM     12  C   UNL     1       1.343  -2.470   0.000  0.00  0.00    +0.000 A 
ATOM     13  C   UNL     1       0.675  -1.314   0.000  0.00  0.00    +0.000 A 
ATOM     14  N   UNL     1       0.123  -1.927   0.000  0.00  0.00    +0.000 NA
ATOM     15  N   UNL     1       1.429  -1.650   0.000  0.00  0.00    +0.000 N 
ENDBRANCH  10  15
ENDBRANCH   1  10
BRANCH   1  16
ATOM     16  O   UNL     1       2.858   0.000   0.000  0.00  0.00    +0.000 OA
BRANCH  16  17
ATOM     17  C   UNL     1       3.572  -0.412   0.000  0.00  0.00    +0.000 C 
BRANCH  17  21
ATOM     18  C   UNL     1       5.716   0.825   0.000  0.00  0.00    +0.000 A 
ATOM     19  C   UNL     1       5.001   1.238   0.000  0.00  0.00    +0.000 A 
ATOM     20  C   UNL     1       5.716   0.000   0.000  0.00  0.00    +0.000 A 
ATOM     21  C   UNL     1       4.287   0.000   0.000  0.00  0.00    +0.000 A 
ATOM     22  C   UNL     1       4.287   0.825   0.000  0.00  0.00    +0.000 A 
ATOM     23  C   UNL     1       5.001  -0.412   0.000  0.00  0.00    +0.000 A 
ATOM     24 CL   UNL     1       3.572   1.238   0.000  0.00  0.00    +0.000 Cl
ATOM     25 CL   UNL     1       5.001  -1.238   0.000  0.00  0.00    +0.000 Cl
ENDBRANCH  17  21
ENDBRANCH  16  17
ENDBRANCH   1  16
TORSDOF 6
