REMARK  Name = 
REMARK  3 active torsions:
REMARK  status: ('A' for Active; 'I' for Inactive)
REMARK    1  A    between atoms: C_2  and  C_4
REMARK    2  A    between atoms: C_4  and  C_5
REMARK    3  A    between atoms: C_5  and  P_6
REMARK                            x       y       z     vdW  Elec       q    Type
REMARK                         _______ _______ _______ _____ _____    ______ ____
ROOT
ATOM      1  C   UNL     1       0.825   0.000   0.000  0.00  0.00    +0.000 C 
ATOM      2  C   UNL     1       0.000   0.000   0.000  0.00  0.00    +0.000 C 
ATOM      3 CL   UNL     1      -0.412   0.715   0.000  0.00  0.00    +0.000 Cl
ATOM      4 CL   UNL     1      -0.412  -0.715   0.000  0.00  0.00    +0.000 Cl
ENDROOT
BRANCH   1   6
ATOM      5  O   UNL     1       0.825   1.429   0.000  0.00  0.00    +0.000 OA
ATOM      6  C   UNL     1       1.238   0.715   0.000  0.00  0.00    +0.000 C 
ATOM      7  O   UNL     1       2.062   0.715   0.000  0.00  0.00    +0.000 OA
ENDBRANCH   1   6
BRANCH   1   8
ATOM      8  C   UNL     1       1.238  -0.715   0.000  0.00  0.00    +0.000 C 
BRANCH   8   9
ATOM      9  P   UNL     1       2.062  -0.715   0.000  0.00  0.00    +0.000 P 
ATOM     10  O   UNL     1       2.888  -0.715   0.000  0.00  0.00    +0.000 OA
ATOM     11  O   UNL     1       2.062  -1.540   0.000  0.00  0.00    +0.000 OA
ATOM     12  O   UNL     1       2.062   0.111   0.000  0.00  0.00    +0.000 OA
ENDBRANCH   8   9
ENDBRANCH   1   8
TORSDOF 3
