REMARK  Name = 
REMARK  4 active torsions:
REMARK  status: ('A' for Active; 'I' for Inactive)
REMARK    1  A    between atoms: C_2  and  C_4
REMARK    2  A    between atoms: C_4  and  C_5
REMARK    3  A    between atoms: C_5  and  C_10
REMARK    4  A    between atoms: C_6  and  C_7
REMARK                            x       y       z     vdW  Elec       q    Type
REMARK                         _______ _______ _______ _____ _____    ______ ____
ROOT
ATOM      1  C   UNL     1       0.825   0.000   0.000  0.00  0.00    +0.000 C 
ATOM      2  C   UNL     1       0.000   0.000   0.000  0.00  0.00    +0.000 C 
ENDROOT
BRANCH   2   3
ATOM      3  C   UNL     1      -0.412  -0.715   0.000  0.00  0.00    +0.000 C 
ATOM      4  O   UNL     1       0.000  -1.429   0.000  0.00  0.00    +0.000 OA
ATOM      5  O   UNL     1      -1.238  -0.715   0.000  0.00  0.00    +0.000 OA
ENDBRANCH   2   3
BRANCH   1   6
ATOM      6  C   UNL     1       1.238  -0.715   0.000  0.00  0.00    +0.000 C 
ATOM      7  O   UNL     1       0.825  -1.429   0.000  0.00  0.00    +0.000 OA
ATOM      8  O   UNL     1       2.062  -0.715   0.000  0.00  0.00    +0.000 OA
ENDBRANCH   1   6
BRANCH   1   9
ATOM      9  C   UNL     1       1.238   0.715   0.000  0.00  0.00    +0.000 C 
BRANCH   9  11
ATOM     10  O   UNL     1       2.475   1.429   0.000  0.00  0.00    +0.000 OA
ATOM     11  C   UNL     1       2.062   0.715   0.000  0.00  0.00    +0.000 C 
ATOM     12  O   UNL     1       2.475   0.000   0.000  0.00  0.00    +0.000 OA
ENDBRANCH   9  11
ENDBRANCH   1   9
TORSDOF 4
