REMARK  Name = 
REMARK  6 active torsions:
REMARK  status: ('A' for Active; 'I' for Inactive)
REMARK    1  A    between atoms: C_9  and  C_11
REMARK    2  A    between atoms: C_9  and  C_23
REMARK    3  A    between atoms: C_10  and  C_12
REMARK    4  A    between atoms: C_10  and  C_24
REMARK    5  A    between atoms: C_11  and  C_33
REMARK    6  A    between atoms: C_12  and  C_34
REMARK                            x       y       z     vdW  Elec       q    Type
REMARK                         _______ _______ _______ _____ _____    ______ ____
ROOT
ATOM      1  C   UNL     1      -3.597  -2.484   0.000  0.00  0.00    +0.000 C 
ATOM      2  C   UNL     1      -1.429   3.292   0.000  0.00  0.00    +0.000 C 
ATOM      3  C   UNL     1      -2.050  -2.940   0.000  0.00  0.00    +0.000 C 
ATOM      4  C   UNL     1      -3.310   1.482   0.000  0.00  0.00    +0.000 C 
ATOM      5  C   UNL     1       1.195  -2.909   0.000  0.00  0.00    +0.000 C 
ATOM      6  C   UNL     1       1.139   2.818   0.000  0.00  0.00    +0.000 C 
ATOM      7  C   UNL     1      -3.311  -1.710   0.000  0.00  0.00    +0.000 C 
ATOM      8  C   UNL     1      -2.060   2.760   0.000  0.00  0.00    +0.000 C 
ATOM      9  C   UNL     1      -0.444  -2.110   0.000  0.00  0.00    +0.000 C 
ATOM     10  C   UNL     1      -2.511  -0.107   0.000  0.00  0.00    +0.000 C 
ATOM     11  C   UNL     1      -0.450   1.990   0.000  0.00  0.00    +0.000 C 
ATOM     12  C   UNL     1       1.588  -0.042   0.000  0.00  0.00    +0.000 C 
ATOM     13  C   UNL     1      -1.937  -2.123   0.000  0.00  0.00    +0.000 A 
ATOM     14  C   UNL     1      -2.494   1.357   0.000  0.00  0.00    +0.000 A 
ATOM     15  C   UNL     1       1.049  -2.096   0.000  0.00  0.00    +0.000 A 
ATOM     16  C   UNL     1       1.014   2.002   0.000  0.00  0.00    +0.000 A 
ATOM     17  C   UNL     1      -2.498  -1.571   0.000  0.00  0.00    +0.000 A 
ATOM     18  C   UNL     1      -1.914   1.948   0.000  0.00  0.00    +0.000 A 
ATOM     19  C   UNL     1       1.601  -1.535   0.000  0.00  0.00    +0.000 A 
ATOM     20  C   UNL     1       1.575   1.451   0.000  0.00  0.00    +0.000 A 
ATOM     21  C   UNL     1      -1.179  -1.706   0.000  0.00  0.00    +0.000 A 
ATOM     22  C   UNL     1       0.256  -1.723   0.000  0.00  0.00    +0.000 A 
ATOM     23  C   UNL     1      -2.137   0.657   0.000  0.00  0.00    +0.000 A 
ATOM     24  C   UNL     1       0.256   1.615   0.000  0.00  0.00    +0.000 A 
ATOM     25  C   UNL     1      -2.124  -0.807   0.000  0.00  0.00    +0.000 A 
ATOM     26  C   UNL     1      -1.179   1.603   0.000  0.00  0.00    +0.000 A 
ATOM     27  C   UNL     1       1.213  -0.748   0.000  0.00  0.00    +0.000 A 
ATOM     28  C   UNL     1       1.171   0.686   0.000  0.00  0.00    +0.000 A 
ATOM     29  N   UNL     1      -1.303  -0.946   0.000  0.00  0.00    +0.000 NA
ATOM     30  N   UNL     1      -1.348   0.810   0.000  0.00  0.00    +0.000 NA
ATOM     31  N   UNL     1       0.395  -0.931   0.000  0.00  0.00    +0.000 NA
ATOM     32  N   UNL     1       0.409   0.797   0.000  0.00  0.00    +0.000 NA
ENDROOT
BRANCH  20  33
ATOM     33  C   UNL     1       2.390   1.578   0.000  0.00  0.00    +0.000 C 
BRANCH  33  34
ATOM     34  C   UNL     1       2.687   2.347   0.000  0.00  0.00    +0.000 C 
BRANCH  34  35
ATOM     35  C   UNL     1       3.503   2.474   0.000  0.00  0.00    +0.000 C 
ATOM     36  O   UNL     1       3.800   3.244   0.000  0.00  0.00    +0.000 OA
ATOM     37  O   UNL     1       4.020   1.832   0.000  0.00  0.00    +0.000 OA
ENDBRANCH  34  35
ENDBRANCH  33  34
ENDBRANCH  20  33
BRANCH  19  38
ATOM     38  C   UNL     1       2.415  -1.666   0.000  0.00  0.00    +0.000 C 
BRANCH  38  39
ATOM     39  C   UNL     1       2.709  -2.437   0.000  0.00  0.00    +0.000 C 
BRANCH  39  40
ATOM     40  C   UNL     1       3.523  -2.568   0.000  0.00  0.00    +0.000 C 
ATOM     41  O   UNL     1       4.044  -1.929   0.000  0.00  0.00    +0.000 OA
ATOM     42  O   UNL     1       3.817  -3.339   0.000  0.00  0.00    +0.000 OA
ENDBRANCH  39  40
ENDBRANCH  38  39
ENDBRANCH  19  38
TORSDOF 6
REMARK  Name = 
REMARK  6 active torsions:
REMARK  status: ('A' for Active; 'I' for Inactive)
REMARK    1  A    between atoms: C_9  and  C_11
REMARK    2  A    between atoms: C_9  and  C_23
REMARK    3  A    between atoms: C_10  and  C_12
REMARK    4  A    between atoms: C_10  and  C_24
REMARK    5  A    between atoms: C_11  and  C_33
REMARK    6  A    between atoms: C_12  and  C_34
REMARK                            x       y       z     vdW  Elec       q    Type
REMARK                         _______ _______ _______ _____ _____    ______ ____
ROOT
ATOM      1 ZN   UNL     1       6.401   0.000   0.000  0.00  0.00    +0.000 Zn
ENDROOT
TORSDOF 0
