REMARK  Name = 
REMARK  16 active torsions:
REMARK  status: ('A' for Active; 'I' for Inactive)
REMARK    1  A    between atoms: C_2  and  C_3
REMARK    2  A    between atoms: C_3  and  C_4
REMARK    3  A    between atoms: C_4  and  N_5
REMARK    4  A    between atoms: N_5  and  C_6
REMARK    5  A    between atoms: C_6  and  C_7
REMARK    6  A    between atoms: C_7  and  O_8
REMARK    7  A    between atoms: O_8  and  C_9
REMARK    8  A    between atoms: C_10  and  O_28
REMARK    9  A    between atoms: C_12  and  C_13
REMARK   10  A    between atoms: C_15  and  O_16
REMARK   11  A    between atoms: O_16  and  C_17
REMARK   12  A    between atoms: C_19  and  C_20
REMARK   13  A    between atoms: O_28  and  C_29
REMARK   14  A    between atoms: C_37  and  O_38
REMARK   15  A    between atoms: O_38  and  C_39
REMARK   16  A    between atoms: C_41  and  C_42
REMARK                            x       y       z     vdW  Elec       q    Type
REMARK                         _______ _______ _______ _____ _____    ______ ____
ROOT
ATOM      1  C   UNL     1       2.448  -3.684   0.000  0.00  0.00    +0.000 C 
ATOM      2  C   UNL     1       1.780  -3.199   0.000  0.00  0.00    +0.000 C 
ATOM      3  O   UNL     1       2.035  -2.414   0.000  0.00  0.00    +0.000 OA
ATOM      4  C   UNL     1       2.860  -2.414   0.000  0.00  0.00    +0.000 C 
ATOM      5  C   UNL     1       3.115  -3.199   0.000  0.00  0.00    +0.000 C 
ENDROOT
BRANCH   4   6
ATOM      6  C   UNL     1       3.345  -1.747   0.000  0.00  0.00    +0.000 C 
ATOM      7  O   UNL     1       3.010  -0.993   0.000  0.00  0.00    +0.000 OA
ENDBRANCH   4   6
BRANCH   5   8
ATOM      8  O   UNL     1       3.900  -3.454   0.000  0.00  0.00    +0.000 OA
BRANCH   8   9
ATOM      9  C   UNL     1       4.513  -2.902   0.000  0.00  0.00    +0.000 C 
ATOM     10  O   UNL     1       4.341  -2.095   0.000  0.00  0.00    +0.000 OA
ATOM     11  C   UNL     1       4.955  -1.543   0.000  0.00  0.00    +0.000 C 
ATOM     12  C   UNL     1       5.739  -1.798   0.000  0.00  0.00    +0.000 C 
ATOM     13  O   UNL     1       6.352  -1.246   0.000  0.00  0.00    +0.000 OA
ATOM     14  C   UNL     1       5.911  -2.605   0.000  0.00  0.00    +0.000 C 
ATOM     15  O   UNL     1       6.695  -2.860   0.000  0.00  0.00    +0.000 OA
ATOM     16  C   UNL     1       5.298  -3.157   0.000  0.00  0.00    +0.000 C 
ATOM     17  N   UNL     1       5.469  -3.964   0.000  0.00  0.00    +0.000 NA
BRANCH  11  18
ATOM     18  C   UNL     1       4.783  -0.736   0.000  0.00  0.00    +0.000 C 
ATOM     19  N   UNL     1       5.396  -0.184   0.000  0.00  0.00    +0.000 NA
ENDBRANCH  11  18
ENDBRANCH   8   9
ENDBRANCH   5   8
BRANCH   2  20
ATOM     20  O   UNL     1       0.996  -3.454   0.000  0.00  0.00    +0.000 OA
BRANCH  20  21
ATOM     21  C   UNL     1       0.383  -2.902   0.000  0.00  0.00    +0.000 C 
ATOM     22  C   UNL     1      -0.402  -3.157   0.000  0.00  0.00    +0.000 C 
ATOM     23  O   UNL     1      -0.574  -3.964   0.000  0.00  0.00    +0.000 OA
ATOM     24  C   UNL     1      -1.015  -2.605   0.000  0.00  0.00    +0.000 C 
ATOM     25  N   UNL     1      -1.800  -2.860   0.000  0.00  0.00    +0.000 NA
ATOM     26  C   UNL     1      -0.844  -1.798   0.000  0.00  0.00    +0.000 C 
ATOM     27  C   UNL     1      -0.059  -1.543   0.000  0.00  0.00    +0.000 C 
ATOM     28  N   UNL     1       0.113  -0.736   0.000  0.00  0.00    +0.000 NA
ATOM     29  C   UNL     1       0.554  -2.095   0.000  0.00  0.00    +0.000 C 
BRANCH  29  30
ATOM     30  O   UNL     1       1.339  -1.840   0.000  0.00  0.00    +0.000 OA
BRANCH  30  31
ATOM     31  C   UNL     1       1.510  -1.033   0.000  0.00  0.00    +0.000 C 
ATOM     32  O   UNL     1       0.897  -0.481   0.000  0.00  0.00    +0.000 OA
ATOM     33  C   UNL     1       1.069   0.326   0.000  0.00  0.00    +0.000 C 
ATOM     34  C   UNL     1       1.853   0.581   0.000  0.00  0.00    +0.000 C 
ATOM     35  O   UNL     1       2.025   1.388   0.000  0.00  0.00    +0.000 OA
ATOM     36  C   UNL     1       2.466   0.029   0.000  0.00  0.00    +0.000 C 
ATOM     37  O   UNL     1       3.251   0.284   0.000  0.00  0.00    +0.000 OA
ATOM     38  C   UNL     1       2.295  -0.778   0.000  0.00  0.00    +0.000 C 
ATOM     39  N   UNL     1       2.908  -1.330   0.000  0.00  0.00    +0.000 NA
BRANCH  33  40
ATOM     40  C   UNL     1       0.456   0.878   0.000  0.00  0.00    +0.000 C 
ATOM     41  O   UNL     1       0.627   1.685   0.000  0.00  0.00    +0.000 OA
ENDBRANCH  33  40
ENDBRANCH  30  31
ENDBRANCH  29  30
ENDBRANCH  20  21
ENDBRANCH   2  20
BRANCH   1  42
ATOM     42  O   UNL     1       2.448  -4.509   0.000  0.00  0.00    +0.000 OA
BRANCH  42  43
ATOM     43  C   UNL     1       1.733  -4.921   0.000  0.00  0.00    +0.000 C 
BRANCH  43  44
ATOM     44  C   UNL     1       1.019  -4.509   0.000  0.00  0.00    +0.000 C 
BRANCH  44  45
ATOM     45  N   UNL     1       0.304  -4.921   0.000  0.00  0.00    +0.000 NA
BRANCH  45  46
ATOM     46  C   UNL     1      -0.410  -4.509   0.000  0.00  0.00    +0.000 C 
BRANCH  46  47
ATOM     47  C   UNL     1      -1.125  -4.921   0.000  0.00  0.00    +0.000 C 
BRANCH  47  49
ATOM     48  N   UNL     1      -2.554  -4.921   0.000  0.00  0.00    +0.000 NA
ATOM     49  C   UNL     1      -1.839  -4.509   0.000  0.00  0.00    +0.000 C 
ENDBRANCH  47  49
ENDBRANCH  46  47
ENDBRANCH  45  46
ENDBRANCH  44  45
ENDBRANCH  43  44
ENDBRANCH  42  43
ENDBRANCH   1  42
TORSDOF 16
