REMARK  Name = 
REMARK  3 active torsions:
REMARK  status: ('A' for Active; 'I' for Inactive)
REMARK    1  A    between atoms: N_6  and  C1*_15
REMARK    2  A    between atoms: C4*_17  and  C5*_18
REMARK    3  A    between atoms: C_25  and  C_27
REMARK                            x       y       z     vdW  Elec       q    Type
REMARK                         _______ _______ _______ _____ _____    ______ ____
ROOT
ATOM      1  N   UNL     1       6.959  -0.357   0.000  0.00  0.00    +0.000 N 
ATOM      2  N   UNL     1       6.959  -1.685   0.000  0.00  0.00    +0.000 NA
ATOM      3  N   UNL     1       5.464  -0.196   0.000  0.00  0.00    +0.000 NA
ATOM      4  N   UNL     1       4.750  -1.433   0.000  0.00  0.00    +0.000 NA
ATOM      5  N   UNL     1       4.035  -0.196   0.000  0.00  0.00    +0.000 N 
ATOM      6  N   UNL     1       5.464  -2.671   0.000  0.00  0.00    +0.000 NA
ATOM      7  N   UNL     1       3.281  -0.531   0.000  0.00  0.00    +0.000 NA
ATOM      8  C   UNL     1       6.179  -0.609   0.000  0.00  0.00    +0.000 A 
ATOM      9  C   UNL     1       7.441  -1.021   0.000  0.00  0.00    +0.000 A 
ATOM     10  C   UNL     1       6.179  -1.433   0.000  0.00  0.00    +0.000 A 
ATOM     11  C   UNL     1       5.464  -1.846   0.000  0.00  0.00    +0.000 A 
ATOM     12  C   UNL     1       4.750  -0.609   0.000  0.00  0.00    +0.000 A 
ATOM     13  C   UNL     1       3.949   0.625   0.000  0.00  0.00    +0.000 A 
ATOM     14  C   UNL     1       3.142   0.796   0.000  0.00  0.00    +0.000 A 
ATOM     15  C   UNL     1       2.729   0.082   0.000  0.00  0.00    +0.000 A 
ENDROOT
BRANCH   1  20
ATOM     16  O4* UNL     1       8.001   0.681   0.000  0.00  0.00    +0.000 OA
ATOM     17  O2* UNL     1       5.907   1.097   0.000  0.00  0.00    +0.000 OA
ATOM     18  O3* UNL     1       6.964   2.547   0.000  0.00  0.00    +0.000 OA
ATOM     19  C2* UNL     1       6.732   1.095   0.000  0.00  0.00    +0.000 C 
ATOM     20  C1* UNL     1       7.215   0.427   0.000  0.00  0.00    +0.000 C 
ATOM     21  C3* UNL     1       7.218   1.762   0.000  0.00  0.00    +0.000 C 
ATOM     22  C4* UNL     1       8.002   1.506   0.000  0.00  0.00    +0.000 C 
BRANCH  22  24
ATOM     23  O5* UNL     1       9.423   1.653   0.000  0.00  0.00    +0.000 OA
ATOM     24  C5* UNL     1       8.670   1.990   0.000  0.00  0.00    +0.000 C 
ENDBRANCH  22  24
ENDBRANCH   1  20
BRANCH  14  27
ATOM     25  O   UNL     1       3.291   2.217   0.000  0.00  0.00    +0.000 OA
ATOM     26  N   UNL     1       1.986   1.636   0.000  0.00  0.00    +0.000 NA
ATOM     27  C   UNL     1       2.806   1.550   0.000  0.00  0.00    +0.000 C 
ATOM     28  C   UNL     1       1.650   2.390   0.000  0.00  0.00    +0.000 C 
ENDBRANCH  14  27
TORSDOF 3
