REMARK  Name = 
REMARK  8 active torsions:
REMARK  status: ('A' for Active; 'I' for Inactive)
REMARK    1  A    between atoms: C_11  and  C_18
REMARK    2  A    between atoms: C_12  and  C_21
REMARK    3  A    between atoms: C_13  and  C_18
REMARK    4  A    between atoms: C_13  and  C_19
REMARK    5  A    between atoms: C_14  and  C_19
REMARK    6  A    between atoms: C_14  and  C_23
REMARK    7  A    between atoms: C_15  and  C_24
REMARK    8  A    between atoms: C_16  and  C_25
REMARK                            x       y       z     vdW  Elec       q    Type
REMARK                         _______ _______ _______ _____ _____    ______ ____
ROOT
ATOM      1  C   UNL     1      -1.429   7.425   0.000  0.00  0.00    +0.000 A 
ATOM      2  C   UNL     1      -2.143   7.013   0.000  0.00  0.00    +0.000 A 
ATOM      3  C   UNL     1      -0.715   7.013   0.000  0.00  0.00    +0.000 A 
ATOM      4  C   UNL     1      -2.143   6.188   0.000  0.00  0.00    +0.000 A 
ATOM      5  C   UNL     1      -0.715   6.188   0.000  0.00  0.00    +0.000 A 
ATOM      6  C   UNL     1       0.000   4.950   0.000  0.00  0.00    +0.000 A 
ATOM      7  C   UNL     1      -1.429   5.775   0.000  0.00  0.00    +0.000 A 
ATOM      8  C   UNL     1       0.000   5.775   0.000  0.00  0.00    +0.000 A 
ATOM      9  C   UNL     1      -0.715   4.537   0.000  0.00  0.00    +0.000 A 
ATOM     10  N   UNL     1      -1.429   4.950   0.000  0.00  0.00    +0.000 NA
ENDROOT
BRANCH   8  15
ATOM     11  C   UNL     1       1.429   5.775   0.000  0.00  0.00    +0.000 A 
ATOM     12  C   UNL     1       0.715   7.013   0.000  0.00  0.00    +0.000 A 
ATOM     13  C   UNL     1       2.143   6.188   0.000  0.00  0.00    +0.000 A 
ATOM     14  C   UNL     1       1.429   7.425   0.000  0.00  0.00    +0.000 A 
ATOM     15  C   UNL     1       0.715   6.188   0.000  0.00  0.00    +0.000 A 
ATOM     16  C   UNL     1       2.143   7.013   0.000  0.00  0.00    +0.000 A 
ATOM     17  F   UNL     1       2.858   7.425   0.000  0.00  0.00    +0.000 F 
ENDBRANCH   8  15
BRANCH   9  20
ATOM     18  C   UNL     1      -1.127   2.998   0.000  0.00  0.00    +0.000 C 
ATOM     19  C   UNL     1      -0.302   2.998   0.000  0.00  0.00    +0.000 C 
ATOM     20  C   UNL     1      -0.715   3.712   0.000  0.00  0.00    +0.000 C 
ENDBRANCH   9  20
BRANCH   6  22
ATOM     21  C   UNL     1       0.715   3.712   0.000  0.00  0.00    +0.000 C 
ATOM     22  C   UNL     1       0.715   4.537   0.000  0.00  0.00    +0.000 C 
BRANCH  21  23
ATOM     23  C   UNL     1       1.429   3.300   0.000  0.00  0.00    +0.000 C 
ATOM     24  O   UNL     1       1.429   2.475   0.000  0.00  0.00    +0.000 OA
BRANCH  23  25
ATOM     25  C   UNL     1       2.143   3.712   0.000  0.00  0.00    +0.000 C 
BRANCH  25  26
ATOM     26  C   UNL     1       2.858   3.300   0.000  0.00  0.00    +0.000 C 
ATOM     27  O   UNL     1       2.858   2.475   0.000  0.00  0.00    +0.000 OA
BRANCH  26  28
ATOM     28  C   UNL     1       3.572   3.712   0.000  0.00  0.00    +0.000 C 
BRANCH  28  29
ATOM     29  C   UNL     1       4.287   3.300   0.000  0.00  0.00    +0.000 C 
ATOM     30  O   UNL     1       5.001   3.712   0.000  0.00  0.00    +0.000 OA
ATOM     31  O   UNL     1       4.287   2.475   0.000  0.00  0.00    +0.000 OA
ENDBRANCH  28  29
ENDBRANCH  26  28
ENDBRANCH  25  26
ENDBRANCH  23  25
ENDBRANCH  21  23
ENDBRANCH   6  22
TORSDOF 8
