REMARK  Name = 
REMARK  34 active torsions:
REMARK  status: ('A' for Active; 'I' for Inactive)
REMARK    1  A    between atoms: C_11  and  C_17
REMARK    2  A    between atoms: C_11  and  C_19
REMARK    3  A    between atoms: C_12  and  C_18
REMARK    4  A    between atoms: C_12  and  C_20
REMARK    5  A    between atoms: C_13  and  C_21
REMARK    6  A    between atoms: C_13  and  C_23
REMARK    7  A    between atoms: C_14  and  C_22
REMARK    8  A    between atoms: C_14  and  C_24
REMARK    9  A    between atoms: C_15  and  C_25
REMARK   10  A    between atoms: C_15  and  C_27
REMARK   11  A    between atoms: C_16  and  C_26
REMARK   12  A    between atoms: C_16  and  C_28
REMARK   13  A    between atoms: C_17  and  C_35
REMARK   14  A    between atoms: C_18  and  C_36
REMARK   15  A    between atoms: C_19  and  C_37
REMARK   16  A    between atoms: C_20  and  C_38
REMARK   17  A    between atoms: C_21  and  C_37
REMARK   18  A    between atoms: C_22  and  C_38
REMARK   19  A    between atoms: C_23  and  C_39
REMARK   20  A    between atoms: C_24  and  C_40
REMARK   21  A    between atoms: C_25  and  C_39
REMARK   22  A    between atoms: C_26  and  C_40
REMARK   23  A    between atoms: C_27  and  C_41
REMARK   24  A    between atoms: C_28  and  C_42
REMARK   25  A    between atoms: C_29  and  C_31
REMARK   26  A    between atoms: C_29  and  C_41
REMARK   27  A    between atoms: C_30  and  C_32
REMARK   28  A    between atoms: C_30  and  C_42
REMARK   29  A    between atoms: C_31  and  O_45
REMARK   30  A    between atoms: C_32  and  O_46
REMARK   31  A    between atoms: C_33  and  C_43
REMARK   32  A    between atoms: C_34  and  C_43
REMARK   33  A    between atoms: C_34  and  O_45
REMARK   34  A    between atoms: C_43  and  O_46
REMARK                            x       y       z     vdW  Elec       q    Type
REMARK                         _______ _______ _______ _____ _____    ______ ____
ROOT
ATOM      1  C   UNL     1      22.157  -5.716   0.000  0.00  0.00    +0.000 C 
ENDROOT
BRANCH   1   2
ATOM      2  C   UNL     1      22.157  -6.541   0.000  0.00  0.00    +0.000 C 
ATOM      3  O   UNL     1      22.871  -6.953   0.000  0.00  0.00    +0.000 OA
ENDBRANCH   1   2
BRANCH   1   4
ATOM      4  C   UNL     1      21.442  -5.303   0.000  0.00  0.00    +0.000 C 
BRANCH   4   5
ATOM      5  O   UNL     1      20.728  -5.716   0.000  0.00  0.00    +0.000 OA
BRANCH   5   6
ATOM      6  C   UNL     1      20.013  -5.303   0.000  0.00  0.00    +0.000 C 
BRANCH   6   7
ATOM      7  C   UNL     1      19.299  -5.716   0.000  0.00  0.00    +0.000 C 
BRANCH   7   9
ATOM      8  C   UNL     1      18.584  -4.478   0.000  0.00  0.00    +0.000 C 
ATOM      9  C   UNL     1      18.584  -5.303   0.000  0.00  0.00    +0.000 C 
BRANCH   9  10
ATOM     10  C   UNL     1      17.870  -5.716   0.000  0.00  0.00    +0.000 C 
BRANCH  10  11
ATOM     11  C   UNL     1      17.155  -5.303   0.000  0.00  0.00    +0.000 C 
BRANCH  11  12
ATOM     12  C   UNL     1      16.441  -5.716   0.000  0.00  0.00    +0.000 C 
BRANCH  12  14
ATOM     13  C   UNL     1      15.726  -4.478   0.000  0.00  0.00    +0.000 C 
ATOM     14  C   UNL     1      15.726  -5.303   0.000  0.00  0.00    +0.000 C 
BRANCH  14  15
ATOM     15  C   UNL     1      15.012  -5.716   0.000  0.00  0.00    +0.000 C 
BRANCH  15  16
ATOM     16  C   UNL     1      14.297  -5.303   0.000  0.00  0.00    +0.000 C 
BRANCH  16  17
ATOM     17  C   UNL     1      13.583  -5.716   0.000  0.00  0.00    +0.000 C 
BRANCH  17  19
ATOM     18  C   UNL     1      12.868  -4.478   0.000  0.00  0.00    +0.000 C 
ATOM     19  C   UNL     1      12.868  -5.303   0.000  0.00  0.00    +0.000 C 
BRANCH  19  20
ATOM     20  C   UNL     1      12.154  -5.716   0.000  0.00  0.00    +0.000 C 
BRANCH  20  21
ATOM     21  C   UNL     1      11.440  -5.303   0.000  0.00  0.00    +0.000 C 
BRANCH  21  22
ATOM     22  C   UNL     1      10.725  -5.716   0.000  0.00  0.00    +0.000 C 
BRANCH  22  25
ATOM     23  C   UNL     1       9.296  -5.716   0.000  0.00  0.00    +0.000 C 
ATOM     24  C   UNL     1      10.011  -4.478   0.000  0.00  0.00    +0.000 C 
ATOM     25  C   UNL     1      10.011  -5.303   0.000  0.00  0.00    +0.000 C 
ENDBRANCH  22  25
ENDBRANCH  21  22
ENDBRANCH  20  21
ENDBRANCH  19  20
ENDBRANCH  17  19
ENDBRANCH  16  17
ENDBRANCH  15  16
ENDBRANCH  14  15
ENDBRANCH  12  14
ENDBRANCH  11  12
ENDBRANCH  10  11
ENDBRANCH   9  10
ENDBRANCH   7   9
ENDBRANCH   6   7
ENDBRANCH   5   6
ENDBRANCH   4   5
ENDBRANCH   1   4
BRANCH   1  26
ATOM     26  O   UNL     1      22.871  -5.303   0.000  0.00  0.00    +0.000 OA
BRANCH  26  27
ATOM     27  C   UNL     1      23.585  -5.716   0.000  0.00  0.00    +0.000 C 
BRANCH  27  28
ATOM     28  C   UNL     1      24.300  -5.303   0.000  0.00  0.00    +0.000 C 
BRANCH  28  30
ATOM     29  C   UNL     1      25.014  -6.541   0.000  0.00  0.00    +0.000 C 
ATOM     30  C   UNL     1      25.014  -5.716   0.000  0.00  0.00    +0.000 C 
BRANCH  30  31
ATOM     31  C   UNL     1      25.729  -5.303   0.000  0.00  0.00    +0.000 C 
BRANCH  31  32
ATOM     32  C   UNL     1      26.443  -5.716   0.000  0.00  0.00    +0.000 C 
BRANCH  32  33
ATOM     33  C   UNL     1      27.158  -5.303   0.000  0.00  0.00    +0.000 C 
BRANCH  33  35
ATOM     34  C   UNL     1      27.872  -6.541   0.000  0.00  0.00    +0.000 C 
ATOM     35  C   UNL     1      27.872  -5.716   0.000  0.00  0.00    +0.000 C 
BRANCH  35  36
ATOM     36  C   UNL     1      28.587  -5.303   0.000  0.00  0.00    +0.000 C 
BRANCH  36  37
ATOM     37  C   UNL     1      29.301  -5.716   0.000  0.00  0.00    +0.000 C 
BRANCH  37  38
ATOM     38  C   UNL     1      30.016  -5.303   0.000  0.00  0.00    +0.000 C 
BRANCH  38  40
ATOM     39  C   UNL     1      30.730  -6.541   0.000  0.00  0.00    +0.000 C 
ATOM     40  C   UNL     1      30.730  -5.716   0.000  0.00  0.00    +0.000 C 
BRANCH  40  41
ATOM     41  C   UNL     1      31.445  -5.303   0.000  0.00  0.00    +0.000 C 
BRANCH  41  42
ATOM     42  C   UNL     1      32.159  -5.716   0.000  0.00  0.00    +0.000 C 
BRANCH  42  43
ATOM     43  C   UNL     1      32.874  -5.303   0.000  0.00  0.00    +0.000 C 
BRANCH  43  46
ATOM     44  C   UNL     1      34.303  -5.303   0.000  0.00  0.00    +0.000 C 
ATOM     45  C   UNL     1      33.588  -6.541   0.000  0.00  0.00    +0.000 C 
ATOM     46  C   UNL     1      33.588  -5.716   0.000  0.00  0.00    +0.000 C 
ENDBRANCH  43  46
ENDBRANCH  42  43
ENDBRANCH  41  42
ENDBRANCH  40  41
ENDBRANCH  38  40
ENDBRANCH  37  38
ENDBRANCH  36  37
ENDBRANCH  35  36
ENDBRANCH  33  35
ENDBRANCH  32  33
ENDBRANCH  31  32
ENDBRANCH  30  31
ENDBRANCH  28  30
ENDBRANCH  27  28
ENDBRANCH  26  27
ENDBRANCH   1  26
TORSDOF 34
