REMARK  Name = 
REMARK  2 active torsions:
REMARK  status: ('A' for Active; 'I' for Inactive)
REMARK    1  A    between atoms: C_9  and  C_10
REMARK    2  A    between atoms: C_10  and  C_12
REMARK                            x       y       z     vdW  Elec       q    Type
REMARK                         _______ _______ _______ _____ _____    ______ ____
ROOT
ATOM      1  O   UNL     1       0.000   0.000   0.000  0.00  0.00    +0.000 OA
ATOM      2  O   UNL     1      -0.897  -1.937   0.000  0.00  0.00    +0.000 OA
ATOM      3  O   UNL     1       0.897  -1.937   0.000  0.00  0.00    +0.000 OA
ATOM      4  C   UNL     1       0.667  -0.485   0.000  0.00  0.00    +0.000 C 
ATOM      5  O   UNL     1       1.452  -0.230   0.000  0.00  0.00    +0.000 OA
ATOM      6  C   UNL     1       0.412  -1.270   0.000  0.00  0.00    +0.000 C 
ATOM      7  C   UNL     1      -0.412  -1.270   0.000  0.00  0.00    +0.000 C 
ATOM      8  C   UNL     1      -0.667  -0.485   0.000  0.00  0.00    +0.000 C 
ENDROOT
BRANCH   8   9
ATOM      9  C   UNL     1      -1.382  -0.072   0.000  0.00  0.00    +0.000 C 
ATOM     10  O   UNL     1      -1.382   0.753   0.000  0.00  0.00    +0.000 OA
BRANCH   9  12
ATOM     11  O   UNL     1      -2.811  -0.072   0.000  0.00  0.00    +0.000 OA
ATOM     12  C   UNL     1      -2.096  -0.485   0.000  0.00  0.00    +0.000 C 
ENDBRANCH   9  12
ENDBRANCH   8   9
TORSDOF 2
