REMARK  Name = 
REMARK  4 active torsions:
REMARK  status: ('A' for Active; 'I' for Inactive)
REMARK    1  A    between atoms: S_2  and  C_13
REMARK    2  A    between atoms: O_4  and  C_24
REMARK    3  A    between atoms: N_7  and  C_11
REMARK    4  A    between atoms: C_10  and  C_12
REMARK                            x       y       z     vdW  Elec       q    Type
REMARK                         _______ _______ _______ _____ _____    ______ ____
ROOT
ATOM      1 CL   UNL     1       5.172  -3.159   0.000  0.00  0.00    +0.000 Cl
ATOM      2  N   UNL     1       6.069  -1.222   0.000  0.00  0.00    +0.000 N 
ATOM      3  N   UNL     1       6.482  -2.491   0.000  0.00  0.00    +0.000 NA
ATOM      4  C   UNL     1       5.402  -1.707   0.000  0.00  0.00    +0.000 A 
ATOM      5  C   UNL     1       6.737  -1.707   0.000  0.00  0.00    +0.000 A 
ATOM      6  C   UNL     1       5.657  -2.491   0.000  0.00  0.00    +0.000 A 
ENDROOT
BRANCH   4   8
ATOM      7  F   UNL     1       3.489   0.417   0.000  0.00  0.00    +0.000 F 
ATOM      8  C   UNL     1       4.617  -1.452   0.000  0.00  0.00    +0.000 A 
ATOM      9  C   UNL     1       4.446  -0.645   0.000  0.00  0.00    +0.000 A 
ATOM     10  C   UNL     1       4.004  -2.004   0.000  0.00  0.00    +0.000 A 
ATOM     11  C   UNL     1       3.661  -0.390   0.000  0.00  0.00    +0.000 A 
ATOM     12  C   UNL     1       3.219  -1.749   0.000  0.00  0.00    +0.000 A 
ATOM     13  C   UNL     1       3.048  -0.942   0.000  0.00  0.00    +0.000 A 
BRANCH  13  14
ATOM     14  O   UNL     1       2.263  -0.687   0.000  0.00  0.00    +0.000 OA
ATOM     15  C   UNL     1       1.650  -1.239   0.000  0.00  0.00    +0.000 C 
ENDBRANCH  13  14
ENDBRANCH   4   8
BRANCH   2  16
ATOM     16  C   UNL     1       6.069  -0.397   0.000  0.00  0.00    +0.000 A 
ATOM     17  C   UNL     1       6.069   1.253   0.000  0.00  0.00    +0.000 A 
ATOM     18  C   UNL     1       5.355   0.016   0.000  0.00  0.00    +0.000 A 
ATOM     19  C   UNL     1       6.784   0.016   0.000  0.00  0.00    +0.000 A 
ATOM     20  C   UNL     1       5.355   0.841   0.000  0.00  0.00    +0.000 A 
ATOM     21  C   UNL     1       6.784   0.841   0.000  0.00  0.00    +0.000 A 
BRANCH  17  22
ATOM     22  S   UNL     1       6.069   2.078   0.000  0.00  0.00    +0.000 S 
ATOM     23  O   UNL     1       5.244   2.078   0.000  0.00  0.00    +0.000 OA
ATOM     24  O   UNL     1       6.894   2.078   0.000  0.00  0.00    +0.000 OA
ATOM     25  N   UNL     1       6.069   2.903   0.000  0.00  0.00    +0.000 NA
ENDBRANCH  17  22
ENDBRANCH   2  16
TORSDOF 4
