REMARK  Name = 
REMARK  5 active torsions:
REMARK  status: ('A' for Active; 'I' for Inactive)
REMARK    1  A    between atoms: C_16  and  C_19
REMARK    2  A    between atoms: C_16  and  N_33
REMARK    3  A    between atoms: C_21  and  C_27
REMARK    4  A    between atoms: C_23  and  O_34
REMARK    5  A    between atoms: C_24  and  O_34
REMARK                            x       y       z     vdW  Elec       q    Type
REMARK                         _______ _______ _______ _____ _____    ______ ____
ROOT
ATOM      1  C   UNL     1      -2.849   4.063   0.000  0.00  0.00    +0.000 C 
ATOM      2  C   UNL     1       0.674   4.476   0.000  0.00  0.00    +0.000 A 
ATOM      3  C   UNL     1      -0.040   4.888   0.000  0.00  0.00    +0.000 A 
ATOM      4  C   UNL     1      -0.040   3.238   0.000  0.00  0.00    +0.000 A 
ATOM      5  C   UNL     1      -2.024   4.063   0.000  0.00  0.00    +0.000 A 
ATOM      6  C   UNL     1       0.674   3.651   0.000  0.00  0.00    +0.000 A 
ATOM      7  C   UNL     1      -0.754   4.476   0.000  0.00  0.00    +0.000 A 
ATOM      8  C   UNL     1      -0.754   3.651   0.000  0.00  0.00    +0.000 A 
ATOM      9  N   UNL     1      -1.539   4.731   0.000  0.00  0.00    +0.000 NA
ATOM     10  N   UNL     1      -1.539   3.396   0.000  0.00  0.00    +0.000 N 
ENDROOT
BRANCH  10  11
ATOM     11  C   UNL     1      -1.794   2.611   0.000  0.00  0.00    +0.000 C 
BRANCH  11  18
ATOM     12  C   UNL     1      -3.153   3.053   0.000  0.00  0.00    +0.000 A 
ATOM     13  C   UNL     1      -3.960   2.881   0.000  0.00  0.00    +0.000 A 
ATOM     14  C   UNL     1      -5.022   1.925   0.000  0.00  0.00    +0.000 A 
ATOM     15  C   UNL     1      -5.277   1.141   0.000  0.00  0.00    +0.000 A 
ATOM     16  C   UNL     1      -2.856   1.655   0.000  0.00  0.00    +0.000 A 
ATOM     17  C   UNL     1      -3.918   0.699   0.000  0.00  0.00    +0.000 A 
ATOM     18  C   UNL     1      -2.601   2.440   0.000  0.00  0.00    +0.000 A 
ATOM     19  C   UNL     1      -4.215   2.097   0.000  0.00  0.00    +0.000 A 
ATOM     20  C   UNL     1      -4.725   0.527   0.000  0.00  0.00    +0.000 A 
ATOM     21  C   UNL     1      -3.663   1.484   0.000  0.00  0.00    +0.000 A 
BRANCH  20  22
ATOM     22  C   UNL     1      -4.980  -0.257   0.000  0.00  0.00    +0.000 C 
ATOM     23  N   UNL     1      -4.428  -0.870   0.000  0.00  0.00    +0.000 NA
ATOM     24  N   UNL     1      -5.787  -0.429   0.000  0.00  0.00    +0.000 NA
ENDBRANCH  20  22
ENDBRANCH  11  18
ENDBRANCH  10  11
BRANCH   6  25
ATOM     25  O   UNL     1       1.389   3.238   0.000  0.00  0.00    +0.000 OA
BRANCH  25  32
ATOM     26  C   UNL     1       4.247   5.713   0.000  0.00  0.00    +0.000 C 
ATOM     27  C   UNL     1       2.818   3.238   0.000  0.00  0.00    +0.000 C 
ATOM     28  C   UNL     1       2.103   4.476   0.000  0.00  0.00    +0.000 C 
ATOM     29  C   UNL     1       3.532   3.651   0.000  0.00  0.00    +0.000 C 
ATOM     30  C   UNL     1       2.818   4.888   0.000  0.00  0.00    +0.000 C 
ATOM     31  C   UNL     1       4.247   4.888   0.000  0.00  0.00    +0.000 C 
ATOM     32  C   UNL     1       2.103   3.651   0.000  0.00  0.00    +0.000 C 
ATOM     33  N   UNL     1       4.961   4.476   0.000  0.00  0.00    +0.000 NA
ATOM     34  N   UNL     1       3.532   4.476   0.000  0.00  0.00    +0.000 N 
ATOM     35  H   UNL     1       4.961   3.651   0.000  0.00  0.00    +0.000 HD
ENDBRANCH  25  32
ENDBRANCH   6  25
TORSDOF 5
