REMARK  Name = 
REMARK  5 active torsions:
REMARK  status: ('A' for Active; 'I' for Inactive)
REMARK    1  A    between atoms: C_6  and  C_10
REMARK    2  A    between atoms: N_13  and  C_15
REMARK    3  A    between atoms: C_15  and  C_16
REMARK    4  A    between atoms: C_15  and  C_19
REMARK    5  A    between atoms: C_16  and  C_17
REMARK                            x       y       z     vdW  Elec       q    Type
REMARK                         _______ _______ _______ _____ _____    ______ ____
ROOT
ATOM      1  C   UNL     1       1.356   0.952   0.000  0.00  0.00    +0.000 A 
ATOM      2  C   UNL     1       0.688   1.437   0.000  0.00  0.00    +0.000 A 
ATOM      3  N   UNL     1       0.943   2.222   0.000  0.00  0.00    +0.000 NA
ATOM      4  N   UNL     1       1.768   2.222   0.000  0.00  0.00    +0.000 N 
ATOM      5  C   UNL     1       2.023   1.437   0.000  0.00  0.00    +0.000 A 
ENDROOT
BRANCH   1  11
ATOM      6  C   UNL     1      -0.143  -0.030   0.000  0.00  0.00    +0.000 A 
ATOM      7  C   UNL     1      -0.628  -0.698   0.000  0.00  0.00    +0.000 A 
ATOM      8  N   UNL     1      -0.143  -1.365   0.000  0.00  0.00    +0.000 NA
ATOM      9  C   UNL     1       0.641  -1.110   0.000  0.00  0.00    +0.000 A 
ATOM     10  C   UNL     1       0.641  -0.285   0.000  0.00  0.00    +0.000 A 
ATOM     11  C   UNL     1       1.356   0.127   0.000  0.00  0.00    +0.000 A 
ATOM     12  N   UNL     1       2.070  -0.285   0.000  0.00  0.00    +0.000 NA
ATOM     13  C   UNL     1       2.070  -1.110   0.000  0.00  0.00    +0.000 A 
ATOM     14  N   UNL     1       1.356  -1.523   0.000  0.00  0.00    +0.000 NA
ENDBRANCH   1  11
BRANCH   4  15
ATOM     15  C   UNL     1       2.253   2.889   0.000  0.00  0.00    +0.000 C 
BRANCH  15  16
ATOM     16  C   UNL     1       1.917   3.643   0.000  0.00  0.00    +0.000 C 
ATOM     17  C   UNL     1       1.111   3.814   0.000  0.00  0.00    +0.000 C 
ATOM     18  C   UNL     1       1.024   4.635   0.000  0.00  0.00    +0.000 C 
ATOM     19  C   UNL     1       1.778   4.970   0.000  0.00  0.00    +0.000 C 
ATOM     20  C   UNL     1       2.330   4.357   0.000  0.00  0.00    +0.000 C 
ENDBRANCH  15  16
BRANCH  15  21
ATOM     21  C   UNL     1       3.074   2.803   0.000  0.00  0.00    +0.000 C 
BRANCH  21  22
ATOM     22  C   UNL     1       3.558   3.470   0.000  0.00  0.00    +0.000 C 
ATOM     23  N   UNL     1       4.043   4.138   0.000  0.00  0.00    +0.000 NA
ENDBRANCH  21  22
ENDBRANCH  15  21
ENDBRANCH   4  15
TORSDOF 5
