REMARK  Name = 
REMARK  11 active torsions:
REMARK  status: ('A' for Active; 'I' for Inactive)
REMARK    1  A    between atoms: C_1  and  C_2
REMARK    2  A    between atoms: C_1  and  C_21
REMARK    3  A    between atoms: C_2  and  C_3
REMARK    4  A    between atoms: C_3  and  C_4
REMARK    5  A    between atoms: C_4  and  C_5
REMARK    6  A    between atoms: C_5  and  N_6
REMARK    7  A    between atoms: N_6  and  C_7
REMARK    8  A    between atoms: C_21  and  C_22
REMARK    9  A    between atoms: C_22  and  C_23
REMARK   10  A    between atoms: C_23  and  N_24
REMARK   11  A    between atoms: N_24  and  C_25
REMARK                            x       y       z     vdW  Elec       q    Type
REMARK                         _______ _______ _______ _____ _____    ______ ____
ROOT
ATOM      1  C   UNL     1       5.001  -0.412   0.000  0.00  0.00    +0.000 C 
ENDROOT
BRANCH   1   2
ATOM      2  C   UNL     1       4.287   0.000   0.000  0.00  0.00    +0.000 C 
BRANCH   2   3
ATOM      3  C   UNL     1       3.572  -0.412   0.000  0.00  0.00    +0.000 C 
BRANCH   3   4
ATOM      4  N   UNL     1       2.858   0.000   0.000  0.00  0.00    +0.000 NA
BRANCH   4   5
ATOM      5  C   UNL     1       2.143  -0.412   0.000  0.00  0.00    +0.000 A 
ATOM      6  C   UNL     1       2.143  -1.238   0.000  0.00  0.00    +0.000 A 
ATOM      7  C   UNL     1       2.858  -1.650   0.000  0.00  0.00    +0.000 C 
ATOM      8  C   UNL     1       2.858  -2.475   0.000  0.00  0.00    +0.000 C 
ATOM      9  C   UNL     1       2.143  -2.888   0.000  0.00  0.00    +0.000 C 
ATOM     10  C   UNL     1       1.429  -2.475   0.000  0.00  0.00    +0.000 C 
ATOM     11  C   UNL     1       1.429  -1.650   0.000  0.00  0.00    +0.000 A 
ATOM     12  N   UNL     1       0.715  -1.238   0.000  0.00  0.00    +0.000 NA
ATOM     13  C   UNL     1       0.715  -0.412   0.000  0.00  0.00    +0.000 A 
ATOM     14  C   UNL     1       0.000   0.000   0.000  0.00  0.00    +0.000 A 
ATOM     15  C   UNL     1       0.000   0.825   0.000  0.00  0.00    +0.000 A 
ATOM     16  C   UNL     1       0.715   1.238   0.000  0.00  0.00    +0.000 A 
ATOM     17  C   UNL     1       1.429   0.825   0.000  0.00  0.00    +0.000 A 
ATOM     18  C   UNL     1       1.429   0.000   0.000  0.00  0.00    +0.000 A 
ENDBRANCH   4   5
ENDBRANCH   3   4
ENDBRANCH   2   3
ENDBRANCH   1   2
BRANCH   1  19
ATOM     19  C   UNL     1       5.716   0.000   0.000  0.00  0.00    +0.000 C 
BRANCH  19  20
ATOM     20  C   UNL     1       6.430  -0.412   0.000  0.00  0.00    +0.000 C 
BRANCH  20  21
ATOM     21  C   UNL     1       7.145   0.000   0.000  0.00  0.00    +0.000 C 
BRANCH  21  22
ATOM     22  C   UNL     1       7.859  -0.412   0.000  0.00  0.00    +0.000 C 
BRANCH  22  23
ATOM     23  C   UNL     1       8.574   0.000   0.000  0.00  0.00    +0.000 C 
BRANCH  23  24
ATOM     24  N   UNL     1       9.288  -0.412   0.000  0.00  0.00    +0.000 NA
BRANCH  24  25
ATOM     25  C   UNL     1      10.003   0.000   0.000  0.00  0.00    +0.000 A 
ATOM     26  C   UNL     1      10.003   0.825   0.000  0.00  0.00    +0.000 A 
ATOM     27  C   UNL     1      10.717   1.238   0.000  0.00  0.00    +0.000 A 
ATOM     28  N   UNL     1      11.431   0.825   0.000  0.00  0.00    +0.000 NA
ATOM     29  C   UNL     1      11.431   0.000   0.000  0.00  0.00    +0.000 A 
ATOM     30  C   UNL     1      12.146  -0.412   0.000  0.00  0.00    +0.000 A 
ATOM     31  C   UNL     1      12.146  -1.238   0.000  0.00  0.00    +0.000 A 
ATOM     32  C   UNL     1      11.431  -1.650   0.000  0.00  0.00    +0.000 A 
ATOM     33  C   UNL     1      10.717  -1.238   0.000  0.00  0.00    +0.000 A 
ATOM     34  C   UNL     1      10.717  -0.412   0.000  0.00  0.00    +0.000 A 
ENDBRANCH  24  25
ENDBRANCH  23  24
ENDBRANCH  22  23
ENDBRANCH  21  22
ENDBRANCH  20  21
ENDBRANCH  19  20
ENDBRANCH   1  19
TORSDOF 11
