REMARK  Name = 
REMARK  1 active torsions:
REMARK  status: ('A' for Active; 'I' for Inactive)
REMARK    1  A    between atoms: C_6  and  N_10
REMARK                            x       y       z     vdW  Elec       q    Type
REMARK                         _______ _______ _______ _____ _____    ______ ____
ROOT
ATOM      1  C   UNL     1       1.356   0.698   0.000  0.00  0.00    +0.000 A 
ATOM      2  C   UNL     1       2.070   1.110   0.000  0.00  0.00    +0.000 A 
ATOM      3  C   UNL     1       1.356   2.348   0.000  0.00  0.00    +0.000 A 
ATOM      4  C   UNL     1      -0.143   0.856   0.000  0.00  0.00    +0.000 A 
ATOM      5  C   UNL     1       0.641   1.110   0.000  0.00  0.00    +0.000 A 
ATOM      6  C   UNL     1       2.070   1.935   0.000  0.00  0.00    +0.000 A 
ATOM      7  C   UNL     1       0.641   1.935   0.000  0.00  0.00    +0.000 A 
ATOM      8  N   UNL     1      -0.628   1.523   0.000  0.00  0.00    +0.000 NA
ATOM      9  N   UNL     1      -0.143   2.190   0.000  0.00  0.00    +0.000 NA
ENDROOT
BRANCH   6  10
ATOM     10  N   UNL     1       2.784   2.348   0.000  0.00  0.00    +0.000 N 
ATOM     11  O   UNL     1       2.784   3.173   0.000  0.00  0.00    +0.000 OA
ATOM     12  O   UNL     1       3.499   1.935   0.000  0.00  0.00    +0.000 OA
ENDBRANCH   6  10
TORSDOF 1
