REMARK  Name = 
REMARK  10 active torsions:
REMARK  status: ('A' for Active; 'I' for Inactive)
REMARK    1  A    between atoms: C_2  and  CA_5
REMARK    2  A    between atoms: CA_3  and  C_6
REMARK    3  A    between atoms: N_4  and  CA_5
REMARK    4  A    between atoms: N_4  and  C_8
REMARK    5  A    between atoms: C_7  and  C_8
REMARK    6  A    between atoms: C_7  and  O_15
REMARK    7  A    between atoms: C_8  and  C_12
REMARK    8  A    between atoms: C_12  and  C_16
REMARK    9  A    between atoms: O_15  and  C_21
REMARK   10  A    between atoms: C_16  and  C_18
REMARK                            x       y       z     vdW  Elec       q    Type
REMARK                         _______ _______ _______ _____ _____    ______ ____
ROOT
ATOM      1  C   UNK A   0       6.330  -4.812   0.000  0.00  0.00    +0.000 C 
ENDROOT
BRANCH   1   2
ATOM      2  C   UNK A   0       6.322  -3.989   0.000  0.00  0.00    +0.000 C 
ATOM      3  O   UNK A   0       7.025  -3.562   0.000  0.00  0.00    +0.000 OA
BRANCH   2   4
ATOM      4  O   UNK A   0       5.601  -3.588   0.000  0.00  0.00    +0.000 OA
BRANCH   4   5
ATOM      5  C   UNK A   0       5.588  -2.762   0.000  0.00  0.00    +0.000 C 
ATOM      6  C   UNK A   0       4.867  -2.361   0.000  0.00  0.00    +0.000 C 
ENDBRANCH   4   5
ENDBRANCH   2   4
ENDBRANCH   1   2
BRANCH   1   7
ATOM      7  C   UNK A   0       5.617  -5.226   0.000  0.00  0.00    +0.000 C 
BRANCH   7   8
ATOM      8  C   UNK A   0       4.904  -4.821   0.000  0.00  0.00    +0.000 C 
BRANCH   8   9
ATOM      9  C   UNK A   0       4.190  -5.236   0.000  0.00  0.00    +0.000 A 
ATOM     10  C   UNK A   0       3.474  -4.825   0.000  0.00  0.00    +0.000 A 
ATOM     11  C   UNK A   0       4.190  -6.056   0.000  0.00  0.00    +0.000 A 
ATOM     12  C   UNK A   0       2.761  -5.240   0.000  0.00  0.00    +0.000 A 
ATOM     13  C   UNK A   0       3.477  -6.471   0.000  0.00  0.00    +0.000 A 
ATOM     14  C   UNK A   0       2.764  -6.065   0.000  0.00  0.00    +0.000 A 
ENDBRANCH   8   9
ENDBRANCH   7   8
ENDBRANCH   1   7
BRANCH   1  15
ATOM     15  N   ALA A   1       7.038  -5.220   0.000  0.00  0.00    +0.000 NA
BRANCH  15  16
ATOM     16  CA  ALA A   1       7.751  -4.805   0.000  0.00  0.00    +0.000 C 
ATOM     17  CB  ALA A   1       7.751  -3.985   0.000  0.00  0.00    +0.000 C 
BRANCH  16  19
ATOM     18  N   ALA A   1       9.181  -4.801   0.000  0.00  0.00    +0.000 N 
ATOM     19  C   ALA A   1       8.467  -5.216   0.000  0.00  0.00    +0.000 C 
ATOM     20  CA  ALA A   1       9.934  -5.133   0.000  0.00  0.00    +0.000 C 
ATOM     21  O   ALA A   1       8.467  -6.037   0.000  0.00  0.00    +0.000 OA
ATOM     22  CD  ALA A   1       9.262  -3.978   0.000  0.00  0.00    +0.000 C 
ATOM     23  CB  ALA A   1      10.482  -4.522   0.000  0.00  0.00    +0.000 C 
ATOM     24  CG  ALA A   1      10.067  -3.808   0.000  0.00  0.00    +0.000 C 
BRANCH  20  25
ATOM     25  C   ALA A   1      10.106  -5.943   0.000  0.00  0.00    +0.000 C 
ATOM     26  O   ALA A   1       9.497  -6.494   0.000  0.00  0.00    +0.000 OA
ATOM     27  OXT ALA A   1      10.893  -6.191   0.000  0.00  0.00    +0.000 OA
ENDBRANCH  20  25
ENDBRANCH  16  19
ENDBRANCH  15  16
ENDBRANCH   1  15
TORSDOF 10
