REMARK  Name = 
REMARK  10 active torsions:
REMARK  status: ('A' for Active; 'I' for Inactive)
REMARK    1  A    between atoms: C_4  and  O_29
REMARK    2  A    between atoms: C_10  and  C_11
REMARK    3  A    between atoms: C_10  and  C_14
REMARK    4  A    between atoms: C_11  and  C_15
REMARK    5  A    between atoms: CA_13  and  C_17
REMARK    6  A    between atoms: CA_13  and  N_21
REMARK    7  A    between atoms: C_15  and  C_19
REMARK    8  A    between atoms: C_15  and  N_21
REMARK    9  A    between atoms: C_16  and  C_18
REMARK   10  A    between atoms: C_19  and  O_29
REMARK                            x       y       z     vdW  Elec       q    Type
REMARK                         _______ _______ _______ _____ _____    ______ ____
ROOT
ATOM      1  N   ALA A   1       6.987   1.760   0.000  0.00  0.00    +0.000 NA
ENDROOT
BRANCH   1   3
ATOM      2  CB  ALA A   1       6.717   0.357   0.000  0.00  0.00    +0.000 C 
ATOM      3  CA  ALA A   1       7.257   0.981   0.000  0.00  0.00    +0.000 C 
BRANCH   3   7
ATOM      4  C   UNK A   2       8.123  -2.079   0.000  0.00  0.00    +0.000 C 
ATOM      5  C   UNK A   2       9.143  -1.019   0.000  0.00  0.00    +0.000 C 
ATOM      6  C   UNK A   2       9.127  -0.194   0.000  0.00  0.00    +0.000 C 
ATOM      7  C   ALA A   1       8.068   0.825   0.000  0.00  0.00    +0.000 C 
ATOM      8  C   UNK A   2       7.866  -0.631   0.000  0.00  0.00    +0.000 C 
ATOM      9  N   UNK A   2       8.363  -1.289   0.000  0.00  0.00    +0.000 N 
ATOM     10  N   UNK A   2       8.338   0.045   0.000  0.00  0.00    +0.000 N 
ATOM     11  O   ALA A   1       8.607   1.449   0.000  0.00  0.00    +0.000 OA
ATOM     12  O   UNK A   2       7.041  -0.647   0.000  0.00  0.00    +0.000 OA
BRANCH   6  13
ATOM     13  C   UNK A   2       9.785   0.303   0.000  0.00  0.00    +0.000 C 
ATOM     14  O   UNK A   2       9.683   1.122   0.000  0.00  0.00    +0.000 OA
ATOM     15  O   UNK A   2      10.545  -0.018   0.000  0.00  0.00    +0.000 OA
ENDBRANCH   6  13
ENDBRANCH   3   7
ENDBRANCH   1   3
BRANCH   1  16
ATOM     16  C   UNK A   0       6.177   1.916   0.000  0.00  0.00    +0.000 C 
BRANCH  16  17
ATOM     17  C   UNK A   0       5.637   1.293   0.000  0.00  0.00    +0.000 C 
ATOM     18  O   UNK A   0       5.907   0.513   0.000  0.00  0.00    +0.000 OA
BRANCH  17  19
ATOM     19  O   UNK A   0       4.827   1.449   0.000  0.00  0.00    +0.000 OA
BRANCH  19  21
ATOM     20  C   UNK A   0       3.477   0.981   0.000  0.00  0.00    +0.000 C 
ATOM     21  C   UNK A   0       4.287   0.825   0.000  0.00  0.00    +0.000 C 
ENDBRANCH  19  21
ENDBRANCH  17  19
ENDBRANCH  16  17
BRANCH  16  22
ATOM     22  C   UNK A   0       5.907   2.696   0.000  0.00  0.00    +0.000 C 
BRANCH  22  23
ATOM     23  C   UNK A   0       5.097   2.852   0.000  0.00  0.00    +0.000 C 
BRANCH  23  29
ATOM     24  C   UNK A   0       4.287   5.191   0.000  0.00  0.00    +0.000 A 
ATOM     25  C   UNK A   0       3.747   4.567   0.000  0.00  0.00    +0.000 A 
ATOM     26  C   UNK A   0       5.097   5.035   0.000  0.00  0.00    +0.000 A 
ATOM     27  C   UNK A   0       4.017   3.787   0.000  0.00  0.00    +0.000 A 
ATOM     28  C   UNK A   0       5.367   4.255   0.000  0.00  0.00    +0.000 A 
ATOM     29  C   UNK A   0       4.827   3.631   0.000  0.00  0.00    +0.000 A 
ENDBRANCH  23  29
ENDBRANCH  22  23
ENDBRANCH  16  22
ENDBRANCH   1  16
TORSDOF 10
