REMARK  Name = 
REMARK  8 active torsions:
REMARK  status: ('A' for Active; 'I' for Inactive)
REMARK    1  A    between atoms: N_5  and  C_18
REMARK    2  A    between atoms: N_7  and  C_9
REMARK    3  A    between atoms: C_8  and  C_10
REMARK    4  A    between atoms: C_8  and  C_20
REMARK    5  A    between atoms: C_9  and  C_22
REMARK    6  A    between atoms: C_10  and  C_15
REMARK    7  A    between atoms: C_15  and  C_18
REMARK    8  A    between atoms: C_25  and  C_32
REMARK                            x       y       z     vdW  Elec       q    Type
REMARK                         _______ _______ _______ _____ _____    ______ ____
ROOT
ATOM      1  O   UNL     1       5.505  -0.909   0.000  0.00  0.00    +0.000 OA
ATOM      2  N   UNL     1       6.934  -0.909   0.000  0.00  0.00    +0.000 N 
ATOM      3  C   UNL     1       7.648   0.328   0.000  0.00  0.00    +0.000 C 
ATOM      4  C   UNL     1       8.363  -0.084   0.000  0.00  0.00    +0.000 C 
ATOM      5  C   UNL     1       6.934  -0.084   0.000  0.00  0.00    +0.000 C 
ATOM      6  C   UNL     1       8.363  -0.909   0.000  0.00  0.00    +0.000 C 
ATOM      7  C   UNL     1       7.648  -1.322   0.000  0.00  0.00    +0.000 C 
ATOM      8  C   UNL     1       6.219  -1.322   0.000  0.00  0.00    +0.000 C 
ENDROOT
BRANCH   3  11
ATOM      9 CL   UNL     1      10.123   1.757   0.000  0.00  0.00    +0.000 Cl
ATOM     10 CL   UNL     1       9.298   3.186   0.000  0.00  0.00    +0.000 Cl
ATOM     11  C   UNL     1       8.061   1.043   0.000  0.00  0.00    +0.000 A 
ATOM     12  C   UNL     1       8.886   1.043   0.000  0.00  0.00    +0.000 A 
ATOM     13  C   UNL     1       7.648   1.757   0.000  0.00  0.00    +0.000 A 
ATOM     14  C   UNL     1       9.298   1.757   0.000  0.00  0.00    +0.000 A 
ATOM     15  C   UNL     1       8.061   2.472   0.000  0.00  0.00    +0.000 A 
ATOM     16  C   UNL     1       8.886   2.472   0.000  0.00  0.00    +0.000 A 
ENDBRANCH   3  11
BRANCH   8  17
ATOM     17  C   UNL     1       6.219  -2.147   0.000  0.00  0.00    +0.000 A 
ATOM     18  C   UNL     1       6.934  -2.559   0.000  0.00  0.00    +0.000 A 
ATOM     19  C   UNL     1       5.505  -2.559   0.000  0.00  0.00    +0.000 A 
ATOM     20  C   UNL     1       6.934  -3.384   0.000  0.00  0.00    +0.000 A 
ATOM     21  C   UNL     1       5.505  -3.384   0.000  0.00  0.00    +0.000 A 
ATOM     22  C   UNL     1       6.219  -3.797   0.000  0.00  0.00    +0.000 A 
ENDBRANCH   8  17
BRANCH   3  23
ATOM     23  C   UNL     1       7.236   1.043   0.000  0.00  0.00    +0.000 C 
BRANCH  23  24
ATOM     24  C   UNL     1       6.411   1.043   0.000  0.00  0.00    +0.000 C 
BRANCH  24  25
ATOM     25  C   UNL     1       5.998   1.757   0.000  0.00  0.00    +0.000 C 
BRANCH  25  26
ATOM     26  N   UNL     1       5.173   1.757   0.000  0.00  0.00    +0.000 NA
ATOM     27  C   UNL     1       3.523   1.757   0.000  0.00  0.00    +0.000 C 
ATOM     28  C   UNL     1       3.936   2.472   0.000  0.00  0.00    +0.000 C 
ATOM     29  C   UNL     1       3.936   1.043   0.000  0.00  0.00    +0.000 C 
ATOM     30  C   UNL     1       4.761   2.472   0.000  0.00  0.00    +0.000 C 
ATOM     31  C   UNL     1       4.761   1.043   0.000  0.00  0.00    +0.000 C 
BRANCH  27  32
ATOM     32  C   UNL     1       2.993   2.389   0.000  0.00  0.00    +0.000 A 
ATOM     33  C   UNL     1       2.180   2.246   0.000  0.00  0.00    +0.000 A 
ATOM     34  C   UNL     1       3.275   3.165   0.000  0.00  0.00    +0.000 A 
ATOM     35  C   UNL     1       1.650   2.878   0.000  0.00  0.00    +0.000 A 
ATOM     36  C   UNL     1       2.745   3.797   0.000  0.00  0.00    +0.000 A 
ATOM     37  C   UNL     1       1.932   3.653   0.000  0.00  0.00    +0.000 A 
ENDBRANCH  27  32
BRANCH  27  39
ATOM     38  O   UNL     1       3.523   0.107   0.000  0.00  0.00    +0.000 OA
ATOM     39  N   UNL     1       2.809   1.345   0.000  0.00  0.00    +0.000 N 
ATOM     40  C   UNL     1       1.996   1.488   0.000  0.00  0.00    +0.000 C 
ATOM     41  C   UNL     1       2.809   0.520   0.000  0.00  0.00    +0.000 C 
ATOM     42  C   UNL     1       2.094   0.107   0.000  0.00  0.00    +0.000 C 
ENDBRANCH  27  39
ENDBRANCH  25  26
ENDBRANCH  24  25
ENDBRANCH  23  24
ENDBRANCH   3  23
TORSDOF 8
