REMARK  Name = 
REMARK  8 active torsions:
REMARK  status: ('A' for Active; 'I' for Inactive)
REMARK    1  A    between atoms: N_1  and  C_2
REMARK    2  A    between atoms: C_10  and  O_15
REMARK    3  A    between atoms: C_12  and  C_16
REMARK    4  A    between atoms: O_15  and  P_19
REMARK    5  A    between atoms: C_16  and  O_20
REMARK    6  A    between atoms: O_20  and  P_24
REMARK    7  A    between atoms: P_24  and  O_25
REMARK    8  A    between atoms: O_25  and  S_28
REMARK                            x       y       z     vdW  Elec       q    Type
REMARK                         _______ _______ _______ _____ _____    ______ ____
ROOT
ATOM      1  C   UNL     1       1.913  -0.352   0.000  0.00  0.00    +0.000 C 
ATOM      2  C   UNL     1       1.663  -1.125   0.000  0.00  0.00    +0.000 C 
ATOM      3  O   UNL     1       1.231   0.140   0.000  0.00  0.00    +0.000 OA
ATOM      4  C   UNL     1       0.826  -1.125   0.000  0.00  0.00    +0.000 C 
ATOM      5  O   UNL     1       2.151  -1.788   0.000  0.00  0.00    +0.000 OA
ATOM      6  C   UNL     1       0.564  -0.341   0.000  0.00  0.00    +0.000 C 
ENDROOT
BRANCH   1   7
ATOM      7  N   UNL     1       2.435   1.026   0.000  0.00  0.00    +0.000 N 
ATOM      8  C   UNL     1       1.651   1.284   0.000  0.00  0.00    +0.000 A 
ATOM      9  C   UNL     1       2.916   1.697   0.000  0.00  0.00    +0.000 A 
ATOM     10  C   UNL     1       1.655   2.106   0.000  0.00  0.00    +0.000 A 
ATOM     11  N   UNL     1       0.928   0.871   0.000  0.00  0.00    +0.000 NA
ATOM     12  N   UNL     1       2.439   2.352   0.000  0.00  0.00    +0.000 NA
ATOM     13  C   UNL     1       0.939   2.530   0.000  0.00  0.00    +0.000 A 
ATOM     14  C   UNL     1       0.231   1.322   0.000  0.00  0.00    +0.000 A 
ATOM     15  N   UNL     1       0.216   2.117   0.000  0.00  0.00    +0.000 NA
ATOM     16  N   UNL     1       0.943   3.352   0.000  0.00  0.00    +0.000 NA
ENDBRANCH   1   7
BRANCH   6  17
ATOM     17  C   UNL     1      -0.220  -0.099   0.000  0.00  0.00    +0.000 C 
BRANCH  17  18
ATOM     18  O   UNL     1      -1.045  -0.099   0.000  0.00  0.00    +0.000 OA
BRANCH  18  19
ATOM     19  P   UNL     1      -1.867  -0.099   0.000  0.00  0.00    +0.000 P 
ATOM     20  O   UNL     1      -1.867  -0.920   0.000  0.00  0.00    +0.000 OA
ATOM     21  O   UNL     1      -1.867   0.727   0.000  0.00  0.00    +0.000 OA
BRANCH  19  22
ATOM     22  O   UNL     1      -2.692  -0.099   0.000  0.00  0.00    +0.000 OA
BRANCH  22  23
ATOM     23  S   UNL     1      -3.514  -0.099   0.000  0.00  0.00    +0.000 S 
ATOM     24  O   UNL     1      -3.514  -0.920   0.000  0.00  0.00    +0.000 OA
ATOM     25  O   UNL     1      -4.340  -0.099   0.000  0.00  0.00    +0.000 OA
ATOM     26  O   UNL     1      -3.514   0.727   0.000  0.00  0.00    +0.000 OA
ENDBRANCH  22  23
ENDBRANCH  19  22
ENDBRANCH  18  19
ENDBRANCH  17  18
ENDBRANCH   6  17
BRANCH   4  27
ATOM     27  O   UNL     1       0.352  -1.795   0.000  0.00  0.00    +0.000 OA
BRANCH  27  28
ATOM     28  P   UNL     1       0.352  -2.617   0.000  0.00  0.00    +0.000 P 
ATOM     29  O   UNL     1       0.352  -3.442   0.000  0.00  0.00    +0.000 OA
ATOM     30  O   UNL     1       1.174  -2.617   0.000  0.00  0.00    +0.000 OA
ATOM     31  O   UNL     1      -0.473  -2.617   0.000  0.00  0.00    +0.000 OA
ENDBRANCH  27  28
ENDBRANCH   4  27
TORSDOF 8
