REMARK  Name = 
REMARK  4 active torsions:
REMARK  status: ('A' for Active; 'I' for Inactive)
REMARK    1  A    between atoms: N_6  and  C_9
REMARK    2  A    between atoms: C_12  and  C_13
REMARK    3  A    between atoms: C_13  and  O_14
REMARK    4  A    between atoms: O_14  and  P_15
REMARK                            x       y       z     vdW  Elec       q    Type
REMARK                         _______ _______ _______ _____ _____    ______ ____
ROOT
ATOM      1  C   UNL     1       0.715   3.466   0.000  0.00  0.00    +0.000 C 
ATOM      2  C   UNL     1       1.382   2.981   0.000  0.00  0.00    +0.000 C 
ATOM      3  C   UNL     1       1.127   2.196   0.000  0.00  0.00    +0.000 C 
ATOM      4  C   UNL     1       0.302   2.196   0.000  0.00  0.00    +0.000 C 
ATOM      5  O   UNL     1       0.047   2.981   0.000  0.00  0.00    +0.000 OA
ENDROOT
BRANCH   1  11
ATOM      6  N   UNL     1       0.715   6.766   0.000  0.00  0.00    +0.000 NA
ATOM      7  C   UNL     1       0.715   5.941   0.000  0.00  0.00    +0.000 A 
ATOM      8  N   UNL     1       1.429   5.529   0.000  0.00  0.00    +0.000 NA
ATOM      9  C   UNL     1       1.429   4.704   0.000  0.00  0.00    +0.000 A 
ATOM     10  O   UNL     1       2.143   4.291   0.000  0.00  0.00    +0.000 OA
ATOM     11  N   UNL     1       0.715   4.291   0.000  0.00  0.00    +0.000 N 
ATOM     12  C   UNL     1       0.000   4.704   0.000  0.00  0.00    +0.000 A 
ATOM     13  C   UNL     1       0.000   5.529   0.000  0.00  0.00    +0.000 A 
ENDBRANCH   1  11
BRANCH   4  14
ATOM     14  C   UNL     1      -0.183   1.529   0.000  0.00  0.00    +0.000 C 
BRANCH  14  15
ATOM     15  O   UNL     1      -1.003   1.615   0.000  0.00  0.00    +0.000 OA
BRANCH  15  16
ATOM     16  P   UNL     1      -1.488   0.948   0.000  0.00  0.00    +0.000 P 
ATOM     17  O   UNL     1      -1.973   0.280   0.000  0.00  0.00    +0.000 OA
ATOM     18  O   UNL     1      -2.156   1.433   0.000  0.00  0.00    +0.000 OA
ATOM     19  O   UNL     1      -0.821   0.463   0.000  0.00  0.00    +0.000 OA
ENDBRANCH  15  16
ENDBRANCH  14  15
ENDBRANCH   4  14
TORSDOF 4
