REMARK  Name = 
REMARK  3 active torsions:
REMARK  status: ('A' for Active; 'I' for Inactive)
REMARK    1  A    between atoms: S_2  and  C_3
REMARK    2  A    between atoms: C_3  and  C_4
REMARK    3  A    between atoms: C_4  and  C_6
REMARK                            x       y       z     vdW  Elec       q    Type
REMARK                         _______ _______ _______ _____ _____    ______ ____
ROOT
ATOM      1  C   UNK     1       1.952   1.127   0.000  0.00  0.00    +0.000 C 
ATOM      2  N   UNK     1       1.952   1.952   0.000  0.00  0.00    +0.000 NA
ENDROOT
BRANCH   1   3
ATOM      3  C   UNK     1       2.666   0.715   0.000  0.00  0.00    +0.000 C 
ATOM      4  O   UNK     1       3.381   1.127   0.000  0.00  0.00    +0.000 OA
ATOM      5  O   UNK     1       2.666  -0.111   0.000  0.00  0.00    +0.000 OA
ENDBRANCH   1   3
BRANCH   1   6
ATOM      6  C   UNK     1       1.238   0.715   0.000  0.00  0.00    +0.000 C 
BRANCH   6   8
ATOM      7  C   UNK     1      -0.191   0.715   0.000  0.00  0.00    +0.000 C 
ATOM      8  S   UNK     1       0.523   1.127   0.000  0.00  0.00    +0.000 S 
ENDBRANCH   6   8
ENDBRANCH   1   6
TORSDOF 3
