REMARK  Name = 
REMARK  4 active torsions:
REMARK  status: ('A' for Active; 'I' for Inactive)
REMARK    1  A    between atoms: N_2  and  C_13
REMARK    2  A    between atoms: C_6  and  N_12
REMARK    3  A    between atoms: N_11  and  C_21
REMARK    4  A    between atoms: N_12  and  C_16
REMARK                            x       y       z     vdW  Elec       q    Type
REMARK                         _______ _______ _______ _____ _____    ______ ____
ROOT
ATOM      1  C   UNL     1       5.908  -7.752   0.000  0.00  0.00    +0.000 A 
ATOM      2  N   UNL     1       5.199  -7.331   0.000  0.00  0.00    +0.000 N 
ATOM      3  C   UNL     1       5.908  -8.567   0.000  0.00  0.00    +0.000 A 
ATOM      4  C   UNL     1       6.644  -7.331   0.000  0.00  0.00    +0.000 A 
ATOM      5  N   UNL     1       5.199  -8.987   0.000  0.00  0.00    +0.000 NA
ATOM      6  C   UNL     1       7.328  -8.567   0.000  0.00  0.00    +0.000 A 
ATOM      7  C   UNL     1       7.328  -7.752   0.000  0.00  0.00    +0.000 A 
ATOM      8  C   UNL     1       6.644  -8.987   0.000  0.00  0.00    +0.000 A 
ATOM      9  C   UNL     1       4.463  -7.752   0.000  0.00  0.00    +0.000 A 
ATOM     10  C   UNL     1       4.463  -8.567   0.000  0.00  0.00    +0.000 A 
ATOM     11  N   UNL     1       8.064  -7.331   0.000  0.00  0.00    +0.000 NA
ATOM     12  C   UNL     1       3.779  -7.331   0.000  0.00  0.00    +0.000 A 
ATOM     13  C   UNL     1       3.779  -8.987   0.000  0.00  0.00    +0.000 A 
ATOM     14  C   UNL     1       3.043  -7.752   0.000  0.00  0.00    +0.000 A 
ATOM     15  C   UNL     1       3.043  -8.567   0.000  0.00  0.00    +0.000 A 
ENDROOT
BRANCH   2  16
ATOM     16  C   UNL     1       5.199  -6.516   0.000  0.00  0.00    +0.000 A 
ATOM     17  C   UNL     1       5.908  -6.096   0.000  0.00  0.00    +0.000 A 
ATOM     18  C   UNL     1       4.463  -6.096   0.000  0.00  0.00    +0.000 A 
ATOM     19  C   UNL     1       5.199  -4.860   0.000  0.00  0.00    +0.000 A 
ATOM     20  C   UNL     1       4.463  -5.255   0.000  0.00  0.00    +0.000 A 
ATOM     21  C   UNL     1       5.908  -5.255   0.000  0.00  0.00    +0.000 A 
ATOM     22 CL   UNL     1       5.199  -4.045   0.000  0.00  0.00    +0.000 Cl
ENDBRANCH   2  16
BRANCH  11  23
ATOM     23  C   UNL     1       8.064  -6.516   0.000  0.00  0.00    +0.000 C 
ATOM     24  C   UNL     1       8.774  -6.096   0.000  0.00  0.00    +0.000 C 
ATOM     25  C   UNL     1       7.328  -6.096   0.000  0.00  0.00    +0.000 C 
ENDBRANCH  11  23
BRANCH   6  26
ATOM     26  N   UNL     1       8.064  -8.987   0.000  0.00  0.00    +0.000 NA
BRANCH  26  27
ATOM     27  C   UNL     1       8.774  -8.567   0.000  0.00  0.00    +0.000 A 
ATOM     28  C   UNL     1      10.193  -7.752   0.000  0.00  0.00    +0.000 A 
ATOM     29 CL   UNL     1      10.929  -7.331   0.000  0.00  0.00    +0.000 Cl
ATOM     30  C   UNL     1       9.483  -8.987   0.000  0.00  0.00    +0.000 A 
ATOM     31  C   UNL     1       8.774  -7.752   0.000  0.00  0.00    +0.000 A 
ATOM     32  C   UNL     1      10.193  -8.567   0.000  0.00  0.00    +0.000 A 
ATOM     33  C   UNL     1       9.483  -7.331   0.000  0.00  0.00    +0.000 A 
ENDBRANCH  26  27
ENDBRANCH   6  26
TORSDOF 4
