REMARK  Name = 
REMARK  6 active torsions:
REMARK  status: ('A' for Active; 'I' for Inactive)
REMARK    1  A    between atoms: C_2  and  C_4
REMARK    2  A    between atoms: C_5  and  C_6
REMARK    3  A    between atoms: C_9  and  C_10
REMARK    4  A    between atoms: C_13  and  C_14
REMARK    5  A    between atoms: C_17  and  C_18
REMARK    6  A    between atoms: C_21  and  C_22
REMARK                            x       y       z     vdW  Elec       q    Type
REMARK                         _______ _______ _______ _____ _____    ______ ____
ROOT
ATOM      1  C   UNL     1       1.429   0.825   0.000  0.00  0.00    +0.000 A 
ATOM      2  C   UNL     1       1.429   0.000   0.000  0.00  0.00    +0.000 A 
ATOM      3  C   UNL     1       0.715  -0.412   0.000  0.00  0.00    +0.000 A 
ATOM      4  C   UNL     1       0.000   0.000   0.000  0.00  0.00    +0.000 A 
ATOM      5  C   UNL     1       0.000   0.825   0.000  0.00  0.00    +0.000 A 
ATOM      6  C   UNL     1       0.715   1.238   0.000  0.00  0.00    +0.000 A 
ENDROOT
BRANCH   1   8
ATOM      7  O   UNL     1       2.143   2.062   0.000  0.00  0.00    +0.000 OA
ATOM      8  C   UNL     1       2.143   1.238   0.000  0.00  0.00    +0.000 C 
ATOM      9  O   UNL     1       2.858   0.825   0.000  0.00  0.00    +0.000 OA
ENDBRANCH   1   8
BRANCH   2  10
ATOM     10  C   UNL     1       2.143  -0.412   0.000  0.00  0.00    +0.000 C 
ATOM     11  O   UNL     1       2.143  -1.238   0.000  0.00  0.00    +0.000 OA
ATOM     12  O   UNL     1       2.858   0.000   0.000  0.00  0.00    +0.000 OA
ENDBRANCH   2  10
BRANCH   3  13
ATOM     13  C   UNL     1       0.715  -1.238   0.000  0.00  0.00    +0.000 C 
ATOM     14  O   UNL     1       0.000  -1.650   0.000  0.00  0.00    +0.000 OA
ATOM     15  O   UNL     1       1.429  -1.650   0.000  0.00  0.00    +0.000 OA
ENDBRANCH   3  13
BRANCH   4  16
ATOM     16  C   UNL     1      -0.715  -0.412   0.000  0.00  0.00    +0.000 C 
ATOM     17  O   UNL     1      -0.715  -1.238   0.000  0.00  0.00    +0.000 OA
ATOM     18  O   UNL     1      -1.429   0.000   0.000  0.00  0.00    +0.000 OA
ENDBRANCH   4  16
BRANCH   5  19
ATOM     19  C   UNL     1      -0.715   1.238   0.000  0.00  0.00    +0.000 C 
ATOM     20  O   UNL     1      -0.715   2.062   0.000  0.00  0.00    +0.000 OA
ATOM     21  O   UNL     1      -1.429   0.825   0.000  0.00  0.00    +0.000 OA
ENDBRANCH   5  19
BRANCH   6  22
ATOM     22  C   UNL     1       0.715   2.062   0.000  0.00  0.00    +0.000 C 
ATOM     23  O   UNL     1       1.429   2.475   0.000  0.00  0.00    +0.000 OA
ATOM     24  O   UNL     1       0.000   2.475   0.000  0.00  0.00    +0.000 OA
ENDBRANCH   6  22
TORSDOF 6
