REMARK  Name = 
REMARK  9 active torsions:
REMARK  status: ('A' for Active; 'I' for Inactive)
REMARK    1  A    between atoms: C_1  and  C_7
REMARK    2  A    between atoms: N_8  and  C_10
REMARK    3  A    between atoms: C_10  and  C_11
REMARK    4  A    between atoms: C_10  and  C_12
REMARK    5  A    between atoms: C_12  and  C_13
REMARK    6  A    between atoms: N_20  and  C_21
REMARK    7  A    between atoms: C_21  and  C_22
REMARK    8  A    between atoms: C_21  and  B_26
REMARK    9  A    between atoms: C_22  and  C_23
REMARK                            x       y       z     vdW  Elec       q    Type
REMARK                         _______ _______ _______ _____ _____    ______ ____
ROOT
ATOM      1  C   UNL     1       9.070 -17.385   0.000  0.00  0.00    +0.000 C 
ENDROOT
BRANCH   1   2
ATOM      2  C   UNL     1       9.785 -17.797   0.000  0.00  0.00    +0.000 C 
ATOM      3  O   UNL     1       9.785 -18.622   0.000  0.00  0.00    +0.000 OA
ATOM      4  N   UNL     1      10.499 -17.385   0.000  0.00  0.00    +0.000 NA
BRANCH   4   5
ATOM      5  C   UNL     1      11.214 -17.797   0.000  0.00  0.00    +0.000 C 
BRANCH   5   6
ATOM      6  B   UNL     1      11.214 -18.622   0.000  0.00  0.00    +0.000 B 
ATOM      7  O   UNL     1      10.499 -19.035   0.000  0.00  0.00    +0.000 OA
ATOM      8  O   UNL     1      11.928 -19.035   0.000  0.00  0.00    +0.000 OA
ENDBRANCH   5   6
BRANCH   5   9
ATOM      9  C   UNL     1      11.928 -17.385   0.000  0.00  0.00    +0.000 C 
BRANCH   9  10
ATOM     10  C   UNL     1      12.643 -17.797   0.000  0.00  0.00    +0.000 C 
ATOM     11  C   UNL     1      13.357 -17.385   0.000  0.00  0.00    +0.000 C 
ATOM     12  C   UNL     1      12.643 -18.622   0.000  0.00  0.00    +0.000 C 
ENDBRANCH   9  10
ENDBRANCH   5   9
ENDBRANCH   4   5
ENDBRANCH   1   2
BRANCH   1  14
ATOM     13  C   UNL     1       7.641 -17.385   0.000  0.00  0.00    +0.000 C 
ATOM     14  N   UNL     1       8.356 -17.797   0.000  0.00  0.00    +0.000 NA
ATOM     15  O   UNL     1       7.641 -16.560   0.000  0.00  0.00    +0.000 OA
BRANCH  13  16
ATOM     16  C   UNL     1       6.927 -17.797   0.000  0.00  0.00    +0.000 A 
ATOM     17  N   UNL     1       6.927 -18.622   0.000  0.00  0.00    +0.000 NA
ATOM     18  C   UNL     1       6.212 -17.385   0.000  0.00  0.00    +0.000 A 
ATOM     19  C   UNL     1       6.212 -19.035   0.000  0.00  0.00    +0.000 A 
ATOM     20  N   UNL     1       5.498 -17.797   0.000  0.00  0.00    +0.000 NA
ATOM     21  C   UNL     1       5.498 -18.622   0.000  0.00  0.00    +0.000 A 
ENDBRANCH  13  16
ENDBRANCH   1  14
BRANCH   1  22
ATOM     22  C   UNL     1       9.070 -16.560   0.000  0.00  0.00    +0.000 C 
BRANCH  22  23
ATOM     23  C   UNL     1       9.785 -16.147   0.000  0.00  0.00    +0.000 A 
ATOM     24  C   UNL     1       9.785 -15.322   0.000  0.00  0.00    +0.000 A 
ATOM     25  C   UNL     1      10.499 -16.560   0.000  0.00  0.00    +0.000 A 
ATOM     26  C   UNL     1      10.499 -14.910   0.000  0.00  0.00    +0.000 A 
ATOM     27  C   UNL     1      11.214 -16.147   0.000  0.00  0.00    +0.000 A 
ATOM     28  C   UNL     1      11.214 -15.322   0.000  0.00  0.00    +0.000 A 
ENDBRANCH  22  23
ENDBRANCH   1  22
TORSDOF 9
