REMARK  Name = 
REMARK  3 active torsions:
REMARK  status: ('A' for Active; 'I' for Inactive)
REMARK    1  A    between atoms: N_4  and  CA_5
REMARK    2  A    between atoms: CA_5  and  CB_6
REMARK    3  A    between atoms: CA_5  and  C_8
REMARK                            x       y       z     vdW  Elec       q    Type
REMARK                         _______ _______ _______ _____ _____    ______ ____
ROOT
ATOM      1  CA  SER A   1       1.952  -1.127   0.000  0.00  0.00    +0.000 C 
ENDROOT
BRANCH   1   5
ATOM      2  C   UNK A   0       0.523   0.523   0.000  0.00  0.00    +0.000 C 
ATOM      3  C   UNK A   0       1.238   0.111   0.000  0.00  0.00    +0.000 C 
ATOM      4  O   UNK A   0       1.952   0.523   0.000  0.00  0.00    +0.000 OA
ATOM      5  N   SER A   1       1.238  -0.715   0.000  0.00  0.00    +0.000 NA
ENDBRANCH   1   5
BRANCH   1   6
ATOM      6  C   SER A   1       2.666  -0.715   0.000  0.00  0.00    +0.000 C 
ATOM      7  O   SER A   1       2.666   0.111   0.000  0.00  0.00    +0.000 OA
ATOM      8  OXT SER A   1       3.381  -1.127   0.000  0.00  0.00    +0.000 OA
ENDBRANCH   1   6
BRANCH   1   9
ATOM      9  CB  SER A   1       1.952  -1.952   0.000  0.00  0.00    +0.000 C 
ATOM     10  OG  SER A   1       2.666  -2.365   0.000  0.00  0.00    +0.000 OA
ENDBRANCH   1   9
TORSDOF 3
