REMARK  Name = 
REMARK  6 active torsions:
REMARK  status: ('A' for Active; 'I' for Inactive)
REMARK    1  A    between atoms: O_2  and  C_20
REMARK    2  A    between atoms: O_2  and  C_21
REMARK    3  A    between atoms: N_4  and  C_7
REMARK    4  A    between atoms: N_4  and  C_8
REMARK    5  A    between atoms: N_5  and  C_10
REMARK    6  A    between atoms: C_7  and  C_9
REMARK                            x       y       z     vdW  Elec       q    Type
REMARK                         _______ _______ _______ _____ _____    ______ ____
ROOT
ATOM      1  N   UNL     1       2.093   1.444   0.000  0.00  0.00    +0.000 NA
ATOM      2  C   UNL     1       3.522  -0.206   0.000  0.00  0.00    +0.000 A 
ATOM      3  C   UNL     1       3.522   1.444   0.000  0.00  0.00    +0.000 A 
ATOM      4  C   UNL     1       2.808   0.206   0.000  0.00  0.00    +0.000 A 
ATOM      5  C   UNL     1       2.808   1.031   0.000  0.00  0.00    +0.000 A 
ATOM      6  C   UNL     1       4.237   0.206   0.000  0.00  0.00    +0.000 A 
ATOM      7  C   UNL     1       4.237   1.031   0.000  0.00  0.00    +0.000 A 
ENDROOT
BRANCH   3   9
ATOM      8  O   UNL     1       4.951   2.269   0.000  0.00  0.00    +0.000 OA
ATOM      9  N   UNL     1       3.522   2.269   0.000  0.00  0.00    +0.000 NA
ATOM     10  C   UNL     1       4.237   2.681   0.000  0.00  0.00    +0.000 C 
BRANCH  10  11
ATOM     11  O   UNL     1       4.237   3.506   0.000  0.00  0.00    +0.000 OA
BRANCH  11  12
ATOM     12  C   UNL     1       4.951   3.919   0.000  0.00  0.00    +0.000 C 
ATOM     13  C   UNL     1       4.951   4.744   0.000  0.00  0.00    +0.000 C 
ENDBRANCH  11  12
ENDBRANCH  10  11
ENDBRANCH   3   9
BRANCH   2  14
ATOM     14  N   UNL     1       3.522  -1.031   0.000  0.00  0.00    +0.000 NA
BRANCH  14  15
ATOM     15  C   UNL     1       4.237  -1.444   0.000  0.00  0.00    +0.000 C 
BRANCH  15  17
ATOM     16  F   UNL     1       4.237  -4.744   0.000  0.00  0.00    +0.000 F 
ATOM     17  C   UNL     1       4.237  -2.269   0.000  0.00  0.00    +0.000 A 
ATOM     18  C   UNL     1       4.951  -2.681   0.000  0.00  0.00    +0.000 A 
ATOM     19  C   UNL     1       3.522  -2.681   0.000  0.00  0.00    +0.000 A 
ATOM     20  C   UNL     1       4.951  -3.506   0.000  0.00  0.00    +0.000 A 
ATOM     21  C   UNL     1       3.522  -3.506   0.000  0.00  0.00    +0.000 A 
ATOM     22  C   UNL     1       4.237  -3.919   0.000  0.00  0.00    +0.000 A 
ENDBRANCH  15  17
ENDBRANCH  14  15
ENDBRANCH   2  14
TORSDOF 6
