REMARK  Name = 
REMARK  3 active torsions:
REMARK  status: ('A' for Active; 'I' for Inactive)
REMARK    1  A    between atoms: C_5  and  N_12
REMARK    2  A    between atoms: C_10  and  S_14
REMARK    3  A    between atoms: N_12  and  C_18
REMARK                            x       y       z     vdW  Elec       q    Type
REMARK                         _______ _______ _______ _____ _____    ______ ____
ROOT
ATOM      1  C   UNL     1      16.854  -6.864   0.000  0.00  0.00    +0.000 A 
ATOM      2  C   UNL     1      16.854  -6.058   0.000  0.00  0.00    +0.000 A 
ATOM      3  S   UNL     1      16.137  -7.293   0.000  0.00  0.00    +0.000 S 
ATOM      4  S   UNL     1      17.642  -7.132   0.000  0.00  0.00    +0.000 S 
ATOM      5  C   UNL     1      16.137  -5.646   0.000  0.00  0.00    +0.000 C 
ATOM      6  C   UNL     1      17.642  -5.789   0.000  0.00  0.00    +0.000 A 
ATOM      7  C   UNL     1      15.421  -6.864   0.000  0.00  0.00    +0.000 C 
ATOM      8  O   UNL     1      15.726  -7.992   0.000  0.00  0.00    +0.000 OA
ATOM      9  O   UNL     1      16.514  -7.992   0.000  0.00  0.00    +0.000 OA
ATOM     10  C   UNL     1      18.107  -6.470   0.000  0.00  0.00    +0.000 A 
ATOM     11  C   UNL     1      15.421  -6.058   0.000  0.00  0.00    +0.000 C 
ATOM     12  C   UNL     1      14.723  -7.293   0.000  0.00  0.00    +0.000 C 
ENDROOT
BRANCH  10  13
ATOM     13  S   UNL     1      18.931  -6.470   0.000  0.00  0.00    +0.000 S 
ATOM     14  N   UNL     1      19.343  -7.186   0.000  0.00  0.00    +0.000 NA
ATOM     15  O   UNL     1      18.931  -5.646   0.000  0.00  0.00    +0.000 OA
ATOM     16  O   UNL     1      19.647  -6.076   0.000  0.00  0.00    +0.000 OA
ENDBRANCH  10  13
BRANCH   5  17
ATOM     17  N   UNL     1      16.137  -4.804   0.000  0.00  0.00    +0.000 NA
BRANCH  17  18
ATOM     18  C   UNL     1      15.418  -4.399   0.000  0.00  0.00    +0.000 C 
ATOM     19  C   UNL     1      14.707  -4.820   0.000  0.00  0.00    +0.000 C 
ENDBRANCH  17  18
ENDBRANCH   5  17
TORSDOF 3
