REMARK  Name = 
REMARK  2 active torsions:
REMARK  status: ('A' for Active; 'I' for Inactive)
REMARK    1  A    between atoms: C_3  and  C_8
REMARK    2  A    between atoms: C_8  and  C_9
REMARK                            x       y       z     vdW  Elec       q    Type
REMARK                         _______ _______ _______ _____ _____    ______ ____
ROOT
ATOM      1  C   UNL     1       1.112   1.401   0.000  0.00  0.00    +0.000 C 
ATOM      2  C   UNL     1       1.112   0.576   0.000  0.00  0.00    +0.000 A 
ATOM      3  C   UNL     1       0.453   0.165   0.000  0.00  0.00    +0.000 A 
ATOM      4  C   UNL     1       0.371  -0.659   0.000  0.00  0.00    +0.000 A 
ATOM      5  O   UNL     1      -0.287  -1.071   0.000  0.00  0.00    +0.000 OA
ATOM      6  N   UNL     1       1.855   1.813   0.000  0.00  0.00    +0.000 NA
ATOM      7  C   UNL     1       2.514   1.401   0.000  0.00  0.00    +0.000 C 
ATOM      8  C   UNL     1       2.514   0.576   0.000  0.00  0.00    +0.000 C 
ATOM      9  C   UNL     1       1.855   0.165   0.000  0.00  0.00    +0.000 A 
ATOM     10  C   UNL     1       1.855  -0.659   0.000  0.00  0.00    +0.000 A 
ATOM     11  C   UNL     1       1.112  -1.071   0.000  0.00  0.00    +0.000 A 
ATOM     12  O   UNL     1       1.112  -1.896   0.000  0.00  0.00    +0.000 OA
ENDROOT
BRANCH   1  13
ATOM     13  C   UNL     1       0.371   1.896   0.000  0.00  0.00    +0.000 C 
BRANCH  13  16
ATOM     14  C   UNL     1      -1.771   1.483   0.000  0.00  0.00    +0.000 A 
ATOM     15  C   UNL     1      -1.030   1.896   0.000  0.00  0.00    +0.000 A 
ATOM     16  C   UNL     1      -0.370   1.483   0.000  0.00  0.00    +0.000 A 
ATOM     17  C   UNL     1      -0.453   0.659   0.000  0.00  0.00    +0.000 A 
ATOM     18  C   UNL     1      -1.113   0.248   0.000  0.00  0.00    +0.000 A 
ATOM     19  C   UNL     1      -1.771   0.659   0.000  0.00  0.00    +0.000 A 
ATOM     20  O   UNL     1      -2.514   0.248   0.000  0.00  0.00    +0.000 OA
ENDBRANCH  13  16
ENDBRANCH   1  13
TORSDOF 2
