REMARK  Name = 
REMARK  4 active torsions:
REMARK  status: ('A' for Active; 'I' for Inactive)
REMARK    1  A    between atoms: C_4  and  N_13
REMARK    2  A    between atoms: C_6  and  C_7
REMARK    3  A    between atoms: C_7  and  O_8
REMARK    4  A    between atoms: O_8  and  P_9
REMARK                            x       y       z     vdW  Elec       q    Type
REMARK                         _______ _______ _______ _____ _____    ______ ____
ROOT
ATOM      1  O   UNL     1       0.715  -0.412   0.000  0.00  0.00    +0.000 OA
ATOM      2  C   UNL     1       0.715  -1.238   0.000  0.00  0.00    +0.000 C 
ATOM      3  C   UNL     1       1.382  -1.722   0.000  0.00  0.00    +0.000 C 
ATOM      4  C   UNL     1       1.127  -2.507   0.000  0.00  0.00    +0.000 C 
ATOM      5  O   UNL     1       0.302  -2.507   0.000  0.00  0.00    +0.000 OA
ATOM      6  C   UNL     1       0.047  -1.722   0.000  0.00  0.00    +0.000 C 
ENDROOT
BRANCH   4   7
ATOM      7  N   UNL     1       1.612  -3.175   0.000  0.00  0.00    +0.000 N 
ATOM      8  C   UNL     1       2.432  -3.088   0.000  0.00  0.00    +0.000 A 
ATOM      9  C   UNL     1       2.917  -3.756   0.000  0.00  0.00    +0.000 A 
ATOM     10  C   UNL     1       2.582  -4.509   0.000  0.00  0.00    +0.000 A 
ATOM     11  O   UNL     1       3.067  -5.177   0.000  0.00  0.00    +0.000 OA
ATOM     12  N   UNL     1       1.761  -4.596   0.000  0.00  0.00    +0.000 NA
ATOM     13  C   UNL     1       1.276  -3.928   0.000  0.00  0.00    +0.000 A 
ATOM     14  O   UNL     1       0.456  -4.014   0.000  0.00  0.00    +0.000 OA
ENDBRANCH   4   7
BRANCH   6  15
ATOM     15  C   UNL     1      -0.738  -1.468   0.000  0.00  0.00    +0.000 C 
BRANCH  15  16
ATOM     16  O   UNL     1      -0.909  -0.660   0.000  0.00  0.00    +0.000 OA
BRANCH  16  17
ATOM     17  P   UNL     1      -1.694  -0.406   0.000  0.00  0.00    +0.000 P 
ATOM     18  O   UNL     1      -2.478  -0.151   0.000  0.00  0.00    +0.000 OA
ATOM     19  O   UNL     1      -1.949  -1.190   0.000  0.00  0.00    +0.000 OA
ATOM     20  O   UNL     1      -1.439   0.379   0.000  0.00  0.00    +0.000 OA
ENDBRANCH  16  17
ENDBRANCH  15  16
ENDBRANCH   6  15
TORSDOF 4
