REMARK  Name = 
REMARK  30 active torsions:
REMARK  status: ('A' for Active; 'I' for Inactive)
REMARK    1  A    between atoms: O_2  and  C_18
REMARK    2  A    between atoms: O_2  and  C_37
REMARK    3  A    between atoms: O_3  and  C_21
REMARK    4  A    between atoms: O_3  and  C_38
REMARK    5  A    between atoms: O_6  and  C_31
REMARK    6  A    between atoms: O_6  and  C_40
REMARK    7  A    between atoms: O_8  and  C_32
REMARK    8  A    between atoms: O_8  and  C_41
REMARK    9  A    between atoms: O_13  and  C_43
REMARK   10  A    between atoms: O_13  and  C_52
REMARK   11  A    between atoms: N_16  and  C_47
REMARK   12  A    between atoms: C_38  and  C_42
REMARK   13  A    between atoms: C_41  and  C_43
REMARK   14  A    between atoms: C_43  and  C_47
REMARK   15  A    between atoms: C_47  and  C_51
REMARK   16  A    between atoms: C_52  and  C_56
REMARK   17  A    between atoms: C_55  and  C_59
REMARK   18  A    between atoms: C_56  and  C_60
REMARK   19  A    between atoms: C_60  and  C_64
REMARK   20  A    between atoms: C_67  and  C_69
REMARK   21  A    between atoms: C_69  and  C_70
REMARK   22  A    between atoms: C_71  and  C_72
REMARK   23  A    between atoms: C_72  and  C_73
REMARK   24  A    between atoms: C_74  and  C_75
REMARK   25  A    between atoms: C_75  and  C_76
REMARK   26  A    between atoms: C_77  and  C_78
REMARK   27  A    between atoms: C_78  and  C_79
REMARK   28  A    between atoms: C_80  and  C_81
REMARK   29  A    between atoms: C_81  and  C_82
REMARK   30  A    between atoms: C_83  and  C_84
REMARK                            x       y       z     vdW  Elec       q    Type
REMARK                         _______ _______ _______ _____ _____    ______ ____
ROOT
ATOM      1  O   UNL     1       7.270  -3.816   0.000  0.00  0.00    +0.000 OA
ATOM      2  C   UNL     1       7.057  -3.019   0.000  0.00  0.00    +0.000 C 
ENDROOT
BRANCH   2   3
ATOM      3  C   UNL     1       7.640  -2.436   0.000  0.00  0.00    +0.000 C 
BRANCH   3   4
ATOM      4  C   UNL     1       8.437  -2.650   0.000  0.00  0.00    +0.000 C 
BRANCH   4   5
ATOM      5  C   UNL     1       9.020  -2.066   0.000  0.00  0.00    +0.000 A 
ATOM      6  C   UNL     1       8.807  -1.269   0.000  0.00  0.00    +0.000 A 
ATOM      7  C   UNL     1       9.817  -2.280   0.000  0.00  0.00    +0.000 A 
ATOM      8  C   UNL     1       9.390  -0.686   0.000  0.00  0.00    +0.000 A 
ATOM      9  C   UNL     1      10.400  -1.696   0.000  0.00  0.00    +0.000 A 
ATOM     10  C   UNL     1      10.187  -0.899   0.000  0.00  0.00    +0.000 A 
ENDBRANCH   4   5
BRANCH   4  12
ATOM     11  O   UNL     1      10.031  -3.076   0.000  0.00  0.00    +0.000 OA
ATOM     12  N   UNL     1       8.650  -3.446   0.000  0.00  0.00    +0.000 NA
ATOM     13  C   UNL     1       9.447  -3.660   0.000  0.00  0.00    +0.000 C 
BRANCH  13  14
ATOM     14  C   UNL     1       9.661  -4.457   0.000  0.00  0.00    +0.000 A 
ATOM     15  C   UNL     1      10.458  -4.670   0.000  0.00  0.00    +0.000 A 
ATOM     16  C   UNL     1       9.078  -5.040   0.000  0.00  0.00    +0.000 A 
ATOM     17  C   UNL     1      10.671  -5.467   0.000  0.00  0.00    +0.000 A 
ATOM     18  C   UNL     1       9.291  -5.837   0.000  0.00  0.00    +0.000 A 
ATOM     19  C   UNL     1      10.088  -6.051   0.000  0.00  0.00    +0.000 A 
ENDBRANCH  13  14
ENDBRANCH   4  12
ENDBRANCH   3   4
BRANCH   3  20
ATOM     20  O   UNL     1       7.426  -1.639   0.000  0.00  0.00    +0.000 OA
BRANCH  20  22
ATOM     21  O   UNL     1       6.046  -2.009   0.000  0.00  0.00    +0.000 OA
ATOM     22  C   UNL     1       6.630  -1.425   0.000  0.00  0.00    +0.000 C 
BRANCH  22  23
ATOM     23  C   UNL     1       6.416  -0.629   0.000  0.00  0.00    +0.000 C 
BRANCH  23  24
ATOM     24  C   UNL     1       6.999  -0.045   0.000  0.00  0.00    +0.000 C 
BRANCH  24  25
ATOM     25  C   UNL     1       6.786   0.752   0.000  0.00  0.00    +0.000 C 
ATOM     26  C   UNL     1       7.369   1.335   0.000  0.00  0.00    +0.000 C 
BRANCH  26  27
ATOM     27  C   UNL     1       8.166   1.121   0.000  0.00  0.00    +0.000 C 
BRANCH  27  28
ATOM     28  C   UNL     1       8.749   1.705   0.000  0.00  0.00    +0.000 C 
ATOM     29  C   UNL     1       8.536   2.502   0.000  0.00  0.00    +0.000 C 
BRANCH  29  30
ATOM     30  C   UNL     1       7.739   2.715   0.000  0.00  0.00    +0.000 C 
BRANCH  30  31
ATOM     31  C   UNL     1       7.526   3.512   0.000  0.00  0.00    +0.000 C 
ATOM     32  C   UNL     1       6.729   3.726   0.000  0.00  0.00    +0.000 C 
BRANCH  32  33
ATOM     33  C   UNL     1       6.145   3.142   0.000  0.00  0.00    +0.000 C 
BRANCH  33  34
ATOM     34  C   UNL     1       5.348   3.356   0.000  0.00  0.00    +0.000 C 
ATOM     35  C   UNL     1       5.135   4.153   0.000  0.00  0.00    +0.000 C 
BRANCH  35  36
ATOM     36  C   UNL     1       5.718   4.736   0.000  0.00  0.00    +0.000 C 
BRANCH  36  37
ATOM     37  C   UNL     1       5.505   5.533   0.000  0.00  0.00    +0.000 C 
ATOM     38  C   UNL     1       6.088   6.116   0.000  0.00  0.00    +0.000 C 
BRANCH  38  39
ATOM     39  C   UNL     1       6.885   5.903   0.000  0.00  0.00    +0.000 C 
BRANCH  39  40
ATOM     40  C   UNL     1       7.468   6.486   0.000  0.00  0.00    +0.000 C 
ATOM     41  C   UNL     1       7.255   7.283   0.000  0.00  0.00    +0.000 C 
BRANCH  41  42
ATOM     42  C   UNL     1       6.458   7.497   0.000  0.00  0.00    +0.000 C 
ATOM     43  C   UNL     1       6.244   8.294   0.000  0.00  0.00    +0.000 C 
ENDBRANCH  41  42
ENDBRANCH  39  40
ENDBRANCH  38  39
ENDBRANCH  36  37
ENDBRANCH  35  36
ENDBRANCH  33  34
ENDBRANCH  32  33
ENDBRANCH  30  31
ENDBRANCH  29  30
ENDBRANCH  27  28
ENDBRANCH  26  27
ENDBRANCH  24  25
ENDBRANCH  23  24
ENDBRANCH  22  23
ENDBRANCH  20  22
ENDBRANCH   3  20
ENDBRANCH   2   3
BRANCH   2  44
ATOM     44  O   UNL     1       6.260  -2.806   0.000  0.00  0.00    +0.000 OA
BRANCH  44  64
ATOM     45  O   UNL     1       4.247  -7.938   0.000  0.00  0.00    +0.000 OA
ATOM     46  O   UNL     1       5.791  -5.492   0.000  0.00  0.00    +0.000 OA
ATOM     47  O   UNL     1       2.059  -5.746   0.000  0.00  0.00    +0.000 OA
ATOM     48  O   UNL     1       2.367  -4.796   0.000  0.00  0.00    +0.000 OA
ATOM     49  C   UNL     1       4.270  -5.874   0.000  0.00  0.00    +0.000 C 
ATOM     50  C   UNL     1       4.395  -6.724   0.000  0.00  0.00    +0.000 C 
ATOM     51  C   UNL     1       3.508  -5.558   0.000  0.00  0.00    +0.000 C 
ATOM     52  C   UNL     1       3.717  -7.252   0.000  0.00  0.00    +0.000 C 
ATOM     53  C   UNL     1       5.032  -5.558   0.000  0.00  0.00    +0.000 C 
ATOM     54  C   UNL     1       5.348  -4.796   0.000  0.00  0.00    +0.000 C 
ATOM     55  C   UNL     1       2.818  -6.071   0.000  0.00  0.00    +0.000 C 
ATOM     56  C   UNL     1       2.924  -6.923   0.000  0.00  0.00    +0.000 C 
ATOM     57  C   UNL     1       5.032  -4.034   0.000  0.00  0.00    +0.000 C 
ATOM     58  C   UNL     1       4.931  -7.405   0.000  0.00  0.00    +0.000 C 
ATOM     59  C   UNL     1       3.192  -4.796   0.000  0.00  0.00    +0.000 C 
ATOM     60  C   UNL     1       5.903  -4.184   0.000  0.00  0.00    +0.000 C 
ATOM     61  C   UNL     1       4.270  -3.718   0.000  0.00  0.00    +0.000 C 
ATOM     62  C   UNL     1       2.745  -5.242   0.000  0.00  0.00    +0.000 C 
ATOM     63  C   UNL     1       3.508  -4.034   0.000  0.00  0.00    +0.000 C 
ATOM     64  C   UNL     1       5.676  -3.389   0.000  0.00  0.00    +0.000 C 
ATOM     65  C   UNL     1       4.882  -3.162   0.000  0.00  0.00    +0.000 C 
ATOM     66  C   UNL     1       5.949  -3.788   0.000  0.00  0.00    +0.000 C 
ATOM     67  C   UNL     1       5.278  -3.117   0.000  0.00  0.00    +0.000 C 
ATOM     68  C   UNL     1       4.694  -2.359   0.000  0.00  0.00    +0.000 C 
BRANCH  53  69
ATOM     69  O   UNL     1       5.615  -6.141   0.000  0.00  0.00    +0.000 OA
BRANCH  69  71
ATOM     70  O   UNL     1       6.786  -5.322   0.000  0.00  0.00    +0.000 OA
ATOM     71  C   UNL     1       6.437  -6.069   0.000  0.00  0.00    +0.000 C 
BRANCH  71  72
ATOM     72  C   UNL     1       7.113  -6.543   0.000  0.00  0.00    +0.000 A 
ATOM     73  C   UNL     1       7.861  -6.194   0.000  0.00  0.00    +0.000 A 
ATOM     74  C   UNL     1       7.041  -7.364   0.000  0.00  0.00    +0.000 A 
ATOM     75  C   UNL     1       8.537  -6.667   0.000  0.00  0.00    +0.000 A 
ATOM     76  C   UNL     1       7.717  -7.838   0.000  0.00  0.00    +0.000 A 
ATOM     77  C   UNL     1       8.465  -7.489   0.000  0.00  0.00    +0.000 A 
ENDBRANCH  71  72
ENDBRANCH  69  71
ENDBRANCH  53  69
BRANCH  50  78
ATOM     78  O   UNL     1       5.202  -6.896   0.000  0.00  0.00    +0.000 OA
BRANCH  78  80
ATOM     79  O   UNL     1       6.155  -8.119   0.000  0.00  0.00    +0.000 OA
ATOM     80  C   UNL     1       5.456  -7.681   0.000  0.00  0.00    +0.000 C 
ATOM     81  C   UNL     1       4.903  -8.294   0.000  0.00  0.00    +0.000 C 
ENDBRANCH  78  80
ENDBRANCH  50  78
BRANCH  63  82
ATOM     82  O   UNL     1       2.924  -3.450   0.000  0.00  0.00    +0.000 OA
BRANCH  82  84
ATOM     83  O   UNL     1       3.935  -2.440   0.000  0.00  0.00    +0.000 OA
ATOM     84  C   UNL     1       3.138  -2.653   0.000  0.00  0.00    +0.000 C 
ATOM     85  C   UNL     1       2.554  -2.070   0.000  0.00  0.00    +0.000 C 
ENDBRANCH  82  84
ENDBRANCH  63  82
ENDBRANCH  44  64
ENDBRANCH   2  44
TORSDOF 30
