REMARK  Name = 
REMARK  3 active torsions:
REMARK  status: ('A' for Active; 'I' for Inactive)
REMARK    1  A    between atoms: C_9  and  C_11
REMARK    2  A    between atoms: C_11  and  C_12
REMARK    3  A    between atoms: C_11  and  C_18
REMARK                            x       y       z     vdW  Elec       q    Type
REMARK                         _______ _______ _______ _____ _____    ______ ____
ROOT
ATOM      1  C   UNL     1      -3.153   0.678   0.000  0.00  0.00    +0.000 A 
ATOM      2  C   UNL     1      -3.867   0.265   0.000  0.00  0.00    +0.000 A 
ATOM      3  C   UNL     1      -3.867  -0.560   0.000  0.00  0.00    +0.000 A 
ATOM      4  C   UNL     1      -3.153  -0.972   0.000  0.00  0.00    +0.000 A 
ATOM      5  C   UNL     1      -2.438  -0.560   0.000  0.00  0.00    +0.000 A 
ATOM      6  C   UNL     1      -2.438   0.265   0.000  0.00  0.00    +0.000 A 
ATOM      7  O   UNL     1      -1.724   0.678   0.000  0.00  0.00    +0.000 OA
ATOM      8  C   UNL     1      -1.724  -0.972   0.000  0.00  0.00    +0.000 A 
ATOM      9  C   UNL     1      -1.009  -0.560   0.000  0.00  0.00    +0.000 A 
ATOM     10  C   UNL     1      -1.009   0.265   0.000  0.00  0.00    +0.000 A 
ATOM     11  O   UNL     1      -1.724  -1.797   0.000  0.00  0.00    +0.000 OA
ATOM     12  O   UNL     1      -0.295   0.678   0.000  0.00  0.00    +0.000 OA
ENDROOT
BRANCH   9  13
ATOM     13  C   UNL     1      -0.295  -0.972   0.000  0.00  0.00    +0.000 C 
BRANCH  13  14
ATOM     14  C   UNL     1       0.420  -0.560   0.000  0.00  0.00    +0.000 A 
ATOM     15  C   UNL     1       1.134   0.678   0.000  0.00  0.00    +0.000 A 
ATOM     16  C   UNL     1       0.420   0.265   0.000  0.00  0.00    +0.000 A 
ATOM     17  C   UNL     1       1.134  -0.972   0.000  0.00  0.00    +0.000 A 
ATOM     18  C   UNL     1       1.849  -0.560   0.000  0.00  0.00    +0.000 A 
ATOM     19  C   UNL     1       1.849   0.265   0.000  0.00  0.00    +0.000 A 
ENDBRANCH  13  14
BRANCH  13  20
ATOM     20  C   UNL     1      -0.295  -1.797   0.000  0.00  0.00    +0.000 C 
ATOM     21  C   UNL     1       0.420  -2.210   0.000  0.00  0.00    +0.000 C 
ENDBRANCH  13  20
ENDBRANCH   9  13
TORSDOF 3
