REMARK  Name = 
REMARK  4 active torsions:
REMARK  status: ('A' for Active; 'I' for Inactive)
REMARK    1  A    between atoms: CA_2  and  C_3
REMARK    2  A    between atoms: CA_2  and  C_19
REMARK    3  A    between atoms: N_5  and  CA_6
REMARK    4  A    between atoms: CA_12  and  C_16
REMARK                            x       y       z     vdW  Elec       q    Type
REMARK                         _______ _______ _______ _____ _____    ______ ____
ROOT
ATOM      1  CA  UNL     1       0.866  -0.151   0.000  0.00  0.00    +0.000 C 
ATOM      2  C   UNL     1       1.690  -0.151   0.000  0.00  0.00    +0.000 C 
ATOM      3  C   UNL     1       2.405   0.262   0.000  0.00  0.00    +0.000 C 
ATOM      4  C   UNL     1       3.119  -0.151   0.000  0.00  0.00    +0.000 C 
ATOM      5  C   UNL     1       3.119  -0.976   0.000  0.00  0.00    +0.000 C 
ATOM      6 CL   UNL     1       3.834  -1.389   0.000  0.00  0.00    +0.000 Cl
ATOM      7  CA  UNL     1       2.405  -1.389   0.000  0.00  0.00    +0.000 C 
ATOM      8  N   UNL     1       1.690  -0.976   0.000  0.00  0.00    +0.000 N 
ATOM      9  C   UNL     1       0.866  -0.976   0.000  0.00  0.00    +0.000 C 
ATOM     10  O   UNL     1       0.282  -1.559   0.000  0.00  0.00    +0.000 OA
ENDROOT
BRANCH   1  13
ATOM     11  C   UNL     1       0.496   1.229   0.000  0.00  0.00    +0.000 C 
ATOM     12  O   UNL     1       1.292   1.443   0.000  0.00  0.00    +0.000 OA
ATOM     13  N   UNL     1       0.282   0.432   0.000  0.00  0.00    +0.000 NA
BRANCH  11  15
ATOM     14  N   UNL     1      -0.885   1.599   0.000  0.00  0.00    +0.000 NA
ATOM     15  CA  UNL     1      -0.088   1.813   0.000  0.00  0.00    +0.000 C 
BRANCH  15  16
ATOM     16  C   UNL     1       0.126   2.610   0.000  0.00  0.00    +0.000 A 
ATOM     17  C   UNL     1      -0.458   3.193   0.000  0.00  0.00    +0.000 A 
ATOM     18  C   UNL     1      -0.244   3.990   0.000  0.00  0.00    +0.000 A 
ATOM     19  C   UNL     1       0.553   4.203   0.000  0.00  0.00    +0.000 A 
ATOM     20  C   UNL     1       1.136   3.620   0.000  0.00  0.00    +0.000 A 
ATOM     21  C   UNL     1       0.923   2.823   0.000  0.00  0.00    +0.000 A 
ENDBRANCH  15  16
ENDBRANCH  11  15
ENDBRANCH   1  13
BRANCH   7  22
ATOM     22  C   UNL     1       2.405  -2.213   0.000  0.00  0.00    +0.000 C 
ATOM     23  O   UNL     1       1.690  -2.626   0.000  0.00  0.00    +0.000 OA
ATOM     24  OXT UNL     1       3.119  -2.626   0.000  0.00  0.00    +0.000 OA
ENDBRANCH   7  22
TORSDOF 4
