REMARK  Name = 
REMARK  0 active torsions:
REMARK  status: ('A' for Active; 'I' for Inactive)
REMARK                            x       y       z     vdW  Elec       q    Type
REMARK                         _______ _______ _______ _____ _____    ______ ____
ROOT
ATOM      1  K   UNL     1       1.938  -2.640   0.000  0.00  0.00    +0.000 K 
ENDROOT
TORSDOF 0
REMARK  Name = 
REMARK  0 active torsions:
REMARK  status: ('A' for Active; 'I' for Inactive)
REMARK                            x       y       z     vdW  Elec       q    Type
REMARK                         _______ _______ _______ _____ _____    ______ ____
ROOT
ATOM      1  O   UNL     1      -1.113   0.990   0.000  0.00  0.00    +0.000 OA
ATOM      2  P   UNL     1      -1.113   1.815   0.000  0.00  0.00    +0.000 P 
ATOM      3  O   UNL     1      -1.938   1.815   0.000  0.00  0.00    +0.000 OA
ATOM      4  O   UNL     1      -0.289   1.815   0.000  0.00  0.00    +0.000 OA
ATOM      5  O   UNL     1      -1.113   2.640   0.000  0.00  0.00    +0.000 OA
ENDROOT
TORSDOF 0
