REMARK  Name = 
REMARK  4 active torsions:
REMARK  status: ('A' for Active; 'I' for Inactive)
REMARK    1  A    between atoms: C_2  and  C_5
REMARK    2  A    between atoms: C_3  and  C_5
REMARK    3  A    between atoms: C_3  and  C_6
REMARK    4  A    between atoms: C_5  and  C_11
REMARK                            x       y       z     vdW  Elec       q    Type
REMARK                         _______ _______ _______ _____ _____    ______ ____
ROOT
ATOM      1  C   UNL     1       1.429   0.825   0.000  0.00  0.00    +0.000 A 
ATOM      2  C   UNL     1       0.000   0.825   0.000  0.00  0.00    +0.000 A 
ATOM      3  C   UNL     1       0.714   1.238   0.000  0.00  0.00    +0.000 A 
ATOM      4  C   UNL     1       1.429   0.000   0.000  0.00  0.00    +0.000 A 
ATOM      5  C   UNL     1       0.000   0.000   0.000  0.00  0.00    +0.000 A 
ATOM      6  C   UNL     1       0.714  -0.412   0.000  0.00  0.00    +0.000 A 
ATOM      7  I   UNL     1       0.714   2.062   0.000  0.00  0.00    +0.000 I 
ATOM      8  I   UNL     1       2.143  -0.412   0.000  0.00  0.00    +0.000 I 
ATOM      9  I   UNL     1      -0.714  -0.412   0.000  0.00  0.00    +0.000 I 
ATOM     10  N   UNL     1       0.714  -1.238   0.000  0.00  0.00    +0.000 NA
ENDROOT
BRANCH   2  11
ATOM     11  C   UNL     1      -0.714   1.238   0.000  0.00  0.00    +0.000 C 
BRANCH  11  12
ATOM     12  C   UNL     1      -1.429   0.825   0.000  0.00  0.00    +0.000 C 
BRANCH  12  13
ATOM     13  C   UNL     1      -2.143   1.238   0.000  0.00  0.00    +0.000 C 
ATOM     14  O   UNL     1      -2.143   2.062   0.000  0.00  0.00    +0.000 OA
ATOM     15  O   UNL     1      -2.858   0.825   0.000  0.00  0.00    +0.000 OA
ENDBRANCH  12  13
BRANCH  12  17
ATOM     16  C   UNL     1      -2.143  -0.412   0.000  0.00  0.00    +0.000 C 
ATOM     17  C   UNL     1      -1.429   0.000   0.000  0.00  0.00    +0.000 C 
ENDBRANCH  12  17
ENDBRANCH  11  12
ENDBRANCH   2  11
TORSDOF 4
