REMARK  Name = 
REMARK  0 active torsions:
REMARK  status: ('A' for Active; 'I' for Inactive)
REMARK                            x       y       z     vdW  Elec       q    Type
REMARK                         _______ _______ _______ _____ _____    ______ ____
ROOT
ATOM      1 CL   UNL     1       5.845  -6.812   0.000  0.00  0.00    +0.000 Cl
ATOM      2  O   UNL     1       6.670  -6.812   0.000  0.00  0.00    +0.000 OA
ENDROOT
TORSDOF 0
