REMARK  Name = 
REMARK  6 active torsions:
REMARK  status: ('A' for Active; 'I' for Inactive)
REMARK    1  A    between atoms: C_19  and  O_39
REMARK    2  A    between atoms: C_20  and  C_27
REMARK    3  A    between atoms: C_21  and  C_28
REMARK    4  A    between atoms: C_24  and  O_38
REMARK    5  A    between atoms: C_25  and  C_29
REMARK    6  A    between atoms: C_26  and  O_39
REMARK                            x       y       z     vdW  Elec       q    Type
REMARK                         _______ _______ _______ _____ _____    ______ ____
ROOT
ATOM      1  C   UNL     1       3.325   0.699   0.000  0.00  0.00    +0.000 C 
ATOM      2  C   UNL     1       4.723   0.401   0.000  0.00  0.00    +0.000 C 
ATOM      3  C   UNL     1       3.154  -0.108   0.000  0.00  0.00    +0.000 C 
ATOM      4  C   UNL     1       4.552  -0.406   0.000  0.00  0.00    +0.000 C 
ATOM      5  C   UNL     1       1.476  -1.722   0.000  0.00  0.00    +0.000 C 
ATOM      6  C   UNL     1       2.143  -1.238   0.000  0.00  0.00    +0.000 C 
ATOM      7  C   UNL     1       2.556  -2.507   0.000  0.00  0.00    +0.000 C 
ATOM      8  C   UNL     1       3.595  -1.468   0.000  0.00  0.00    +0.000 C 
ATOM      9  N   UNL     1       4.110   0.953   0.000  0.00  0.00    +0.000 NA
ATOM     10  N   UNL     1       1.731  -2.507   0.000  0.00  0.00    +0.000 NA
ATOM     11  N   UNL     1       3.767  -0.660   0.000  0.00  0.00    +0.000 N 
ATOM     12  N   UNL     1       2.811  -1.722   0.000  0.00  0.00    +0.000 N 
ATOM     13  O   UNL     1       4.209  -2.019   0.000  0.00  0.00    +0.000 OA
ENDROOT
BRANCH   6  18
ATOM     14  C   UNL     1       2.858   0.000   0.000  0.00  0.00    +0.000 A 
ATOM     15  C   UNL     1       1.429   0.000   0.000  0.00  0.00    +0.000 A 
ATOM     16  C   UNL     1       2.858   0.825   0.000  0.00  0.00    +0.000 A 
ATOM     17  C   UNL     1       1.429   0.825   0.000  0.00  0.00    +0.000 A 
ATOM     18  C   UNL     1       2.143  -0.412   0.000  0.00  0.00    +0.000 A 
ATOM     19  C   UNL     1       2.143   1.238   0.000  0.00  0.00    +0.000 A 
ATOM     20 CL   UNL     1       2.143   2.062   0.000  0.00  0.00    +0.000 Cl
ENDBRANCH   6  18
BRANCH   5  25
ATOM     21  C   UNL     1       0.520  -0.660   0.000  0.00  0.00    +0.000 A 
ATOM     22  C   UNL     1       0.078  -2.019   0.000  0.00  0.00    +0.000 A 
ATOM     23  C   UNL     1      -0.265  -0.406   0.000  0.00  0.00    +0.000 A 
ATOM     24  C   UNL     1      -0.706  -1.765   0.000  0.00  0.00    +0.000 A 
ATOM     25  C   UNL     1       0.691  -1.468   0.000  0.00  0.00    +0.000 A 
ATOM     26  C   UNL     1      -0.878  -0.958   0.000  0.00  0.00    +0.000 A 
ATOM     27 CL   UNL     1      -1.663  -0.703   0.000  0.00  0.00    +0.000 Cl
ENDBRANCH   5  25
BRANCH   7  32
ATOM     28  C   UNL     1       4.346  -3.756   0.000  0.00  0.00    +0.000 A 
ATOM     29  C   UNL     1       3.861  -3.088   0.000  0.00  0.00    +0.000 A 
ATOM     30  C   UNL     1       3.190  -4.596   0.000  0.00  0.00    +0.000 A 
ATOM     31  C   UNL     1       4.011  -4.509   0.000  0.00  0.00    +0.000 A 
ATOM     32  C   UNL     1       3.041  -3.175   0.000  0.00  0.00    +0.000 A 
ATOM     33  C   UNL     1       2.705  -3.928   0.000  0.00  0.00    +0.000 A 
BRANCH  31  35
ATOM     34  C   UNL     1       4.160  -5.931   0.000  0.00  0.00    +0.000 C 
ATOM     35  O   UNL     1       4.496  -5.177   0.000  0.00  0.00    +0.000 OA
ENDBRANCH  31  35
BRANCH  33  36
ATOM     36  O   UNL     1       1.885  -4.014   0.000  0.00  0.00    +0.000 OA
BRANCH  36  39
ATOM     37  C   UNL     1       0.729  -4.854   0.000  0.00  0.00    +0.000 C 
ATOM     38  C   UNL     1       2.034  -5.436   0.000  0.00  0.00    +0.000 C 
ATOM     39  C   UNL     1       1.549  -4.768   0.000  0.00  0.00    +0.000 C 
ENDBRANCH  36  39
ENDBRANCH  33  36
ENDBRANCH   7  32
TORSDOF 6
