REMARK  Name = 
REMARK  3 active torsions:
REMARK  status: ('A' for Active; 'I' for Inactive)
REMARK    1  A    between atoms: C_2  and  C_17
REMARK    2  A    between atoms: N_3  and  C_4
REMARK    3  A    between atoms: C_5  and  C_10
REMARK                            x       y       z     vdW  Elec       q    Type
REMARK                         _______ _______ _______ _____ _____    ______ ____
ROOT
ATOM      1  C   UNL     1       1.429  -2.475   0.000  0.00  0.00    +0.000 A 
ATOM      2  C   UNL     1       2.143  -2.888   0.000  0.00  0.00    +0.000 A 
ATOM      3  C   UNL     1       2.143  -3.712   0.000  0.00  0.00    +0.000 A 
ATOM      4  C   UNL     1       1.429  -4.125   0.000  0.00  0.00    +0.000 A 
ATOM      5  C   UNL     1       0.715  -3.712   0.000  0.00  0.00    +0.000 A 
ATOM      6  C   UNL     1       0.715  -2.888   0.000  0.00  0.00    +0.000 A 
ENDROOT
BRANCH   2   7
ATOM      7  C   UNL     1       2.858  -2.475   0.000  0.00  0.00    +0.000 A 
ATOM      8  C   UNL     1       2.858  -1.650   0.000  0.00  0.00    +0.000 A 
ATOM      9  C   UNL     1       3.572  -1.238   0.000  0.00  0.00    +0.000 A 
ATOM     10  C   UNL     1       4.287  -1.650   0.000  0.00  0.00    +0.000 A 
ATOM     11 CL   UNL     1       5.001  -1.238   0.000  0.00  0.00    +0.000 Cl
ATOM     12  C   UNL     1       4.287  -2.475   0.000  0.00  0.00    +0.000 A 
ATOM     13  C   UNL     1       3.572  -2.888   0.000  0.00  0.00    +0.000 A 
ENDBRANCH   2   7
BRANCH   1  16
ATOM     14  O   UNL     1       0.000  -1.650   0.000  0.00  0.00    +0.000 OA
ATOM     15  C   UNL     1       0.715  -1.238   0.000  0.00  0.00    +0.000 C 
ATOM     16  N   UNL     1       1.429  -1.650   0.000  0.00  0.00    +0.000 NA
BRANCH  15  17
ATOM     17  C   UNL     1       0.715  -0.412   0.000  0.00  0.00    +0.000 A 
ATOM     18  C   UNL     1       0.000   0.000   0.000  0.00  0.00    +0.000 A 
ATOM     19 CL   UNL     1      -0.715  -0.412   0.000  0.00  0.00    +0.000 Cl
ATOM     20  N   UNL     1       0.000   0.825   0.000  0.00  0.00    +0.000 NA
ATOM     21  C   UNL     1       0.715   1.238   0.000  0.00  0.00    +0.000 A 
ATOM     22  C   UNL     1       1.429   0.825   0.000  0.00  0.00    +0.000 A 
ATOM     23  C   UNL     1       1.429   0.000   0.000  0.00  0.00    +0.000 A 
ENDBRANCH  15  17
ENDBRANCH   1  16
TORSDOF 3
