REMARK  Name = 
REMARK  18 active torsions:
REMARK  status: ('A' for Active; 'I' for Inactive)
REMARK    1  A    between atoms: C_2  and  C_4
REMARK    2  A    between atoms: C_4  and  C_5
REMARK    3  A    between atoms: C_5  and  N_6
REMARK    4  A    between atoms: C_5  and  C_27
REMARK    5  A    between atoms: C_7  and  C_9
REMARK    6  A    between atoms: C_9  and  N_10
REMARK    7  A    between atoms: C_9  and  C_24
REMARK    8  A    between atoms: C_11  and  C_13
REMARK    9  A    between atoms: C_13  and  N_15
REMARK   10  A    between atoms: C_16  and  C_18
REMARK   11  A    between atoms: N_29  and  C_30
REMARK   12  A    between atoms: C_30  and  C_31
REMARK   13  A    between atoms: C_30  and  C_38
REMARK   14  A    between atoms: C_31  and  C_32
REMARK   15  A    between atoms: C_39  and  C_40
REMARK   16  A    between atoms: C_40  and  O_42
REMARK   17  A    between atoms: O_42  and  C_43
REMARK   18  A    between atoms: C_43  and  C_44
REMARK                            x       y       z     vdW  Elec       q    Type
REMARK                         _______ _______ _______ _____ _____    ______ ____
ROOT
ATOM      1  C   UNL     1      12.076 -10.248   0.000  0.00  0.00    +0.000 C 
ENDROOT
BRANCH   1   2
ATOM      2  N   UNL     1      11.435 -10.767   0.000  0.00  0.00    +0.000 NA
ATOM      3  C   UNL     1      10.665 -10.471   0.000  0.00  0.00    +0.000 C 
ATOM      4  O   UNL     1      10.537  -9.656   0.000  0.00  0.00    +0.000 OA
BRANCH   3   5
ATOM      5  C   UNL     1      10.023 -10.989   0.000  0.00  0.00    +0.000 C 
BRANCH   5   6
ATOM      6  C   UNL     1      10.152 -11.804   0.000  0.00  0.00    +0.000 C 
ATOM      7  C   UNL     1       9.510 -12.323   0.000  0.00  0.00    +0.000 C 
ATOM      8  C   UNL     1      10.921 -12.101   0.000  0.00  0.00    +0.000 C 
ENDBRANCH   5   6
BRANCH   5   9
ATOM      9  N   UNL     1       9.253 -10.693   0.000  0.00  0.00    +0.000 NA
ATOM     10  C   UNL     1       8.612 -11.212   0.000  0.00  0.00    +0.000 C 
ATOM     11  O   UNL     1       8.740 -12.027   0.000  0.00  0.00    +0.000 OA
BRANCH  10  12
ATOM     12  C   UNL     1       7.842 -10.915   0.000  0.00  0.00    +0.000 C 
ATOM     13  C   UNL     1       7.713 -10.100   0.000  0.00  0.00    +0.000 C 
BRANCH  12  14
ATOM     14  N   UNL     1       7.200 -11.434   0.000  0.00  0.00    +0.000 NA
ATOM     15  C   UNL     1       6.430 -11.137   0.000  0.00  0.00    +0.000 C 
ATOM     16  O   UNL     1       5.789 -11.656   0.000  0.00  0.00    +0.000 OA
BRANCH  15  17
ATOM     17  C   UNL     1       6.302 -10.322   0.000  0.00  0.00    +0.000 A 
ATOM     18  N   UNL     1       5.567  -9.947   0.000  0.00  0.00    +0.000 NA
ATOM     19  O   UNL     1       5.697  -9.133   0.000  0.00  0.00    +0.000 OA
ATOM     20  C   UNL     1       6.512  -9.004   0.000  0.00  0.00    +0.000 A 
ATOM     21  C   UNL     1       6.887  -8.270   0.000  0.00  0.00    +0.000 C 
ATOM     22  C   UNL     1       6.886  -9.740   0.000  0.00  0.00    +0.000 A 
ENDBRANCH  15  17
ENDBRANCH  12  14
ENDBRANCH  10  12
ENDBRANCH   5   9
ENDBRANCH   3   5
ENDBRANCH   1   2
BRANCH   1  23
ATOM     23  C   UNL     1      12.846 -10.545   0.000  0.00  0.00    +0.000 C 
ATOM     24  O   UNL     1      12.975 -11.360   0.000  0.00  0.00    +0.000 OA
ATOM     25  N   UNL     1      13.488 -10.026   0.000  0.00  0.00    +0.000 NA
BRANCH  25  26
ATOM     26  C   UNL     1      14.258 -10.322   0.000  0.00  0.00    +0.000 C 
BRANCH  26  27
ATOM     27  C   UNL     1      14.899  -9.804   0.000  0.00  0.00    +0.000 C 
ATOM     28  C   UNL     1      15.669 -10.100   0.000  0.00  0.00    +0.000 C 
BRANCH  28  29
ATOM     29  C   UNL     1      16.311  -9.582   0.000  0.00  0.00    +0.000 C 
ATOM     30  O   UNL     1      16.183  -8.767   0.000  0.00  0.00    +0.000 OA
BRANCH  29  31
ATOM     31  O   UNL     1      17.081  -9.878   0.000  0.00  0.00    +0.000 OA
BRANCH  31  32
ATOM     32  C   UNL     1      17.723  -9.359   0.000  0.00  0.00    +0.000 C 
BRANCH  32  33
ATOM     33  C   UNL     1      18.493  -9.656   0.000  0.00  0.00    +0.000 A 
ATOM     34  C   UNL     1      19.134  -9.137   0.000  0.00  0.00    +0.000 A 
ATOM     35  C   UNL     1      19.904  -9.434   0.000  0.00  0.00    +0.000 A 
ATOM     36  C   UNL     1      20.032 -10.248   0.000  0.00  0.00    +0.000 A 
ATOM     37  C   UNL     1      19.391 -10.767   0.000  0.00  0.00    +0.000 A 
ATOM     38  C   UNL     1      18.621 -10.471   0.000  0.00  0.00    +0.000 A 
ENDBRANCH  32  33
ENDBRANCH  31  32
ENDBRANCH  29  31
ENDBRANCH  28  29
ENDBRANCH  26  27
BRANCH  26  39
ATOM     39  C   UNL     1      14.386 -11.137   0.000  0.00  0.00    +0.000 C 
BRANCH  39  40
ATOM     40  C   UNL     1      15.156 -11.434   0.000  0.00  0.00    +0.000 C 
ATOM     41  C   UNL     1      15.848 -10.985   0.000  0.00  0.00    +0.000 C 
ATOM     42  C   UNL     1      16.489 -11.505   0.000  0.00  0.00    +0.000 C 
ATOM     43  N   UNL     1      16.193 -12.275   0.000  0.00  0.00    +0.000 NA
ATOM     44  C   UNL     1      15.369 -12.231   0.000  0.00  0.00    +0.000 C 
ATOM     45  O   UNL     1      14.849 -12.872   0.000  0.00  0.00    +0.000 OA
ENDBRANCH  39  40
ENDBRANCH  26  39
ENDBRANCH  25  26
ENDBRANCH   1  23
BRANCH   1  46
ATOM     46  C   UNL     1      11.948  -9.434   0.000  0.00  0.00    +0.000 C 
BRANCH  46  48
ATOM     47  C   UNL     1      13.360  -9.211   0.000  0.00  0.00    +0.000 C 
ATOM     48  C   UNL     1      12.590  -8.915   0.000  0.00  0.00    +0.000 C 
ATOM     49  C   UNL     1      12.461  -8.100   0.000  0.00  0.00    +0.000 C 
ENDBRANCH  46  48
ENDBRANCH   1  46
TORSDOF 18
