REMARK  Name = 
REMARK  5 active torsions:
REMARK  status: ('A' for Active; 'I' for Inactive)
REMARK    1  A    between atoms: C_5  and  N_7
REMARK    2  A    between atoms: C_5  and  S_11
REMARK    3  A    between atoms: C_6  and  N_8
REMARK    4  A    between atoms: C_6  and  S_12
REMARK    5  A    between atoms: S_11  and  S_12
REMARK                            x       y       z     vdW  Elec       q    Type
REMARK                         _______ _______ _______ _____ _____    ______ ____
ROOT
ATOM      1  S   UNL     1       1.952   1.127   0.000  0.00  0.00    +0.000 S 
ENDROOT
BRANCH   1   2
ATOM      2  C   UNL     1       1.238   0.715   0.000  0.00  0.00    +0.000 C 
ATOM      3  S   UNL     1       1.238  -0.111   0.000  0.00  0.00    +0.000 S 
BRANCH   2   6
ATOM      4  C   UNL     1      -0.191   0.715   0.000  0.00  0.00    +0.000 C 
ATOM      5  C   UNL     1       0.523   1.952   0.000  0.00  0.00    +0.000 C 
ATOM      6  N   UNL     1       0.523   1.127   0.000  0.00  0.00    +0.000 N 
ENDBRANCH   2   6
ENDBRANCH   1   2
BRANCH   1   7
ATOM      7  S   UNL     1       2.666   0.715   0.000  0.00  0.00    +0.000 S 
BRANCH   7   8
ATOM      8  C   UNL     1       3.381   1.127   0.000  0.00  0.00    +0.000 C 
ATOM      9  S   UNL     1       3.381   1.952   0.000  0.00  0.00    +0.000 S 
BRANCH   8  12
ATOM     10  C   UNL     1       4.810   1.127   0.000  0.00  0.00    +0.000 C 
ATOM     11  C   UNL     1       4.095  -0.111   0.000  0.00  0.00    +0.000 C 
ATOM     12  N   UNL     1       4.095   0.715   0.000  0.00  0.00    +0.000 N 
ENDBRANCH   8  12
ENDBRANCH   7   8
ENDBRANCH   1   7
TORSDOF 5
