REMARK  Name = 
REMARK  3 active torsions:
REMARK  status: ('A' for Active; 'I' for Inactive)
REMARK    1  A    between atoms: C_13  and  O_21
REMARK    2  A    between atoms: C_15  and  C_17
REMARK    3  A    between atoms: C_17  and  O_21
REMARK                            x       y       z     vdW  Elec       q    Type
REMARK                         _______ _______ _______ _____ _____    ______ ____
ROOT
ATOM      1  C   UNL     1       0.334   2.658   0.000  0.00  0.00    +0.000 C 
ATOM      2  O   UNL     1      -0.473   2.486   0.000  0.00  0.00    +0.000 OA
ENDROOT
BRANCH   1   9
ATOM      3  C   UNL     1       0.000   0.000   0.000  0.00  0.00    +0.000 A 
ATOM      4  C   UNL     1       0.715  -0.412   0.000  0.00  0.00    +0.000 A 
ATOM      5  C   UNL     1       0.000   0.825   0.000  0.00  0.00    +0.000 A 
ATOM      6  C   UNL     1       1.429   0.000   0.000  0.00  0.00    +0.000 A 
ATOM      7  C   UNL     1       1.706   2.131   0.000  0.00  0.00    +0.000 A 
ATOM      8  C   UNL     1       0.715   1.238   0.000  0.00  0.00    +0.000 A 
ATOM      9  C   UNL     1       0.886   2.045   0.000  0.00  0.00    +0.000 A 
ATOM     10  C   UNL     1       1.429   0.825   0.000  0.00  0.00    +0.000 A 
ATOM     11  N   UNL     1       2.042   1.377   0.000  0.00  0.00    +0.000 NA
ENDBRANCH   1   9
BRANCH   1  12
ATOM     12  O   UNL     1       0.589   3.442   0.000  0.00  0.00    +0.000 OA
BRANCH  12  20
ATOM     13  C   UNL     1      -2.376   5.534   0.000  0.00  0.00    +0.000 C 
ATOM     14  C   UNL     1      -1.339   3.857   0.000  0.00  0.00    +0.000 C 
ATOM     15  C   UNL     1      -1.867   3.359   0.000  0.00  0.00    +0.000 C 
ATOM     16  C   UNL     1      -0.269   4.826   0.000  0.00  0.00    +0.000 C 
ATOM     17  C   UNL     1      -0.557   4.367   0.000  0.00  0.00    +0.000 C 
ATOM     18  C   UNL     1      -1.174   4.617   0.000  0.00  0.00    +0.000 C 
ATOM     19  C   UNL     1      -1.508   4.164   0.000  0.00  0.00    +0.000 C 
ATOM     20  C   UNL     1       0.037   4.055   0.000  0.00  0.00    +0.000 C 
ATOM     21  N   UNL     1      -1.814   4.930   0.000  0.00  0.00    +0.000 NA
ENDBRANCH  12  20
ENDBRANCH   1  12
TORSDOF 3
