REMARK  Name = 
REMARK  4 active torsions:
REMARK  status: ('A' for Active; 'I' for Inactive)
REMARK    1  A    between atoms: C_2  and  O_10
REMARK    2  A    between atoms: C_9  and  O_10
REMARK    3  A    between atoms: C_9  and  C_13
REMARK    4  A    between atoms: C_9  and  C_14
REMARK                            x       y       z     vdW  Elec       q    Type
REMARK                         _______ _______ _______ _____ _____    ______ ____
ROOT
ATOM      1  C   UNL     1       6.870  -7.536   0.000  0.00  0.00    +0.000 C 
ENDROOT
BRANCH   1   2
ATOM      2  C   UNL     1       7.569  -7.098   0.000  0.00  0.00    +0.000 A 
ATOM      3  C   UNL     1       8.297  -7.487   0.000  0.00  0.00    +0.000 A 
ATOM      4  C   UNL     1       8.995  -7.049   0.000  0.00  0.00    +0.000 A 
ATOM      5  C   UNL     1       8.965  -6.223   0.000  0.00  0.00    +0.000 A 
ATOM      6  C   UNL     1       8.231  -5.838   0.000  0.00  0.00    +0.000 A 
ATOM      7  C   UNL     1       7.536  -6.278   0.000  0.00  0.00    +0.000 A 
ENDBRANCH   1   2
BRANCH   1   8
ATOM      8  C   UNL     1       6.900  -8.361   0.000  0.00  0.00    +0.000 A 
ATOM      9  C   UNL     1       6.202  -8.796   0.000  0.00  0.00    +0.000 A 
ATOM     10  C   UNL     1       6.232  -9.620   0.000  0.00  0.00    +0.000 A 
ATOM     11  C   UNL     1       6.962 -10.007   0.000  0.00  0.00    +0.000 A 
ATOM     12  C   UNL     1       7.663  -9.563   0.000  0.00  0.00    +0.000 A 
ATOM     13  C   UNL     1       7.629  -8.741   0.000  0.00  0.00    +0.000 A 
ENDBRANCH   1   8
BRANCH   1  14
ATOM     14  O   UNL     1       6.160  -7.161   0.000  0.00  0.00    +0.000 OA
BRANCH  14  16
ATOM     15  C   UNL     1       5.093  -5.551   0.000  0.00  0.00    +0.000 C 
ATOM     16  C   UNL     1       6.182  -6.370   0.000  0.00  0.00    +0.000 C 
ATOM     17  C   UNL     1       5.660  -5.935   0.000  0.00  0.00    +0.000 C 
ATOM     18  C   UNL     1       4.666  -5.935   0.000  0.00  0.00    +0.000 C 
ATOM     19  N   UNL     1       4.521  -5.106   0.000  0.00  0.00    +0.000 NA
ATOM     20  C   UNL     1       5.960  -5.570   0.000  0.00  0.00    +0.000 C 
ATOM     21  C   UNL     1       4.135  -6.659   0.000  0.00  0.00    +0.000 C 
ATOM     22  C   UNL     1       4.767  -6.276   0.000  0.00  0.00    +0.000 C 
ATOM     23  C   UNL     1       4.097  -4.398   0.000  0.00  0.00    +0.000 C 
ENDBRANCH  14  16
ENDBRANCH   1  14
TORSDOF 4
