REMARK  Name = 
REMARK  8 active torsions:
REMARK  status: ('A' for Active; 'I' for Inactive)
REMARK    1  A    between atoms: C_1  and  C_4
REMARK    2  A    between atoms: C_2  and  C_4
REMARK    3  A    between atoms: C_2  and  O_14
REMARK    4  A    between atoms: C_3  and  C_5
REMARK    5  A    between atoms: C_3  and  O_15
REMARK    6  A    between atoms: C_5  and  C_6
REMARK    7  A    between atoms: O_14  and  P_16
REMARK    8  A    between atoms: O_15  and  P_16
REMARK                            x       y       z     vdW  Elec       q    Type
REMARK                         _______ _______ _______ _____ _____    ______ ____
ROOT
ATOM      1  O   UNK     1       0.000  -0.825   0.000  0.00  0.00    +0.000 OA
ATOM      2  O   UNK     1       0.000   0.825   0.000  0.00  0.00    +0.000 OA
ATOM      3  P   UNK     1       0.000   0.000   0.000  0.00  0.00    +0.000 P 
ENDROOT
BRANCH   3   4
ATOM      4  O   UNK     1      -0.825   0.000   0.000  0.00  0.00    +0.000 OA
BRANCH   4   5
ATOM      5  C   UNK     1      -1.238   0.715   0.000  0.00  0.00    +0.000 C 
BRANCH   5   6
ATOM      6  C   UNK     1      -2.062   0.715   0.000  0.00  0.00    +0.000 C 
ATOM      7  O   UNK     1      -2.475   0.000   0.000  0.00  0.00    +0.000 OA
BRANCH   6   8
ATOM      8  C   UNK     1      -2.475   1.429   0.000  0.00  0.00    +0.000 C 
ATOM      9  O   UNK     1      -3.300   1.429   0.000  0.00  0.00    +0.000 OA
ENDBRANCH   6   8
ENDBRANCH   5   6
ENDBRANCH   4   5
ENDBRANCH   3   4
BRANCH   3  10
ATOM     10  O   UNK     1       0.825   0.000   0.000  0.00  0.00    +0.000 OA
BRANCH  10  11
ATOM     11  C   UNK     1       1.238  -0.715   0.000  0.00  0.00    +0.000 C 
BRANCH  11  12
ATOM     12  C   UNK     1       2.062  -0.715   0.000  0.00  0.00    +0.000 C 
ATOM     13  N   UNK     1       2.475   0.000   0.000  0.00  0.00    +0.000 NA
BRANCH  12  14
ATOM     14  C   UNK     1       2.475  -1.429   0.000  0.00  0.00    +0.000 C 
ATOM     15  O   UNK     1       3.300  -1.429   0.000  0.00  0.00    +0.000 OA
ATOM     16  O   UNK     1       2.062  -2.143   0.000  0.00  0.00    +0.000 OA
ENDBRANCH  12  14
ENDBRANCH  11  12
ENDBRANCH  10  11
ENDBRANCH   3  10
TORSDOF 8
