REMARK  Name = 
REMARK  1 active torsions:
REMARK  status: ('A' for Active; 'I' for Inactive)
REMARK    1  A    between atoms: C_2  and  C_5
REMARK                            x       y       z     vdW  Elec       q    Type
REMARK                         _______ _______ _______ _____ _____    ______ ____
ROOT
ATOM      1  N   UNL     1      -0.394   1.419   0.000  0.00  0.00    +0.000 NA
ATOM      2  C   UNL     1       0.238   0.889   0.000  0.00  0.00    +0.000 C 
ATOM      3  C   UNL     1       0.651   0.174   0.000  0.00  0.00    +0.000 C 
ATOM      4  C   UNL     1      -0.174   0.174   0.000  0.00  0.00    +0.000 C 
ENDROOT
BRANCH   2   5
ATOM      5  C   UNL     1       0.870   1.419   0.000  0.00  0.00    +0.000 C 
ATOM      6  O   UNL     1       0.727   2.232   0.000  0.00  0.00    +0.000 OA
ATOM      7  O   UNL     1       1.645   1.137   0.000  0.00  0.00    +0.000 OA
ENDBRANCH   2   5
TORSDOF 1
