REMARK  Name = 
REMARK  3 active torsions:
REMARK  status: ('A' for Active; 'I' for Inactive)
REMARK    1  A    between atoms: N_3  and  C_7
REMARK    2  A    between atoms: N_4  and  C_13
REMARK    3  A    between atoms: C_7  and  C_13
REMARK                            x       y       z     vdW  Elec       q    Type
REMARK                         _______ _______ _______ _____ _____    ______ ____
ROOT
ATOM      1  O   UNL     1       2.812   0.474   0.000  0.00  0.00    +0.000 OA
ATOM      2  O   UNL     1       5.630   0.474   0.000  0.00  0.00    +0.000 OA
ATOM      3  N   UNL     1       4.221   0.474   0.000  0.00  0.00    +0.000 N 
ATOM      4  N   UNL     1       2.063  -2.410   0.000  0.00  0.00    +0.000 NA
ATOM      5  C   UNL     1       4.221  -1.153   0.000  0.00  0.00    +0.000 A 
ATOM      6  C   UNL     1       3.516  -0.747   0.000  0.00  0.00    +0.000 A 
ATOM      7  C   UNL     1       4.925  -0.747   0.000  0.00  0.00    +0.000 A 
ATOM      8  C   UNL     1       3.516   0.067   0.000  0.00  0.00    +0.000 C 
ATOM      9  C   UNL     1       4.234  -2.001   0.000  0.00  0.00    +0.000 A 
ATOM     10  C   UNL     1       4.925   0.067   0.000  0.00  0.00    +0.000 C 
ATOM     11  C   UNL     1       2.776  -1.159   0.000  0.00  0.00    +0.000 A 
ATOM     12  C   UNL     1       5.666  -1.159   0.000  0.00  0.00    +0.000 A 
ATOM     13  C   UNL     1       3.503  -2.430   0.000  0.00  0.00    +0.000 A 
ATOM     14  C   UNL     1       2.769  -2.006   0.000  0.00  0.00    +0.000 A 
ATOM     15  C   UNL     1       4.938  -2.430   0.000  0.00  0.00    +0.000 A 
ATOM     16  C   UNL     1       5.672  -2.006   0.000  0.00  0.00    +0.000 A 
ENDROOT
BRANCH   3  17
ATOM     17  C   UNL     1       4.221   1.288   0.000  0.00  0.00    +0.000 C 
BRANCH  17  18
ATOM     18  C   UNL     1       4.925   1.694   0.000  0.00  0.00    +0.000 C 
BRANCH  18  19
ATOM     19  N   UNL     1       4.925   2.508   0.000  0.00  0.00    +0.000 NA
ATOM     20  C   UNL     1       4.221   2.915   0.000  0.00  0.00    +0.000 C 
ATOM     21  C   UNL     1       5.630   2.915   0.000  0.00  0.00    +0.000 C 
ENDBRANCH  18  19
ENDBRANCH  17  18
ENDBRANCH   3  17
TORSDOF 3
