REMARK  Name = 
REMARK  4 active torsions:
REMARK  status: ('A' for Active; 'I' for Inactive)
REMARK    1  A    between atoms: P_2  and  N_5
REMARK    2  A    between atoms: N_5  and  P_6
REMARK    3  A    between atoms: P_6  and  O_9
REMARK    4  A    between atoms: O_9  and  P_10
REMARK                            x       y       z     vdW  Elec       q    Type
REMARK                         _______ _______ _______ _____ _____    ______ ____
ROOT
ATOM      1  P   UNL     1       3.904  -1.429   0.000  0.00  0.00    +0.000 P 
ATOM      2  O   UNL     1       3.491  -2.143   0.000  0.00  0.00    +0.000 OA
ATOM      3  O   UNL     1       4.316  -0.715   0.000  0.00  0.00    +0.000 OA
ENDROOT
BRANCH   1   4
ATOM      4  N   UNL     1       3.189  -1.016   0.000  0.00  0.00    +0.000 NA
BRANCH   4   6
ATOM      5  O   UNL     1       1.760  -1.841   0.000  0.00  0.00    +0.000 OA
ATOM      6  P   UNL     1       2.475  -1.429   0.000  0.00  0.00    +0.000 P 
ATOM      7  O   UNL     1       2.888  -2.143   0.000  0.00  0.00    +0.000 OA
ATOM      8  O   UNL     1       2.062  -0.715   0.000  0.00  0.00    +0.000 OA
ENDBRANCH   4   6
ENDBRANCH   1   4
BRANCH   1   9
ATOM      9  O   UNL     1       4.618  -1.841   0.000  0.00  0.00    +0.000 OA
BRANCH   9  10
ATOM     10  P   UNL     1       5.333  -1.429   0.000  0.00  0.00    +0.000 P 
ATOM     11  O   UNL     1       6.047  -1.016   0.000  0.00  0.00    +0.000 OA
ATOM     12  O   UNL     1       5.745  -2.143   0.000  0.00  0.00    +0.000 OA
ATOM     13  O   UNL     1       4.920  -0.715   0.000  0.00  0.00    +0.000 OA
ENDBRANCH   9  10
ENDBRANCH   1   9
TORSDOF 4
