REMARK  Name = 
REMARK  6 active torsions:
REMARK  status: ('A' for Active; 'I' for Inactive)
REMARK    1  A    between atoms: C_15  and  C_16
REMARK    2  A    between atoms: C_15  and  N_22
REMARK    3  A    between atoms: C_16  and  O_23
REMARK    4  A    between atoms: C_17  and  C_20
REMARK    5  A    between atoms: C_18  and  C_20
REMARK    6  A    between atoms: C_20  and  O_23
REMARK                            x       y       z     vdW  Elec       q    Type
REMARK                         _______ _______ _______ _____ _____    ______ ____
ROOT
ATOM      1  C   UNL     1       0.000   2.475   0.000  0.00  0.00    +0.000 C 
ENDROOT
BRANCH   1   6
ATOM      2  C   UNL     1       1.429   2.475   0.000  0.00  0.00    +0.000 A 
ATOM      3  C   UNL     1       0.714   3.712   0.000  0.00  0.00    +0.000 A 
ATOM      4  C   UNL     1       2.143   2.888   0.000  0.00  0.00    +0.000 A 
ATOM      5  C   UNL     1       1.429   4.125   0.000  0.00  0.00    +0.000 A 
ATOM      6  C   UNL     1       0.714   2.888   0.000  0.00  0.00    +0.000 A 
ATOM      7  C   UNL     1       2.143   3.712   0.000  0.00  0.00    +0.000 A 
ATOM      8 CL   UNL     1       2.858   4.125   0.000  0.00  0.00    +0.000 Cl
ENDBRANCH   1   6
BRANCH   1  14
ATOM      9  C   UNL     1       0.000   0.000   0.000  0.00  0.00    +0.000 A 
ATOM     10  C   UNL     1       0.714   0.412   0.000  0.00  0.00    +0.000 A 
ATOM     11  C   UNL     1      -0.714   0.412   0.000  0.00  0.00    +0.000 A 
ATOM     12  C   UNL     1       0.714   1.238   0.000  0.00  0.00    +0.000 A 
ATOM     13  C   UNL     1      -0.714   1.238   0.000  0.00  0.00    +0.000 A 
ATOM     14  C   UNL     1       0.000   1.650   0.000  0.00  0.00    +0.000 A 
ENDBRANCH   1  14
BRANCH   1  15
ATOM     15  O   UNL     1      -0.714   2.888   0.000  0.00  0.00    +0.000 OA
BRANCH  15  16
ATOM     16  C   UNL     1      -1.429   2.475   0.000  0.00  0.00    +0.000 C 
BRANCH  16  17
ATOM     17  C   UNL     1      -2.143   2.888   0.000  0.00  0.00    +0.000 C 
BRANCH  17  23
ATOM     18  C   UNL     1      -4.287   1.650   0.000  0.00  0.00    +0.000 C 
ATOM     19  C   UNL     1      -3.572   1.238   0.000  0.00  0.00    +0.000 C 
ATOM     20  C   UNL     1      -4.287   2.475   0.000  0.00  0.00    +0.000 C 
ATOM     21  C   UNL     1      -2.858   1.650   0.000  0.00  0.00    +0.000 C 
ATOM     22  C   UNL     1      -3.572   2.888   0.000  0.00  0.00    +0.000 C 
ATOM     23  N   UNL     1      -2.858   2.475   0.000  0.00  0.00    +0.000 NA
ENDBRANCH  17  23
ENDBRANCH  16  17
ENDBRANCH  15  16
ENDBRANCH   1  15
TORSDOF 6
