REMARK  Name = 
REMARK  6 active torsions:
REMARK  status: ('A' for Active; 'I' for Inactive)
REMARK    1  A    between atoms: O_5  and  C_22
REMARK    2  A    between atoms: O_5  and  C_23
REMARK    3  A    between atoms: C_12  and  C_16
REMARK    4  A    between atoms: C_14  and  C_17
REMARK    5  A    between atoms: C_15  and  C_22
REMARK    6  A    between atoms: C_23  and  C_24
REMARK                            x       y       z     vdW  Elec       q    Type
REMARK                         _______ _______ _______ _____ _____    ______ ____
ROOT
ATOM      1  S   UNL     1       5.007   2.520   0.000  0.00  0.00    +0.000 S 
ATOM      2  O   UNL     1       2.808   0.853   0.000  0.00  0.00    +0.000 OA
ATOM      3  N   UNL     1       4.222   1.440   0.000  0.00  0.00    +0.000 N 
ATOM      4  C   UNL     1       4.222   2.265   0.000  0.00  0.00    +0.000 C 
ATOM      5  C   UNL     1       3.390   2.269   0.000  0.00  0.00    +0.000 C 
ATOM      6  C   UNL     1       3.390   1.437   0.000  0.00  0.00    +0.000 C 
ATOM      7  C   UNL     1       5.492   1.853   0.000  0.00  0.00    +0.000 C 
ATOM      8  C   UNL     1       5.007   1.185   0.000  0.00  0.00    +0.000 C 
ENDROOT
BRANCH   7  10
ATOM      9  O   UNL     1       6.802   1.185   0.000  0.00  0.00    +0.000 OA
ATOM     10  C   UNL     1       6.317   1.853   0.000  0.00  0.00    +0.000 C 
ATOM     11  C   UNL     1       6.802   2.520   0.000  0.00  0.00    +0.000 C 
ATOM     12  C   UNL     1       7.586   2.265   0.000  0.00  0.00    +0.000 C 
ATOM     13  C   UNL     1       7.586   1.440   0.000  0.00  0.00    +0.000 C 
ENDBRANCH   7  10
BRANCH   5  15
ATOM     14  O   UNL     1       2.011   2.642   0.000  0.00  0.00    +0.000 OA
ATOM     15  C   UNL     1       2.808   2.853   0.000  0.00  0.00    +0.000 C 
ATOM     16  C   UNL     1       3.023   3.650   0.000  0.00  0.00    +0.000 C 
ENDBRANCH   5  15
BRANCH   8  18
ATOM     17  O   UNL     1       6.069   0.229   0.000  0.00  0.00    +0.000 OA
ATOM     18  C   UNL     1       5.262   0.401   0.000  0.00  0.00    +0.000 C 
BRANCH  18  19
ATOM     19  O   UNL     1       4.710  -0.212   0.000  0.00  0.00    +0.000 OA
BRANCH  19  20
ATOM     20  C   UNL     1       4.965  -0.997   0.000  0.00  0.00    +0.000 C 
BRANCH  20  24
ATOM     21  O   UNL     1       4.584  -2.417   0.000  0.00  0.00    +0.000 OA
ATOM     22  O   UNL     1       3.257  -2.277   0.000  0.00  0.00    +0.000 OA
ATOM     23  O   UNL     1       3.784  -3.650   0.000  0.00  0.00    +0.000 OA
ATOM     24  C   UNL     1       4.413  -1.610   0.000  0.00  0.00    +0.000 A 
ATOM     25  C   UNL     1       3.592  -1.524   0.000  0.00  0.00    +0.000 A 
ATOM     26  C   UNL     1       3.180  -0.809   0.000  0.00  0.00    +0.000 C 
ATOM     27  C   UNL     1       3.870  -2.829   0.000  0.00  0.00    +0.000 A 
ENDBRANCH  20  24
ENDBRANCH  19  20
ENDBRANCH  18  19
ENDBRANCH   8  18
TORSDOF 6
