REMARK  Name = 
REMARK  4 active torsions:
REMARK  status: ('A' for Active; 'I' for Inactive)
REMARK    1  A    between atoms: P_1  and  O_2
REMARK    2  A    between atoms: O_2  and  C_6
REMARK    3  A    between atoms: C_13  and  O_16
REMARK    4  A    between atoms: O_16  and  P_17
REMARK                            x       y       z     vdW  Elec       q    Type
REMARK                         _______ _______ _______ _____ _____    ______ ____
ROOT
ATOM      1  C   UNL     1      -0.714   0.416   0.000  0.00  0.00    +0.000 C 
ATOM      2  C   UNL     1      -0.004   0.828   0.000  0.00  0.00    +0.000 C 
ATOM      3  C   UNL     1      -0.714  -0.416   0.000  0.00  0.00    +0.000 C 
ATOM      4  C   UNL     1       0.718   0.416   0.000  0.00  0.00    +0.000 C 
ATOM      5  O   UNL     1      -0.004   1.647   0.000  0.00  0.00    +0.000 OA
ATOM      6  C   UNL     1      -0.004  -0.835   0.000  0.00  0.00    +0.000 C 
ATOM      7  O   UNL     1      -1.428  -0.824   0.000  0.00  0.00    +0.000 OA
ATOM      8  C   UNL     1       0.718  -0.416   0.000  0.00  0.00    +0.000 C 
ATOM      9  O   UNL     1       1.428   0.828   0.000  0.00  0.00    +0.000 OA
ATOM     10  O   UNL     1      -0.004  -1.659   0.000  0.00  0.00    +0.000 OA
ENDROOT
BRANCH   1  11
ATOM     11  O   UNL     1      -1.425   0.828   0.000  0.00  0.00    +0.000 OA
BRANCH  11  12
ATOM     12  P   UNL     1      -2.248   0.828   0.000  0.00  0.00    +0.000 P 
ATOM     13  O   UNL     1      -3.068   0.828   0.000  0.00  0.00    +0.000 OA
ATOM     14  O   UNL     1      -2.248   1.647   0.000  0.00  0.00    +0.000 OA
ATOM     15  O   UNL     1      -2.248   0.004   0.000  0.00  0.00    +0.000 OA
ENDBRANCH  11  12
ENDBRANCH   1  11
BRANCH   8  16
ATOM     16  O   UNL     1       1.432  -0.824   0.000  0.00  0.00    +0.000 OA
BRANCH  16  17
ATOM     17  P   UNL     1       2.248  -0.824   0.000  0.00  0.00    +0.000 P 
ATOM     18  O   UNL     1       3.072  -0.824   0.000  0.00  0.00    +0.000 OA
ATOM     19  O   UNL     1       2.248   0.000   0.000  0.00  0.00    +0.000 OA
ATOM     20  O   UNL     1       2.248  -1.644   0.000  0.00  0.00    +0.000 OA
ENDBRANCH  16  17
ENDBRANCH   8  16
TORSDOF 4
