REMARK  Name = 
REMARK  0 active torsions:
REMARK  status: ('A' for Active; 'I' for Inactive)
REMARK                            x       y       z     vdW  Elec       q    Type
REMARK                         _______ _______ _______ _____ _____    ______ ____
ROOT
ATOM      1  C   UNL     1      -1.167  -0.335   0.000  0.00  0.00    +0.000 A 
ATOM      2  C   UNL     1      -0.397  -0.039   0.000  0.00  0.00    +0.000 A 
ATOM      3  C   UNL     1      -1.296  -1.150   0.000  0.00  0.00    +0.000 A 
ATOM      4  C   UNL     1       1.713  -0.121   0.000  0.00  0.00    +0.000 C 
ATOM      5  C   UNL     1       1.629  -1.912   0.000  0.00  0.00    +0.000 C 
ATOM      6  C   UNL     1       1.225  -1.510   0.000  0.00  0.00    +0.000 C 
ATOM      7  C   UNL     1       0.622  -0.936   0.000  0.00  0.00    +0.000 C 
ATOM      8  C   UNL     1       1.582  -0.925   0.000  0.00  0.00    +0.000 C 
ATOM      9  C   UNL     1       1.163  -0.557   0.000  0.00  0.00    +0.000 C 
ATOM     10  C   UNL     1       0.244  -0.558   0.000  0.00  0.00    +0.000 A 
ATOM     11  C   UNL     1      -0.655  -1.669   0.000  0.00  0.00    +0.000 A 
ATOM     12  N   UNL     1       0.813  -2.091   0.000  0.00  0.00    +0.000 NA
ATOM     13  N   UNL     1       0.115  -1.373   0.000  0.00  0.00    +0.000 N 
ATOM     14  O   UNL     1      -0.784  -2.484   0.000  0.00  0.00    +0.000 OA
ENDROOT
TORSDOF 0
