REMARK  Name = 
REMARK  6 active torsions:
REMARK  status: ('A' for Active; 'I' for Inactive)
REMARK    1  A    between atoms: O_2  and  N_3
REMARK    2  A    between atoms: N_3  and  C_4
REMARK    3  A    between atoms: C_6  and  C_20
REMARK    4  A    between atoms: N_7  and  S_9
REMARK    5  A    between atoms: S_9  and  C_12
REMARK    6  A    between atoms: C_15  and  O_16
REMARK                            x       y       z     vdW  Elec       q    Type
REMARK                         _______ _______ _______ _____ _____    ______ ____
ROOT
ATOM      1  C   UNL     1       0.715  -2.062   0.000  0.00  0.00    +0.000 C 
ATOM      2  C   UNL     1       1.382  -2.547   0.000  0.00  0.00    +0.000 C 
ATOM      3  C   UNL     1       1.127  -3.332   0.000  0.00  0.00    +0.000 C 
ATOM      4  N   UNL     1       0.302  -3.332   0.000  0.00  0.00    +0.000 NA
ATOM      5  C   UNL     1       0.047  -2.547   0.000  0.00  0.00    +0.000 C 
ENDROOT
BRANCH   3   6
ATOM      6  C   UNL     1       1.612  -3.999   0.000  0.00  0.00    +0.000 C 
ATOM      7  O   UNL     1       1.276  -4.753   0.000  0.00  0.00    +0.000 OA
ATOM      8  N   UNL     1       2.432  -3.913   0.000  0.00  0.00    +0.000 NA
ATOM      9  O   UNL     1       2.917  -4.581   0.000  0.00  0.00    +0.000 OA
ENDBRANCH   3   6
BRANCH   4  10
ATOM     10  S   UNL     1      -0.183  -3.999   0.000  0.00  0.00    +0.000 S 
ATOM     11  O   UNL     1      -0.850  -3.515   0.000  0.00  0.00    +0.000 OA
ATOM     12  O   UNL     1       0.484  -4.484   0.000  0.00  0.00    +0.000 OA
BRANCH  10  13
ATOM     13  C   UNL     1      -0.668  -4.667   0.000  0.00  0.00    +0.000 A 
ATOM     14  C   UNL     1      -0.332  -5.421   0.000  0.00  0.00    +0.000 A 
ATOM     15  C   UNL     1      -0.817  -6.088   0.000  0.00  0.00    +0.000 A 
ATOM     16  C   UNL     1      -1.638  -6.002   0.000  0.00  0.00    +0.000 A 
ATOM     17  C   UNL     1      -1.973  -5.248   0.000  0.00  0.00    +0.000 A 
ATOM     18  C   UNL     1      -1.488  -4.581   0.000  0.00  0.00    +0.000 A 
BRANCH  16  19
ATOM     19  O   UNL     1      -2.123  -6.669   0.000  0.00  0.00    +0.000 OA
ATOM     20  C   UNL     1      -1.787  -7.423   0.000  0.00  0.00    +0.000 C 
ENDBRANCH  16  19
ENDBRANCH  10  13
ENDBRANCH   4  10
BRANCH   1  21
ATOM     21  N   UNL     1       0.715  -1.238   0.000  0.00  0.00    +0.000 NA
BRANCH  21  23
ATOM     22  C   UNL     1       1.429   0.000   0.000  0.00  0.00    +0.000 C 
ATOM     23  O   UNL     1       1.429  -0.825   0.000  0.00  0.00    +0.000 OA
ENDBRANCH  21  23
ENDBRANCH   1  21
TORSDOF 6
