REMARK  Name = 
REMARK  13 active torsions:
REMARK  status: ('A' for Active; 'I' for Inactive)
REMARK    1  A    between atoms: C_20  and  C_25
REMARK    2  A    between atoms: C_20  and  N_36
REMARK    3  A    between atoms: C_21  and  C_26
REMARK    4  A    between atoms: C_21  and  N_37
REMARK    5  A    between atoms: C_22  and  C_27
REMARK    6  A    between atoms: C_23  and  C_31
REMARK    7  A    between atoms: C_23  and  O_45
REMARK    8  A    between atoms: C_24  and  C_32
REMARK    9  A    between atoms: C_24  and  O_46
REMARK   10  A    between atoms: C_28  and  C_35
REMARK   11  A    between atoms: C_29  and  O_45
REMARK   12  A    between atoms: C_30  and  O_46
REMARK   13  A    between atoms: C_35  and  O_44
REMARK                            x       y       z     vdW  Elec       q    Type
REMARK                         _______ _______ _______ _____ _____    ______ ____
ROOT
ATOM      1  C   UNL     1      -3.006   0.991   0.000  0.00  0.00    +0.000 C 
ATOM      2  C   UNL     1      -2.594   2.798   0.000  0.00  0.00    +0.000 C 
ATOM      3  C   UNL     1      -2.263   1.349   0.000  0.00  0.00    +0.000 C 
ATOM      4  C   UNL     1      -2.079   2.153   0.000  0.00  0.00    +0.000 C 
ATOM      5  N   UNL     1      -3.749   1.349   0.000  0.00  0.00    +0.000 NA
ATOM      6  N   UNL     1      -3.418   2.798   0.000  0.00  0.00    +0.000 NA
ATOM      7  O   UNL     1      -1.618   0.835   0.000  0.00  0.00    +0.000 OA
ATOM      8  O   UNL     1      -1.275   2.337   0.000  0.00  0.00    +0.000 OA
ATOM      9  O   UNL     1      -4.733   1.952   0.000  0.00  0.00    +0.000 OA
ATOM     10  O   UNL     1      -4.566   2.682   0.000  0.00  0.00    +0.000 OA
ATOM     11  S   UNL     1      -3.933   2.153   0.000  0.00  0.00    +0.000 S 
ENDROOT
BRANCH   1  12
ATOM     12  C   UNL     1      -3.006   0.166   0.000  0.00  0.00    +0.000 C 
BRANCH  12  13
ATOM     13  O   UNL     1      -2.292  -0.247   0.000  0.00  0.00    +0.000 OA
BRANCH  13  19
ATOM     14  C   UNL     1      -2.292  -2.722   0.000  0.00  0.00    +0.000 A 
ATOM     15  C   UNL     1      -1.577  -2.309   0.000  0.00  0.00    +0.000 A 
ATOM     16  C   UNL     1      -3.006  -2.309   0.000  0.00  0.00    +0.000 A 
ATOM     17  C   UNL     1      -1.577  -1.484   0.000  0.00  0.00    +0.000 A 
ATOM     18  C   UNL     1      -3.006  -1.484   0.000  0.00  0.00    +0.000 A 
ATOM     19  C   UNL     1      -2.292  -1.072   0.000  0.00  0.00    +0.000 A 
ENDBRANCH  13  19
ENDBRANCH  12  13
ENDBRANCH   1  12
BRANCH   2  20
ATOM     20  C   UNL     1      -2.236   3.542   0.000  0.00  0.00    +0.000 C 
BRANCH  20  21
ATOM     21  O   UNL     1      -1.413   3.603   0.000  0.00  0.00    +0.000 OA
BRANCH  21  27
ATOM     22  C   UNL     1      -0.339   5.833   0.000  0.00  0.00    +0.000 A 
ATOM     23  C   UNL     1      -1.162   5.771   0.000  0.00  0.00    +0.000 A 
ATOM     24  C   UNL     1       0.126   5.151   0.000  0.00  0.00    +0.000 A 
ATOM     25  C   UNL     1      -1.520   5.028   0.000  0.00  0.00    +0.000 A 
ATOM     26  C   UNL     1      -0.232   4.408   0.000  0.00  0.00    +0.000 A 
ATOM     27  C   UNL     1      -1.055   4.346   0.000  0.00  0.00    +0.000 A 
ENDBRANCH  21  27
ENDBRANCH  20  21
ENDBRANCH   2  20
BRANCH   6  28
ATOM     28  C   UNL     1      -3.776   3.542   0.000  0.00  0.00    +0.000 C 
BRANCH  28  33
ATOM     29  C   UNL     1      -2.489   4.162   0.000  0.00  0.00    +0.000 A 
ATOM     30  C   UNL     1      -3.670   4.966   0.000  0.00  0.00    +0.000 A 
ATOM     31  C   UNL     1      -2.024   4.843   0.000  0.00  0.00    +0.000 A 
ATOM     32  C   UNL     1      -3.205   5.648   0.000  0.00  0.00    +0.000 A 
ATOM     33  C   UNL     1      -3.312   4.223   0.000  0.00  0.00    +0.000 A 
ATOM     34  C   UNL     1      -2.382   5.587   0.000  0.00  0.00    +0.000 A 
BRANCH  34  35
ATOM     35  C   UNL     1      -1.917   6.268   0.000  0.00  0.00    +0.000 C 
ATOM     36  O   UNL     1      -1.095   6.207   0.000  0.00  0.00    +0.000 OA
BRANCH  35  38
ATOM     37  C   UNL     1      -1.811   7.693   0.000  0.00  0.00    +0.000 C 
ATOM     38  O   UNL     1      -2.276   7.011   0.000  0.00  0.00    +0.000 OA
ENDBRANCH  35  38
ENDBRANCH  34  35
ENDBRANCH  28  33
ENDBRANCH   6  28
BRANCH   5  39
ATOM     39  C   UNL     1      -4.394   0.835   0.000  0.00  0.00    +0.000 C 
BRANCH  39  44
ATOM     40  C   UNL     1      -4.916  -0.496   0.000  0.00  0.00    +0.000 A 
ATOM     41  C   UNL     1      -3.503  -0.283   0.000  0.00  0.00    +0.000 A 
ATOM     42  C   UNL     1      -4.793  -1.311   0.000  0.00  0.00    +0.000 A 
ATOM     43  C   UNL     1      -3.380  -1.099   0.000  0.00  0.00    +0.000 A 
ATOM     44  C   UNL     1      -4.271   0.019   0.000  0.00  0.00    +0.000 A 
ATOM     45  C   UNL     1      -4.026  -1.613   0.000  0.00  0.00    +0.000 A 
BRANCH  45  46
ATOM     46  C   UNL     1      -3.902  -2.429   0.000  0.00  0.00    +0.000 C 
ATOM     47  O   UNL     1      -3.135  -2.730   0.000  0.00  0.00    +0.000 OA
ENDBRANCH  45  46
ENDBRANCH  39  44
ENDBRANCH   5  39
TORSDOF 13
