REMARK  Name = 
REMARK  8 active torsions:
REMARK  status: ('A' for Active; 'I' for Inactive)
REMARK    1  A    between atoms: C_1  and  C_4
REMARK    2  A    between atoms: C_1  and  O_25
REMARK    3  A    between atoms: C_7  and  O_27
REMARK    4  A    between atoms: C_10  and  N_15
REMARK    5  A    between atoms: O_25  and  P_31
REMARK    6  A    between atoms: O_27  and  P_29
REMARK    7  A    between atoms: O_28  and  P_30
REMARK    8  A    between atoms: O_28  and  P_31
REMARK                            x       y       z     vdW  Elec       q    Type
REMARK                         _______ _______ _______ _____ _____    ______ ____
ROOT
ATOM      1  C   UNL     1       0.099  -1.009   0.000  0.00  0.00    +0.000 C 
ATOM      2  C   UNL     1       0.884  -1.264   0.000  0.00  0.00    +0.000 C 
ATOM      3  C   UNL     1       1.369  -0.597   0.000  0.00  0.00    +0.000 C 
ATOM      4  C   UNL     1       0.884   0.071   0.000  0.00  0.00    +0.000 C 
ATOM      5  O   UNL     1       1.139  -2.049   0.000  0.00  0.00    +0.000 OA
ATOM      6  O   UNL     1       0.099  -0.184   0.000  0.00  0.00    +0.000 OA
ENDROOT
BRANCH   4  16
ATOM      7  C   UNL     1       3.352   1.110   0.000  0.00  0.00    +0.000 A 
ATOM      8  C   UNL     1       0.654   1.523   0.000  0.00  0.00    +0.000 A 
ATOM      9  C   UNL     1       1.923   1.935   0.000  0.00  0.00    +0.000 A 
ATOM     10  C   UNL     1       2.638   2.348   0.000  0.00  0.00    +0.000 A 
ATOM     11  C   UNL     1       1.923   1.110   0.000  0.00  0.00    +0.000 A 
ATOM     12  N   UNL     1       2.638   3.173   0.000  0.00  0.00    +0.000 NA
ATOM     13  N   UNL     1       3.352   1.935   0.000  0.00  0.00    +0.000 NA
ATOM     14  N   UNL     1       2.638   0.698   0.000  0.00  0.00    +0.000 NA
ATOM     15  N   UNL     1       1.139   2.190   0.000  0.00  0.00    +0.000 NA
ATOM     16  N   UNL     1       1.139   0.856   0.000  0.00  0.00    +0.000 N 
ENDBRANCH   4  16
BRANCH   1  17
ATOM     17  C   UNL     1      -0.568  -1.494   0.000  0.00  0.00    +0.000 C 
BRANCH  17  18
ATOM     18  O   UNL     1      -0.482  -2.314   0.000  0.00  0.00    +0.000 OA
BRANCH  18  21
ATOM     19  O   UNL     1      -1.634  -2.132   0.000  0.00  0.00    +0.000 OA
ATOM     20  O   UNL     1      -0.665  -3.467   0.000  0.00  0.00    +0.000 OA
ATOM     21  P   UNL     1      -1.149  -2.799   0.000  0.00  0.00    +0.000 P 
BRANCH  21  22
ATOM     22  O   UNL     1      -1.817  -3.284   0.000  0.00  0.00    +0.000 OA
BRANCH  22  26
ATOM     23  O   UNL     1      -1.644  -4.925   0.000  0.00  0.00    +0.000 OA
ATOM     24  O   UNL     1      -2.551  -4.191   0.000  0.00  0.00    +0.000 OA
ATOM     25  O   UNL     1      -0.910  -4.019   0.000  0.00  0.00    +0.000 OA
ATOM     26  P   UNL     1      -1.731  -4.105   0.000  0.00  0.00    +0.000 P 
ENDBRANCH  22  26
ENDBRANCH  21  22
ENDBRANCH  18  21
ENDBRANCH  17  18
ENDBRANCH   1  17
BRANCH   3  27
ATOM     27  O   UNL     1       2.194  -0.597   0.000  0.00  0.00    +0.000 OA
BRANCH  27  31
ATOM     28  O   UNL     1       1.892  -1.724   0.000  0.00  0.00    +0.000 OA
ATOM     29  O   UNL     1       3.321  -0.898   0.000  0.00  0.00    +0.000 OA
ATOM     30  O   UNL     1       3.019  -2.026   0.000  0.00  0.00    +0.000 OA
ATOM     31  P   UNL     1       2.606  -1.311   0.000  0.00  0.00    +0.000 P 
ENDBRANCH  27  31
ENDBRANCH   3  27
TORSDOF 8
