REMARK  Name = 
REMARK  2 active torsions:
REMARK  status: ('A' for Active; 'I' for Inactive)
REMARK    1  A    between atoms: N_4  and  C_5
REMARK    2  A    between atoms: C_10  and  C_11
REMARK                            x       y       z     vdW  Elec       q    Type
REMARK                         _______ _______ _______ _____ _____    ______ ____
ROOT
ATOM      1  C   UNL     1       1.429   0.825   0.000  0.00  0.00    +0.000 C 
ATOM      2  C   UNL     1       1.429   0.000   0.000  0.00  0.00    +0.000 C 
ATOM      3  O   UNL     1       2.143  -0.412   0.000  0.00  0.00    +0.000 OA
ATOM      4  C   UNL     1       0.715  -0.412   0.000  0.00  0.00    +0.000 C 
ATOM      5  O   UNL     1       0.715  -1.238   0.000  0.00  0.00    +0.000 OA
ATOM      6  C   UNL     1       0.000   0.000   0.000  0.00  0.00    +0.000 C 
ATOM      7  O   UNL     1       0.000   0.825   0.000  0.00  0.00    +0.000 OA
ATOM      8  C   UNL     1       0.715   1.238   0.000  0.00  0.00    +0.000 C 
ATOM      9  O   UNL     1       0.715   2.062   0.000  0.00  0.00    +0.000 OA
ENDROOT
BRANCH   1  13
ATOM     10  C   UNL     1       2.858   2.475   0.000  0.00  0.00    +0.000 C 
ATOM     11  C   UNL     1       2.143   2.062   0.000  0.00  0.00    +0.000 C 
ATOM     12  O   UNL     1       1.429   2.475   0.000  0.00  0.00    +0.000 OA
ATOM     13  N   UNL     1       2.143   1.238   0.000  0.00  0.00    +0.000 NA
ENDBRANCH   1  13
BRANCH   6  14
ATOM     14  C   UNL     1      -0.715  -0.412   0.000  0.00  0.00    +0.000 C 
ATOM     15  O   UNL     1      -0.715  -1.238   0.000  0.00  0.00    +0.000 OA
ENDBRANCH   6  14
TORSDOF 2
