REMARK  Name = 
REMARK  8 active torsions:
REMARK  status: ('A' for Active; 'I' for Inactive)
REMARK    1  A    between atoms: C_4  and  C_30
REMARK    2  A    between atoms: C_8  and  C_35
REMARK    3  A    between atoms: C_18  and  C_29
REMARK    4  A    between atoms: C_20  and  C_25
REMARK    5  A    between atoms: C_30  and  C_31
REMARK    6  A    between atoms: C_31  and  C_32
REMARK    7  A    between atoms: C_35  and  C_36
REMARK    8  A    between atoms: C_36  and  C_37
REMARK                            x       y       z     vdW  Elec       q    Type
REMARK                         _______ _______ _______ _____ _____    ______ ____
ROOT
ATOM      1  C   UNL     1      15.678 -11.992   0.000  0.00  0.00    +0.000 A 
ATOM      2  C   UNL     1      14.922 -12.319   0.000  0.00  0.00    +0.000 C 
ATOM      3  N   UNL     1      15.739 -11.165   0.000  0.00  0.00    +0.000 NA
ATOM      4  C   UNL     1      16.487 -12.301   0.000  0.00  0.00    +0.000 A 
ATOM      5  C   UNL     1      14.149 -12.006   0.000  0.00  0.00    +0.000 C 
ATOM      6  C   UNL     1      16.537 -10.978   0.000  0.00  0.00    +0.000 A 
ATOM      7  C   UNL     1      16.977 -11.673   0.000  0.00  0.00    +0.000 A 
ATOM      8  C   UNL     1      13.415 -12.375   0.000  0.00  0.00    +0.000 C 
ATOM      9  N   UNL     1      14.017 -11.187   0.000  0.00  0.00    +0.000 NA
ATOM     10  C   UNL     1      16.835 -10.236   0.000  0.00  0.00    +0.000 C 
ATOM     11  N   UNL     1      13.957  -9.412   0.000  0.00  0.00    +0.000 NA
ATOM     12  C   UNL     1      12.825 -11.828   0.000  0.00  0.00    +0.000 C 
ATOM     13  C   UNL     1      13.209 -11.055   0.000  0.00  0.00    +0.000 C 
ATOM     14  C   UNL     1      16.530  -9.494   0.000  0.00  0.00    +0.000 C 
ATOM     15  C   UNL     1      14.060  -8.592   0.000  0.00  0.00    +0.000 A 
ATOM     16  C   UNL     1      13.137  -9.558   0.000  0.00  0.00    +0.000 A 
ATOM     17  C   UNL     1      12.878 -10.324   0.000  0.00  0.00    +0.000 C 
ATOM     18  C   UNL     1      16.902  -8.745   0.000  0.00  0.00    +0.000 C 
ATOM     19  N   UNL     1      15.713  -9.366   0.000  0.00  0.00    +0.000 NA
ATOM     20  C   UNL     1      13.319  -8.241   0.000  0.00  0.00    +0.000 A 
ATOM     21  C   UNL     1      14.809  -8.192   0.000  0.00  0.00    +0.000 C 
ATOM     22  C   UNL     1      12.747  -8.834   0.000  0.00  0.00    +0.000 A 
ATOM     23  C   UNL     1      16.313  -8.173   0.000  0.00  0.00    +0.000 C 
ATOM     24  C   UNL     1      15.583  -8.557   0.000  0.00  0.00    +0.000 C 
ATOM     25  C   UNL     1      11.917  -8.834   0.000  0.00  0.00    +0.000 C 
ATOM     26  C   UNL     1      16.306  -7.340   0.000  0.00  0.00    +0.000 C 
ATOM     27  C   UNL     1      11.947 -11.826   0.000  0.00  0.00    +0.000 C 
ATOM     28  C   UNL     1      17.776 -11.669   0.000  0.00  0.00    +0.000 C 
ENDROOT
BRANCH  18  29
ATOM     29  C   UNL     1      17.726  -8.732   0.000  0.00  0.00    +0.000 C 
ATOM     30  C   UNL     1      18.164  -9.464   0.000  0.00  0.00    +0.000 C 
ENDBRANCH  18  29
BRANCH  20  31
ATOM     31  C   UNL     1      13.308  -7.404   0.000  0.00  0.00    +0.000 C 
ATOM     32  C   UNL     1      14.029  -6.983   0.000  0.00  0.00    +0.000 C 
ENDBRANCH  20  31
BRANCH   4  33
ATOM     33  C   UNL     1      16.507 -13.181   0.000  0.00  0.00    +0.000 C 
BRANCH  33  34
ATOM     34  C   UNL     1      17.216 -13.635   0.000  0.00  0.00    +0.000 C 
BRANCH  34  35
ATOM     35  C   UNL     1      17.199 -14.510   0.000  0.00  0.00    +0.000 C 
ATOM     36  O   UNL     1      17.950 -14.965   0.000  0.00  0.00    +0.000 OA
ATOM     37  O   UNL     1      16.430 -14.934   0.000  0.00  0.00    +0.000 OA
ENDBRANCH  34  35
ENDBRANCH  33  34
ENDBRANCH   4  33
BRANCH   8  38
ATOM     38  C   UNL     1      13.419 -13.195   0.000  0.00  0.00    +0.000 C 
BRANCH  38  39
ATOM     39  C   UNL     1      12.653 -13.575   0.000  0.00  0.00    +0.000 C 
BRANCH  39  40
ATOM     40  C   UNL     1      12.658 -14.396   0.000  0.00  0.00    +0.000 C 
ATOM     41  O   UNL     1      11.891 -14.776   0.000  0.00  0.00    +0.000 OA
ATOM     42  O   UNL     1      13.308 -14.836   0.000  0.00  0.00    +0.000 OA
ENDBRANCH  39  40
ENDBRANCH  38  39
ENDBRANCH   8  38
TORSDOF 8
