REMARK  Name = 
REMARK  8 active torsions:
REMARK  status: ('A' for Active; 'I' for Inactive)
REMARK    1  A    between atoms: C_4  and  C_9
REMARK    2  A    between atoms: C_5  and  C_10
REMARK    3  A    between atoms: C_6  and  N_20
REMARK    4  A    between atoms: C_7  and  N_21
REMARK    5  A    between atoms: C_8  and  O_32
REMARK    6  A    between atoms: C_16  and  O_35
REMARK    7  A    between atoms: C_17  and  O_32
REMARK    8  A    between atoms: C_18  and  O_35
REMARK                            x       y       z     vdW  Elec       q    Type
REMARK                         _______ _______ _______ _____ _____    ______ ____
ROOT
ATOM      1  C   UNL     1       0.715   6.188   0.000  0.00  0.00    +0.000 C 
ATOM      2  C   UNL     1       0.715   4.537   0.000  0.00  0.00    +0.000 C 
ATOM      3  C   UNL     1       0.000   4.950   0.000  0.00  0.00    +0.000 C 
ATOM      4  C   UNL     1       0.000   5.775   0.000  0.00  0.00    +0.000 C 
ATOM      5  C   UNL     1       1.429   4.950   0.000  0.00  0.00    +0.000 C 
ATOM      6  F   UNL     1       0.715   3.712   0.000  0.00  0.00    +0.000 F 
ATOM      7  O   UNL     1      -0.715   4.537   0.000  0.00  0.00    +0.000 OA
ATOM      8  O   UNL     1       1.429   5.775   0.000  0.00  0.00    +0.000 OA
ENDROOT
BRANCH   1   9
ATOM      9  C   UNL     1       0.715   7.013   0.000  0.00  0.00    +0.000 C 
ATOM     10  O   UNL     1       1.429   7.425   0.000  0.00  0.00    +0.000 OA
ENDBRANCH   1   9
BRANCH   5  11
ATOM     11  O   UNL     1       2.143   4.537   0.000  0.00  0.00    +0.000 OA
BRANCH  11  17
ATOM     12  C   UNL     1       1.429   2.475   0.000  0.00  0.00    +0.000 A 
ATOM     13  C   UNL     1       1.429   3.300   0.000  0.00  0.00    +0.000 A 
ATOM     14  C   UNL     1       2.858   2.475   0.000  0.00  0.00    +0.000 A 
ATOM     15  C   UNL     1       2.143   2.062   0.000  0.00  0.00    +0.000 A 
ATOM     16  C   UNL     1       2.858   3.300   0.000  0.00  0.00    +0.000 A 
ATOM     17  C   UNL     1       2.143   3.712   0.000  0.00  0.00    +0.000 A 
BRANCH  15  18
ATOM     18  N   UNL     1       2.143   1.238   0.000  0.00  0.00    +0.000 N 
ATOM     19  O   UNL     1       1.429   0.825   0.000  0.00  0.00    +0.000 OA
ATOM     20  O   UNL     1       2.858   0.825   0.000  0.00  0.00    +0.000 OA
ENDBRANCH  15  18
BRANCH  16  21
ATOM     21  N   UNL     1       3.572   3.712   0.000  0.00  0.00    +0.000 N 
ATOM     22  O   UNL     1       3.572   4.537   0.000  0.00  0.00    +0.000 OA
ATOM     23  O   UNL     1       4.287   3.300   0.000  0.00  0.00    +0.000 OA
ENDBRANCH  16  21
ENDBRANCH  11  17
ENDBRANCH   5  11
BRANCH   4  24
ATOM     24  O   UNL     1      -0.715   6.188   0.000  0.00  0.00    +0.000 OA
BRANCH  24  29
ATOM     25  C   UNL     1       0.000   8.250   0.000  0.00  0.00    +0.000 C 
ATOM     26  C   UNL     1      -0.715   8.662   0.000  0.00  0.00    +0.000 C 
ATOM     27  C   UNL     1      -1.429   8.250   0.000  0.00  0.00    +0.000 C 
ATOM     28  C   UNL     1      -1.429   7.425   0.000  0.00  0.00    +0.000 C 
ATOM     29  C   UNL     1      -0.715   7.013   0.000  0.00  0.00    +0.000 C 
ATOM     30  O   UNL     1      -0.715   9.488   0.000  0.00  0.00    +0.000 OA
ATOM     31  O   UNL     1      -2.143   8.662   0.000  0.00  0.00    +0.000 OA
ATOM     32  O   UNL     1      -2.143   7.013   0.000  0.00  0.00    +0.000 OA
ATOM     33  O   UNL     1       0.000   7.425   0.000  0.00  0.00    +0.000 OA
BRANCH  25  34
ATOM     34  C   UNL     1       0.715   8.662   0.000  0.00  0.00    +0.000 C 
ATOM     35  O   UNL     1       0.715   9.488   0.000  0.00  0.00    +0.000 OA
ENDBRANCH  25  34
ENDBRANCH  24  29
ENDBRANCH   4  24
TORSDOF 8
