REMARK  Name = 
REMARK  3 active torsions:
REMARK  status: ('A' for Active; 'I' for Inactive)
REMARK    1  A    between atoms: C_4  and  O_20
REMARK    2  A    between atoms: C_9  and  N_14
REMARK    3  A    between atoms: O_20  and  P_21
REMARK                            x       y       z     vdW  Elec       q    Type
REMARK                         _______ _______ _______ _____ _____    ______ ____
ROOT
ATOM      1  C   UNL     1       0.099  -1.009   0.000  0.00  0.00    +0.000 C 
ATOM      2  C   UNL     1       0.884  -1.264   0.000  0.00  0.00    +0.000 C 
ATOM      3  C   UNL     1       1.369  -0.597   0.000  0.00  0.00    +0.000 C 
ATOM      4  C   UNL     1       0.884   0.071   0.000  0.00  0.00    +0.000 C 
ATOM      5  O   UNL     1       2.194  -0.597   0.000  0.00  0.00    +0.000 OA
ATOM      6  O   UNL     1       0.099  -0.184   0.000  0.00  0.00    +0.000 OA
ENDROOT
BRANCH   4  16
ATOM      7  C   UNL     1       3.352   1.110   0.000  0.00  0.00    +0.000 A 
ATOM      8  C   UNL     1       0.654   1.523   0.000  0.00  0.00    +0.000 A 
ATOM      9  C   UNL     1       1.923   1.935   0.000  0.00  0.00    +0.000 A 
ATOM     10  C   UNL     1       2.638   2.348   0.000  0.00  0.00    +0.000 A 
ATOM     11  C   UNL     1       1.923   1.110   0.000  0.00  0.00    +0.000 A 
ATOM     12  N   UNL     1       2.638   3.173   0.000  0.00  0.00    +0.000 NA
ATOM     13  N   UNL     1       3.352   1.935   0.000  0.00  0.00    +0.000 NA
ATOM     14  N   UNL     1       2.638   0.698   0.000  0.00  0.00    +0.000 NA
ATOM     15  N   UNL     1       1.139   2.190   0.000  0.00  0.00    +0.000 NA
ATOM     16  N   UNL     1       1.139   0.856   0.000  0.00  0.00    +0.000 N 
ENDBRANCH   4  16
BRANCH   2  17
ATOM     17  O   UNL     1       1.139  -2.049   0.000  0.00  0.00    +0.000 OA
BRANCH  17  21
ATOM     18  O   UNL     1       2.753  -2.392   0.000  0.00  0.00    +0.000 OA
ATOM     19  O   UNL     1       1.774  -3.027   0.000  0.00  0.00    +0.000 OA
ATOM     20  O   UNL     1       2.117  -1.413   0.000  0.00  0.00    +0.000 OA
ATOM     21  P   UNL     1       1.946  -2.220   0.000  0.00  0.00    +0.000 P 
ENDBRANCH  17  21
ENDBRANCH   2  17
TORSDOF 3
