REMARK  Name = 
REMARK  2 active torsions:
REMARK  status: ('A' for Active; 'I' for Inactive)
REMARK    1  A    between atoms: C_5  and  C_9
REMARK    2  A    between atoms: C_13  and  C_14
REMARK                            x       y       z     vdW  Elec       q    Type
REMARK                         _______ _______ _______ _____ _____    ______ ____
ROOT
ATOM      1  C   UNL     1      -0.768   1.127   0.000  0.00  0.00    +0.000 C 
ATOM      2  C   UNL     1      -1.180   0.412   0.000  0.00  0.00    +0.000 C 
ATOM      3  C   UNL     1      -0.768  -0.302   0.000  0.00  0.00    +0.000 C 
ATOM      4  C   UNL     1       0.057  -0.302   0.000  0.00  0.00    +0.000 C 
ATOM      5  C   UNL     1       0.470   0.412   0.000  0.00  0.00    +0.000 C 
ATOM      6  O   UNL     1      -2.005   0.412   0.000  0.00  0.00    +0.000 OA
ATOM      7  O   UNL     1      -1.180  -1.016   0.000  0.00  0.00    +0.000 OA
ATOM      8  O   UNL     1       0.470  -1.016   0.000  0.00  0.00    +0.000 OA
ATOM      9  O   UNL     1       0.057   1.127   0.000  0.00  0.00    +0.000 OA
ENDROOT
BRANCH   5  17
ATOM     10  C   UNL     1       4.708  -0.412   0.000  0.00  0.00    +0.000 C 
ATOM     11  C   UNL     1       3.993   0.825   0.000  0.00  0.00    +0.000 A 
ATOM     12  C   UNL     1       3.279   1.238   0.000  0.00  0.00    +0.000 A 
ATOM     13  C   UNL     1       3.279  -0.412   0.000  0.00  0.00    +0.000 A 
ATOM     14  C   UNL     1       3.993   0.000   0.000  0.00  0.00    +0.000 A 
ATOM     15  C   UNL     1       2.564   0.825   0.000  0.00  0.00    +0.000 A 
ATOM     16  C   UNL     1       2.564   0.000   0.000  0.00  0.00    +0.000 A 
ATOM     17  C   UNL     1       1.295   0.412   0.000  0.00  0.00    +0.000 A 
ATOM     18  N   UNL     1       1.780   1.080   0.000  0.00  0.00    +0.000 NA
ATOM     19  N   UNL     1       1.780  -0.255   0.000  0.00  0.00    +0.000 NA
ENDBRANCH   5  17
BRANCH   1  20
ATOM     20  C   UNL     1      -1.180   1.841   0.000  0.00  0.00    +0.000 C 
ATOM     21  O   UNL     1      -2.005   1.841   0.000  0.00  0.00    +0.000 OA
ENDBRANCH   1  20
TORSDOF 2
