REMARK  Name = 
REMARK  4 active torsions:
REMARK  status: ('A' for Active; 'I' for Inactive)
REMARK    1  A    between atoms: N_12  and  C_13
REMARK    2  A    between atoms: C_15  and  C_16
REMARK    3  A    between atoms: C_16  and  O_17
REMARK    4  A    between atoms: O_17  and  P_18
REMARK                            x       y       z     vdW  Elec       q    Type
REMARK                         _______ _______ _______ _____ _____    ______ ____
ROOT
ATOM      1  C   UNL     1       1.525  -1.040   0.000  0.00  0.00    +0.000 C 
ATOM      2  O   UNL     1       2.010  -1.707   0.000  0.00  0.00    +0.000 OA
ATOM      3  C   UNL     1       1.525  -2.374   0.000  0.00  0.00    +0.000 C 
ATOM      4  C   UNL     1       0.740  -2.119   0.000  0.00  0.00    +0.000 C 
ATOM      5  N   UNL     1       0.073  -2.604   0.000  0.00  0.00    +0.000 NA
ATOM      6  C   UNL     1       0.740  -1.294   0.000  0.00  0.00    +0.000 C 
ATOM      7  O   UNL     1       0.073  -0.810   0.000  0.00  0.00    +0.000 OA
ENDROOT
BRANCH   1  19
ATOM      8  C   UNL     1       3.993   2.475   0.000  0.00  0.00    +0.000 C 
ATOM      9  N   UNL     1       3.279   2.062   0.000  0.00  0.00    +0.000 N 
ATOM     10  C   UNL     1       2.564   2.475   0.000  0.00  0.00    +0.000 C 
ATOM     11  C   UNL     1       3.279   1.238   0.000  0.00  0.00    +0.000 A 
ATOM     12  N   UNL     1       3.993   0.825   0.000  0.00  0.00    +0.000 NA
ATOM     13  C   UNL     1       3.993   0.000   0.000  0.00  0.00    +0.000 A 
ATOM     14  N   UNL     1       3.279  -0.412   0.000  0.00  0.00    +0.000 NA
ATOM     15  C   UNL     1       2.564   0.000   0.000  0.00  0.00    +0.000 A 
ATOM     16  C   UNL     1       2.564   0.825   0.000  0.00  0.00    +0.000 A 
ATOM     17  N   UNL     1       1.780   1.080   0.000  0.00  0.00    +0.000 NA
ATOM     18  C   UNL     1       1.295   0.412   0.000  0.00  0.00    +0.000 A 
ATOM     19  N   UNL     1       1.780  -0.255   0.000  0.00  0.00    +0.000 N 
ENDBRANCH   1  19
BRANCH   3  20
ATOM     20  C   UNL     1       1.780  -3.159   0.000  0.00  0.00    +0.000 C 
BRANCH  20  21
ATOM     21  O   UNL     1       1.228  -3.772   0.000  0.00  0.00    +0.000 OA
BRANCH  21  22
ATOM     22  P   UNL     1       1.483  -4.557   0.000  0.00  0.00    +0.000 P 
ATOM     23  O   UNL     1       1.738  -5.341   0.000  0.00  0.00    +0.000 OA
ATOM     24  O   UNL     1       0.698  -4.812   0.000  0.00  0.00    +0.000 OA
ATOM     25  O   UNL     1       2.267  -4.302   0.000  0.00  0.00    +0.000 OA
ENDBRANCH  21  22
ENDBRANCH  20  21
ENDBRANCH   3  20
TORSDOF 4
