REMARK  Name = 
REMARK  2 active torsions:
REMARK  status: ('A' for Active; 'I' for Inactive)
REMARK    1  A    between atoms: C_1  and  C_14
REMARK    2  A    between atoms: N_2  and  C_5
REMARK                            x       y       z     vdW  Elec       q    Type
REMARK                         _______ _______ _______ _____ _____    ______ ____
ROOT
ATOM      1  C   UNL     1       7.003  -4.674   0.000  0.00  0.00    +0.000 C 
ATOM      2  C   UNL     1       7.003  -3.849   0.000  0.00  0.00    +0.000 C 
ATOM      3  C   UNL     1       7.717  -5.087   0.000  0.00  0.00    +0.000 C 
ATOM      4  C   UNL     1       6.288  -5.087   0.000  0.00  0.00    +0.000 C 
ATOM      5  C   UNL     1       6.288  -3.437   0.000  0.00  0.00    +0.000 C 
ATOM      6  C   UNL     1       7.717  -3.437   0.000  0.00  0.00    +0.000 C 
ATOM      7  O   UNL     1       7.003  -3.024   0.000  0.00  0.00    +0.000 OA
ATOM      8  C   UNL     1       8.432  -4.674   0.000  0.00  0.00    +0.000 C 
ATOM      9  C   UNL     1       5.574  -4.674   0.000  0.00  0.00    +0.000 C 
ATOM     10  C   UNL     1       5.574  -3.849   0.000  0.00  0.00    +0.000 C 
ATOM     11  O   UNL     1       6.288  -2.612   0.000  0.00  0.00    +0.000 OA
ATOM     12  C   UNL     1       8.432  -3.849   0.000  0.00  0.00    +0.000 C 
ATOM     13  O   UNL     1       7.717  -2.612   0.000  0.00  0.00    +0.000 OA
ATOM     14  O   UNL     1       9.146  -5.087   0.000  0.00  0.00    +0.000 OA
ATOM     15  C   UNL     1       4.859  -5.087   0.000  0.00  0.00    +0.000 C 
ATOM     16  C   UNL     1       4.859  -3.437   0.000  0.00  0.00    +0.000 C 
ATOM     17  C   UNL     1       4.145  -4.674   0.000  0.00  0.00    +0.000 A 
ATOM     18  O   UNL     1       4.859  -5.912   0.000  0.00  0.00    +0.000 OA
ATOM     19  C   UNL     1       4.145  -3.849   0.000  0.00  0.00    +0.000 A 
ATOM     20  O   UNL     1       4.859  -2.612   0.000  0.00  0.00    +0.000 OA
ATOM     21  C   UNL     1       3.430  -5.087   0.000  0.00  0.00    +0.000 A 
ATOM     22  C   UNL     1       3.430  -3.437   0.000  0.00  0.00    +0.000 A 
ATOM     23  C   UNL     1       2.716  -4.674   0.000  0.00  0.00    +0.000 A 
ATOM     24 CL   UNL     1       3.430  -5.912   0.000  0.00  0.00    +0.000 Cl
ATOM     25  C   UNL     1       2.716  -3.849   0.000  0.00  0.00    +0.000 A 
ATOM     26  O   UNL     1       3.430  -2.612   0.000  0.00  0.00    +0.000 OA
ENDROOT
BRANCH  12  27
ATOM     27  C   UNL     1       9.146  -3.437   0.000  0.00  0.00    +0.000 C 
ATOM     28  O   UNL     1       9.146  -2.612   0.000  0.00  0.00    +0.000 OA
ATOM     29  N   UNL     1       9.861  -3.849   0.000  0.00  0.00    +0.000 NA
ENDBRANCH  12  27
BRANCH   3  30
ATOM     30  N   UNL     1       7.717  -5.912   0.000  0.00  0.00    +0.000 NA
ATOM     31  C   UNL     1       8.432  -6.324   0.000  0.00  0.00    +0.000 C 
ATOM     32  C   UNL     1       7.003  -6.324   0.000  0.00  0.00    +0.000 C 
ENDBRANCH   3  30
TORSDOF 2
