REMARK  Name = 
REMARK  5 active torsions:
REMARK  status: ('A' for Active; 'I' for Inactive)
REMARK    1  A    between atoms: N_16  and  C_17
REMARK    2  A    between atoms: C_17  and  C_18
REMARK    3  A    between atoms: C_18  and  C_19
REMARK    4  A    between atoms: C_19  and  C_21
REMARK    5  A    between atoms: C_21  and  C_23
REMARK                            x       y       z     vdW  Elec       q    Type
REMARK                         _______ _______ _______ _____ _____    ______ ____
ROOT
ATOM      1  C   UNL     1       0.715   0.412   0.000  0.00  0.00    +0.000 A 
ATOM      2  C   UNL     1       0.715  -0.412   0.000  0.00  0.00    +0.000 A 
ATOM      3  C   UNL     1      -0.715   0.412   0.000  0.00  0.00    +0.000 A 
ATOM      4  C   UNL     1      -0.715  -0.412   0.000  0.00  0.00    +0.000 A 
ATOM      5  C   UNL     1      -1.429   0.825   0.000  0.00  0.00    +0.000 A 
ATOM      6  C   UNL     1      -1.429  -0.825   0.000  0.00  0.00    +0.000 A 
ATOM      7  C   UNL     1      -2.143  -0.412   0.000  0.00  0.00    +0.000 A 
ATOM      8  C   UNL     1      -2.143   0.412   0.000  0.00  0.00    +0.000 A 
ATOM      9  C   UNL     1       2.143   0.412   0.000  0.00  0.00    +0.000 A 
ATOM     10  N   UNL     1       0.000  -0.825   0.000  0.00  0.00    +0.000 NA
ATOM     11  N   UNL     1       1.429   0.825   0.000  0.00  0.00    +0.000 NA
ATOM     12  C   UNL     1       1.429  -0.825   0.000  0.00  0.00    +0.000 A 
ATOM     13  O   UNL     1       1.429  -1.650   0.000  0.00  0.00    +0.000 OA
ATOM     14  O   UNL     1       2.858   0.825   0.000  0.00  0.00    +0.000 OA
ATOM     15  N   UNL     1       2.143  -0.412   0.000  0.00  0.00    +0.000 NA
ATOM     16  N   UNL     1       0.000   0.825   0.000  0.00  0.00    +0.000 N 
ATOM     17  C   UNL     1      -2.858   0.825   0.000  0.00  0.00    +0.000 C 
ATOM     18  C   UNL     1      -2.858  -0.825   0.000  0.00  0.00    +0.000 C 
ENDROOT
BRANCH  16  19
ATOM     19  C   UNL     1       0.000   1.650   0.000  0.00  0.00    +0.000 C 
BRANCH  19  20
ATOM     20  C   UNL     1      -0.715   2.062   0.000  0.00  0.00    +0.000 C 
ATOM     21  O   UNL     1      -1.429   1.650   0.000  0.00  0.00    +0.000 OA
BRANCH  20  22
ATOM     22  C   UNL     1      -0.715   2.888   0.000  0.00  0.00    +0.000 C 
ATOM     23  O   UNL     1       0.000   3.300   0.000  0.00  0.00    +0.000 OA
BRANCH  22  24
ATOM     24  C   UNL     1      -1.429   3.300   0.000  0.00  0.00    +0.000 C 
ATOM     25  O   UNL     1      -2.143   2.888   0.000  0.00  0.00    +0.000 OA
BRANCH  24  26
ATOM     26  C   UNL     1      -1.429   4.125   0.000  0.00  0.00    +0.000 C 
ATOM     27  O   UNL     1      -2.143   4.537   0.000  0.00  0.00    +0.000 OA
ENDBRANCH  24  26
ENDBRANCH  22  24
ENDBRANCH  20  22
ENDBRANCH  19  20
ENDBRANCH  16  19
TORSDOF 5
