REMARK  Name = 
REMARK  6 active torsions:
REMARK  status: ('A' for Active; 'I' for Inactive)
REMARK    1  A    between atoms: N_5  and  C_6
REMARK    2  A    between atoms: C_8  and  S_33
REMARK    3  A    between atoms: C_14  and  N_15
REMARK    4  A    between atoms: N_16  and  C_17
REMARK    5  A    between atoms: C_22  and  S_23
REMARK    6  A    between atoms: C_27  and  S_29
REMARK                            x       y       z     vdW  Elec       q    Type
REMARK                         _______ _______ _______ _____ _____    ______ ____
ROOT
ATOM      1  C   UNL     1       0.000   0.000   0.000  0.00  0.00    +0.000 A 
ATOM      2  C   UNL     1      -0.715  -0.412   0.000  0.00  0.00    +0.000 A 
ATOM      3  C   UNL     1      -0.715  -1.238   0.000  0.00  0.00    +0.000 A 
ATOM      4  C   UNL     1       0.000  -1.650   0.000  0.00  0.00    +0.000 A 
ATOM      5  C   UNL     1       0.715  -1.238   0.000  0.00  0.00    +0.000 A 
ATOM      6  C   UNL     1       0.715  -0.412   0.000  0.00  0.00    +0.000 A 
ATOM      7  C   UNL     1       1.429   0.000   0.000  0.00  0.00    +0.000 A 
ATOM      8  O   UNL     1       1.429   0.825   0.000  0.00  0.00    +0.000 OA
ATOM      9  C   UNL     1       2.143  -0.412   0.000  0.00  0.00    +0.000 A 
ATOM     10  C   UNL     1       2.143  -1.238   0.000  0.00  0.00    +0.000 A 
ATOM     11  C   UNL     1       1.429  -1.650   0.000  0.00  0.00    +0.000 A 
ENDROOT
BRANCH   1  16
ATOM     12  N   UNL     1      -1.429   3.300   0.000  0.00  0.00    +0.000 NA
ATOM     13  C   UNL     1      -1.429   2.475   0.000  0.00  0.00    +0.000 A 
ATOM     14  N   UNL     1      -0.715   2.062   0.000  0.00  0.00    +0.000 NA
ATOM     15  C   UNL     1      -0.715   1.238   0.000  0.00  0.00    +0.000 A 
ATOM     16  N   UNL     1       0.000   0.825   0.000  0.00  0.00    +0.000 NA
ATOM     17  N   UNL     1      -1.429   0.825   0.000  0.00  0.00    +0.000 NA
ATOM     18  C   UNL     1      -2.143   1.238   0.000  0.00  0.00    +0.000 A 
ATOM     19  N   UNL     1      -2.858   0.825   0.000  0.00  0.00    +0.000 NA
ATOM     20  N   UNL     1      -2.143   2.062   0.000  0.00  0.00    +0.000 NA
ENDBRANCH   1  16
BRANCH  10  21
ATOM     21  S   UNL     1       2.858  -1.650   0.000  0.00  0.00    +0.000 S 
ATOM     22  O   UNL     1       3.572  -2.062   0.000  0.00  0.00    +0.000 OA
ATOM     23  O   UNL     1       2.445  -2.365   0.000  0.00  0.00    +0.000 OA
ATOM     24  O   UNL     1       3.270  -0.935   0.000  0.00  0.00    +0.000 OA
ENDBRANCH  10  21
BRANCH   3  25
ATOM     25  S   UNL     1      -1.429  -1.650   0.000  0.00  0.00    +0.000 S 
ATOM     26  O   UNL     1      -2.143  -2.062   0.000  0.00  0.00    +0.000 OA
ATOM     27  O   UNL     1      -1.016  -2.365   0.000  0.00  0.00    +0.000 OA
ATOM     28  O   UNL     1      -1.841  -0.935   0.000  0.00  0.00    +0.000 OA
ENDBRANCH   3  25
BRANCH   9  29
ATOM     29  N   UNL     1       2.858   0.000   0.000  0.00  0.00    +0.000 NA
ATOM     30  N   UNL     1       2.858   0.825   0.000  0.00  0.00    +0.000 NA
BRANCH  30  31
ATOM     31  C   UNL     1       3.572   1.238   0.000  0.00  0.00    +0.000 A 
ATOM     32  C   UNL     1       3.572   2.062   0.000  0.00  0.00    +0.000 A 
ATOM     33  C   UNL     1       4.287   2.475   0.000  0.00  0.00    +0.000 A 
ATOM     34  C   UNL     1       5.001   2.062   0.000  0.00  0.00    +0.000 A 
ATOM     35  C   UNL     1       5.001   1.238   0.000  0.00  0.00    +0.000 A 
ATOM     36  C   UNL     1       4.287   0.825   0.000  0.00  0.00    +0.000 A 
BRANCH  36  37
ATOM     37  S   UNL     1       4.287   0.000   0.000  0.00  0.00    +0.000 S 
ATOM     38  O   UNL     1       4.287  -0.825   0.000  0.00  0.00    +0.000 OA
ATOM     39  O   UNL     1       3.462   0.000   0.000  0.00  0.00    +0.000 OA
ATOM     40  O   UNL     1       5.112   0.000   0.000  0.00  0.00    +0.000 OA
ENDBRANCH  36  37
ENDBRANCH  30  31
ENDBRANCH   9  29
TORSDOF 6
