REMARK  Name = 
REMARK  13 active torsions:
REMARK  status: ('A' for Active; 'I' for Inactive)
REMARK    1  A    between atoms: C_2  and  C_3
REMARK    2  A    between atoms: C_3  and  C_4
REMARK    3  A    between atoms: C_4  and  C_5
REMARK    4  A    between atoms: C_5  and  C_6
REMARK    5  A    between atoms: C_6  and  C_7
REMARK    6  A    between atoms: C_7  and  C_13
REMARK    7  A    between atoms: C_8  and  C_11
REMARK    8  A    between atoms: C_9  and  C_12
REMARK    9  A    between atoms: C_10  and  C_20
REMARK   10  A    between atoms: C_13  and  O_30
REMARK   11  A    between atoms: C_17  and  O_30
REMARK   12  A    between atoms: C_19  and  O_32
REMARK   13  A    between atoms: C_20  and  O_32
REMARK                            x       y       z     vdW  Elec       q    Type
REMARK                         _______ _______ _______ _____ _____    ______ ____
ROOT
ATOM      1  C   UNL     1      10.003  -2.475   0.000  0.00  0.00    +0.000 C 
ATOM      2  C   UNL     1       9.288  -2.888   0.000  0.00  0.00    +0.000 C 
ATOM      3  C   UNL     1      10.003  -4.125   0.000  0.00  0.00    +0.000 C 
ATOM      4  C   UNL     1       9.288  -3.712   0.000  0.00  0.00    +0.000 C 
ATOM      5  C   UNL     1      10.717  -3.712   0.000  0.00  0.00    +0.000 C 
ATOM      6  O   UNL     1       8.574  -2.475   0.000  0.00  0.00    +0.000 OA
ATOM      7  O   UNL     1      10.003  -4.950   0.000  0.00  0.00    +0.000 OA
ATOM      8  O   UNL     1      10.717  -2.888   0.000  0.00  0.00    +0.000 OA
ENDROOT
BRANCH   1   9
ATOM      9  C   UNL     1      10.003  -1.650   0.000  0.00  0.00    +0.000 C 
ATOM     10  O   UNL     1      10.717  -1.238   0.000  0.00  0.00    +0.000 OA
ENDBRANCH   1   9
BRANCH   4  11
ATOM     11  O   UNL     1       8.574  -4.125   0.000  0.00  0.00    +0.000 OA
BRANCH  11  12
ATOM     12  C   UNL     1       7.859  -3.712   0.000  0.00  0.00    +0.000 C 
ATOM     13  O   UNL     1       7.859  -2.888   0.000  0.00  0.00    +0.000 OA
BRANCH  12  14
ATOM     14  C   UNL     1       7.145  -4.125   0.000  0.00  0.00    +0.000 C 
BRANCH  14  15
ATOM     15  C   UNL     1       6.430  -3.712   0.000  0.00  0.00    +0.000 C 
BRANCH  15  16
ATOM     16  C   UNL     1       5.716  -4.125   0.000  0.00  0.00    +0.000 C 
BRANCH  16  17
ATOM     17  C   UNL     1       5.001  -3.712   0.000  0.00  0.00    +0.000 C 
BRANCH  17  18
ATOM     18  C   UNL     1       4.287  -4.125   0.000  0.00  0.00    +0.000 C 
BRANCH  18  20
ATOM     19  C   UNL     1       2.858  -4.125   0.000  0.00  0.00    +0.000 C 
ATOM     20  C   UNL     1       3.572  -3.712   0.000  0.00  0.00    +0.000 C 
ENDBRANCH  18  20
ENDBRANCH  17  18
ENDBRANCH  16  17
ENDBRANCH  15  16
ENDBRANCH  14  15
ENDBRANCH  12  14
ENDBRANCH  11  12
ENDBRANCH   4  11
BRANCH   5  21
ATOM     21  O   UNL     1      11.431  -4.125   0.000  0.00  0.00    +0.000 OA
BRANCH  21  25
ATOM     22  C   UNL     1      11.975  -6.170   0.000  0.00  0.00    +0.000 C 
ATOM     23  C   UNL     1      12.588  -5.617   0.000  0.00  0.00    +0.000 C 
ATOM     24  C   UNL     1      12.252  -4.864   0.000  0.00  0.00    +0.000 C 
ATOM     25  C   UNL     1      11.431  -4.950   0.000  0.00  0.00    +0.000 C 
ATOM     26  O   UNL     1      13.395  -5.789   0.000  0.00  0.00    +0.000 OA
ATOM     27  O   UNL     1      12.665  -4.149   0.000  0.00  0.00    +0.000 OA
ATOM     28  O   UNL     1      11.260  -5.757   0.000  0.00  0.00    +0.000 OA
BRANCH  22  29
ATOM     29  C   UNL     1      12.061  -6.990   0.000  0.00  0.00    +0.000 C 
ATOM     30  O   UNL     1      12.814  -7.325   0.000  0.00  0.00    +0.000 OA
ENDBRANCH  22  29
BRANCH  25  31
ATOM     31  C   UNL     1      10.611  -4.864   0.000  0.00  0.00    +0.000 C 
ATOM     32  O   UNL     1      10.126  -5.531   0.000  0.00  0.00    +0.000 OA
ENDBRANCH  25  31
ENDBRANCH  21  25
ENDBRANCH   5  21
TORSDOF 13
