REMARK  Name = 
REMARK  4 active torsions:
REMARK  status: ('A' for Active; 'I' for Inactive)
REMARK    1  A    between atoms: N_3  and  C_6
REMARK    2  A    between atoms: C_6  and  C_10
REMARK    3  A    between atoms: C_6  and  C_18
REMARK    4  A    between atoms: C_18  and  O_20
REMARK                            x       y       z     vdW  Elec       q    Type
REMARK                         _______ _______ _______ _____ _____    ______ ____
ROOT
ATOM      1  C   UNL     1       3.793  -0.206   0.000  0.00  0.00    +0.000 C 
ENDROOT
BRANCH   1   3
ATOM      2  S   UNL     1       6.718  -1.695   0.000  0.00  0.00    +0.000 S 
ATOM      3  N   UNL     1       4.508  -0.619   0.000  0.00  0.00    +0.000 NA
ATOM      4  C   UNL     1       4.508  -1.444   0.000  0.00  0.00    +0.000 C 
ATOM      5  C   UNL     1       5.222  -0.206   0.000  0.00  0.00    +0.000 C 
ATOM      6  C   UNL     1       5.222  -1.856   0.000  0.00  0.00    +0.000 C 
ATOM      7  C   UNL     1       5.937  -0.619   0.000  0.00  0.00    +0.000 A 
ATOM      8  C   UNL     1       5.937  -1.444   0.000  0.00  0.00    +0.000 A 
ATOM      9  C   UNL     1       6.718  -0.367   0.000  0.00  0.00    +0.000 A 
ATOM     10  C   UNL     1       7.199  -1.031   0.000  0.00  0.00    +0.000 A 
ENDBRANCH   1   3
BRANCH   1  12
ATOM     11 CL   UNL     1       2.365   0.619   0.000  0.00  0.00    +0.000 Cl
ATOM     12  C   UNL     1       3.079  -0.619   0.000  0.00  0.00    +0.000 A 
ATOM     13  C   UNL     1       2.365  -0.206   0.000  0.00  0.00    +0.000 A 
ATOM     14  C   UNL     1       3.079  -1.444   0.000  0.00  0.00    +0.000 A 
ATOM     15  C   UNL     1       1.650  -0.619   0.000  0.00  0.00    +0.000 A 
ATOM     16  C   UNL     1       2.365  -1.856   0.000  0.00  0.00    +0.000 A 
ATOM     17  C   UNL     1       1.650  -1.444   0.000  0.00  0.00    +0.000 A 
ENDBRANCH   1  12
BRANCH   1  18
ATOM     18  C   UNL     1       3.793   0.619   0.000  0.00  0.00    +0.000 C 
ATOM     19  O   UNL     1       3.079   1.031   0.000  0.00  0.00    +0.000 OA
BRANCH  18  20
ATOM     20  O   UNL     1       4.508   1.031   0.000  0.00  0.00    +0.000 OA
ATOM     21  C   UNL     1       5.222   1.444   0.000  0.00  0.00    +0.000 C 
ENDBRANCH  18  20
ENDBRANCH   1  18
TORSDOF 4
