REMARK  Name = 
REMARK  11 active torsions:
REMARK  status: ('A' for Active; 'I' for Inactive)
REMARK    1  A    between atoms: C_2  and  C_3
REMARK    2  A    between atoms: C_3  and  C_5
REMARK    3  A    between atoms: C_5  and  C_7
REMARK    4  A    between atoms: C_7  and  C_9
REMARK    5  A    between atoms: C_9  and  N_10
REMARK    6  A    between atoms: N_13  and  C_14
REMARK    7  A    between atoms: C_14  and  C_15
REMARK    8  A    between atoms: C_15  and  C_16
REMARK    9  A    between atoms: C_16  and  C_17
REMARK   10  A    between atoms: C_17  and  O_18
REMARK   11  A    between atoms: O_18  and  P_19
REMARK                            x       y       z     vdW  Elec       q    Type
REMARK                         _______ _______ _______ _____ _____    ______ ____
ROOT
ATOM      1  N   UNL     1      -0.833  -1.383   0.000  0.00  0.00    +0.000 N 
ATOM      2  C   UNL     1      -0.281  -1.997   0.000  0.00  0.00    +0.000 A 
ATOM      3  O   UNL     1      -0.452  -2.804   0.000  0.00  0.00    +0.000 OA
ATOM      4  N   UNL     1       0.473  -1.661   0.000  0.00  0.00    +0.000 N 
ATOM      5  C   UNL     1       0.387  -0.841   0.000  0.00  0.00    +0.000 A 
ATOM      6  C   UNL     1      -0.420  -0.669   0.000  0.00  0.00    +0.000 A 
ATOM      7  N   UNL     1      -0.675   0.116   0.000  0.00  0.00    +0.000 NA
ATOM      8  C   UNL     1      -0.123   0.729   0.000  0.00  0.00    +0.000 A 
ATOM      9  O   UNL     1      -0.378   1.513   0.000  0.00  0.00    +0.000 OA
ATOM     10  N   UNL     1       0.684   0.557   0.000  0.00  0.00    +0.000 NA
ATOM     11  C   UNL     1       0.939  -0.228   0.000  0.00  0.00    +0.000 A 
ATOM     12  O   UNL     1       1.746  -0.399   0.000  0.00  0.00    +0.000 OA
ENDROOT
BRANCH   1  13
ATOM     13  C   UNL     1      -1.653  -1.470   0.000  0.00  0.00    +0.000 C 
BRANCH  13  14
ATOM     14  C   UNL     1      -2.138  -0.802   0.000  0.00  0.00    +0.000 C 
ATOM     15  O   UNL     1      -1.802  -0.049   0.000  0.00  0.00    +0.000 OA
BRANCH  14  16
ATOM     16  C   UNL     1      -2.959  -0.888   0.000  0.00  0.00    +0.000 C 
ATOM     17  O   UNL     1      -3.294  -1.642   0.000  0.00  0.00    +0.000 OA
BRANCH  16  18
ATOM     18  C   UNL     1      -3.443  -0.221   0.000  0.00  0.00    +0.000 C 
ATOM     19  O   UNL     1      -3.108   0.533   0.000  0.00  0.00    +0.000 OA
BRANCH  18  21
ATOM     20  O   UNL     1      -4.749   0.360   0.000  0.00  0.00    +0.000 OA
ATOM     21  C   UNL     1      -4.264  -0.307   0.000  0.00  0.00    +0.000 C 
ENDBRANCH  18  21
ENDBRANCH  16  18
ENDBRANCH  14  16
ENDBRANCH  13  14
ENDBRANCH   1  13
BRANCH   4  22
ATOM     22  C   UNL     1       1.188  -2.074   0.000  0.00  0.00    +0.000 C 
BRANCH  22  23
ATOM     23  C   UNL     1       1.902  -1.661   0.000  0.00  0.00    +0.000 C 
BRANCH  23  24
ATOM     24  C   UNL     1       2.616  -2.074   0.000  0.00  0.00    +0.000 C 
BRANCH  24  25
ATOM     25  C   UNL     1       3.331  -1.661   0.000  0.00  0.00    +0.000 C 
BRANCH  25  26
ATOM     26  O   UNL     1       4.045  -2.074   0.000  0.00  0.00    +0.000 OA
BRANCH  26  27
ATOM     27  P   UNL     1       4.760  -1.661   0.000  0.00  0.00    +0.000 P 
ATOM     28  O   UNL     1       5.474  -1.248   0.000  0.00  0.00    +0.000 OA
ATOM     29  O   UNL     1       5.172  -2.376   0.000  0.00  0.00    +0.000 OA
ATOM     30  O   UNL     1       4.347  -0.947   0.000  0.00  0.00    +0.000 OA
ENDBRANCH  26  27
ENDBRANCH  25  26
ENDBRANCH  24  25
ENDBRANCH  23  24
ENDBRANCH  22  23
ENDBRANCH   4  22
TORSDOF 11
