REMARK  Name = 
REMARK  9 active torsions:
REMARK  status: ('A' for Active; 'I' for Inactive)
REMARK    1  A    between atoms: C_1  and  C_29
REMARK    2  A    between atoms: C_4  and  C_9
REMARK    3  A    between atoms: C_7  and  N_13
REMARK    4  A    between atoms: C_7  and  O_14
REMARK    5  A    between atoms: C_16  and  C_17
REMARK    6  A    between atoms: C_22  and  C_23
REMARK    7  A    between atoms: C_22  and  C_24
REMARK    8  A    between atoms: C_29  and  S_30
REMARK    9  A    between atoms: S_30  and  C_31
REMARK                            x       y       z     vdW  Elec       q    Type
REMARK                         _______ _______ _______ _____ _____    ______ ____
ROOT
ATOM      1  C   UNL     1       9.564  -6.039   0.000  0.00  0.00    +0.000 C 
ATOM      2  C   UNL     1       9.564  -5.214   0.000  0.00  0.00    +0.000 C 
ATOM      3  S   UNL     1       8.854  -4.808   0.000  0.00  0.00    +0.000 S 
ATOM      4  C   UNL     1       8.854  -6.452   0.000  0.00  0.00    +0.000 C 
ATOM      5  N   UNL     1       8.139  -6.039   0.000  0.00  0.00    +0.000 N 
ATOM      6  C   UNL     1       8.139  -5.214   0.000  0.00  0.00    +0.000 C 
ATOM      7  C   UNL     1       7.320  -5.214   0.000  0.00  0.00    +0.000 C 
ATOM      8  C   UNL     1       7.320  -6.039   0.000  0.00  0.00    +0.000 C 
ATOM      9  O   UNL     1       6.605  -6.452   0.000  0.00  0.00    +0.000 OA
ENDROOT
BRANCH   7  10
ATOM     10  N   UNL     1       6.605  -4.808   0.000  0.00  0.00    +0.000 NA
ATOM     11  C   UNL     1       5.890  -5.214   0.000  0.00  0.00    +0.000 C 
ATOM     12  O   UNL     1       5.890  -6.039   0.000  0.00  0.00    +0.000 OA
BRANCH  11  13
ATOM     13  C   UNL     1       5.175  -4.808   0.000  0.00  0.00    +0.000 C 
ATOM     14  S   UNL     1       4.960  -4.010   0.000  0.00  0.00    +0.000 S 
ATOM     15  C   UNL     1       4.163  -4.225   0.000  0.00  0.00    +0.000 C 
ATOM     16  S   UNL     1       4.378  -5.022   0.000  0.00  0.00    +0.000 S 
ATOM     17  C   UNL     1       3.448  -3.812   0.000  0.00  0.00    +0.000 C 
BRANCH  17  18
ATOM     18  C   UNL     1       2.733  -4.225   0.000  0.00  0.00    +0.000 C 
ATOM     19  N   UNL     1       2.733  -5.050   0.000  0.00  0.00    +0.000 NA
ATOM     20  O   UNL     1       2.018  -3.812   0.000  0.00  0.00    +0.000 OA
ENDBRANCH  17  18
BRANCH  17  21
ATOM     21  C   UNL     1       3.448  -2.987   0.000  0.00  0.00    +0.000 C 
ATOM     22  O   UNL     1       4.163  -2.575   0.000  0.00  0.00    +0.000 OA
ATOM     23  O   UNL     1       2.733  -2.575   0.000  0.00  0.00    +0.000 OA
ENDBRANCH  17  21
ENDBRANCH  11  13
ENDBRANCH   7  10
BRANCH   4  24
ATOM     24  C   UNL     1       8.854  -7.277   0.000  0.00  0.00    +0.000 C 
ATOM     25  O   UNL     1       8.139  -7.689   0.000  0.00  0.00    +0.000 OA
ATOM     26  O   UNL     1       9.564  -7.689   0.000  0.00  0.00    +0.000 OA
ENDBRANCH   4  24
BRANCH   7  27
ATOM     27  O   UNL     1       7.320  -4.395   0.000  0.00  0.00    +0.000 OA
ATOM     28  C   UNL     1       6.605  -3.983   0.000  0.00  0.00    +0.000 C 
ENDBRANCH   7  27
BRANCH   1  29
ATOM     29  C   UNL     1      10.278  -6.452   0.000  0.00  0.00    +0.000 C 
BRANCH  29  30
ATOM     30  S   UNL     1      10.993  -6.039   0.000  0.00  0.00    +0.000 S 
BRANCH  30  31
ATOM     31  C   UNL     1      10.994  -5.214   0.000  0.00  0.00    +0.000 A 
ATOM     32  N   UNL     1      10.329  -4.727   0.000  0.00  0.00    +0.000 NA
ATOM     33  N   UNL     1      10.586  -3.942   0.000  0.00  0.00    +0.000 NA
ATOM     34  N   UNL     1      11.412  -3.943   0.000  0.00  0.00    +0.000 NA
ATOM     35  N   UNL     1      11.662  -4.729   0.000  0.00  0.00    +0.000 N 
ATOM     36  C   UNL     1      12.447  -4.986   0.000  0.00  0.00    +0.000 C 
ENDBRANCH  30  31
ENDBRANCH  29  30
ENDBRANCH   1  29
TORSDOF 9
