REMARK  Name = 
REMARK  8 active torsions:
REMARK  status: ('A' for Active; 'I' for Inactive)
REMARK    1  A    between atoms: C_5  and  C_7
REMARK    2  A    between atoms: C_7  and  N_8
REMARK    3  A    between atoms: N_8  and  N_9
REMARK    4  A    between atoms: C_10  and  C_11
REMARK    5  A    between atoms: C_11  and  C_12
REMARK    6  A    between atoms: N_13  and  N_14
REMARK    7  A    between atoms: N_14  and  C_15
REMARK    8  A    between atoms: C_15  and  C_16
REMARK                            x       y       z     vdW  Elec       q    Type
REMARK                         _______ _______ _______ _____ _____    ______ ____
ROOT
ATOM      1  C   UNL     1      -0.994  -0.294   0.000  0.00  0.00    +0.000 C 
ENDROOT
BRANCH   1   2
ATOM      2  C   UNL     1      -0.280   0.119   0.000  0.00  0.00    +0.000 C 
ATOM      3  N   UNL     1       0.434  -0.294   0.000  0.00  0.00    +0.000 NA
ATOM      4  O   UNL     1      -0.280   0.944   0.000  0.00  0.00    +0.000 OA
BRANCH   3   5
ATOM      5  N   UNL     1       1.149   0.119   0.000  0.00  0.00    +0.000 N 
ATOM      6  C   UNL     1       1.149   0.944   0.000  0.00  0.00    +0.000 C 
BRANCH   5   7
ATOM      7  C   UNL     1       1.863  -0.294   0.000  0.00  0.00    +0.000 C 
ATOM      8  S   UNL     1       1.863  -1.119   0.000  0.00  0.00    +0.000 S 
BRANCH   7   9
ATOM      9  C   UNL     1       2.578   0.119   0.000  0.00  0.00    +0.000 A 
ATOM     10  C   UNL     1       3.292   1.356   0.000  0.00  0.00    +0.000 A 
ATOM     11  C   UNL     1       2.578   0.944   0.000  0.00  0.00    +0.000 A 
ATOM     12  C   UNL     1       3.292  -0.294   0.000  0.00  0.00    +0.000 A 
ATOM     13  C   UNL     1       4.007   0.119   0.000  0.00  0.00    +0.000 A 
ATOM     14  C   UNL     1       4.007   0.944   0.000  0.00  0.00    +0.000 A 
ENDBRANCH   7   9
ENDBRANCH   5   7
ENDBRANCH   3   5
ENDBRANCH   1   2
BRANCH   1  16
ATOM     15  N   UNL     1      -2.423  -0.294   0.000  0.00  0.00    +0.000 NA
ATOM     16  C   UNL     1      -1.709   0.119   0.000  0.00  0.00    +0.000 C 
ATOM     17  O   UNL     1      -1.709   0.944   0.000  0.00  0.00    +0.000 OA
BRANCH  15  18
ATOM     18  N   UNL     1      -3.138   0.119   0.000  0.00  0.00    +0.000 N 
ATOM     19  C   UNL     1      -3.138   0.944   0.000  0.00  0.00    +0.000 C 
BRANCH  18  20
ATOM     20  C   UNL     1      -3.852  -0.294   0.000  0.00  0.00    +0.000 C 
ATOM     21  S   UNL     1      -3.852  -1.119   0.000  0.00  0.00    +0.000 S 
BRANCH  20  26
ATOM     22  C   UNL     1      -5.281   1.356   0.000  0.00  0.00    +0.000 A 
ATOM     23  C   UNL     1      -5.996   0.944   0.000  0.00  0.00    +0.000 A 
ATOM     24  C   UNL     1      -5.996   0.119   0.000  0.00  0.00    +0.000 A 
ATOM     25  C   UNL     1      -5.281  -0.294   0.000  0.00  0.00    +0.000 A 
ATOM     26  C   UNL     1      -4.567   0.119   0.000  0.00  0.00    +0.000 A 
ATOM     27  C   UNL     1      -4.567   0.944   0.000  0.00  0.00    +0.000 A 
ENDBRANCH  20  26
ENDBRANCH  18  20
ENDBRANCH  15  18
ENDBRANCH   1  16
TORSDOF 8
