REMARK  Name = 
REMARK  9 active torsions:
REMARK  status: ('A' for Active; 'I' for Inactive)
REMARK    1  A    between atoms: C_1  and  O_10
REMARK    2  A    between atoms: C_4  and  C_25
REMARK    3  A    between atoms: O_10  and  C_11
REMARK    4  A    between atoms: C_11  and  C_12
REMARK    5  A    between atoms: C_12  and  C_13
REMARK    6  A    between atoms: C_17  and  C_19
REMARK    7  A    between atoms: C_25  and  C_26
REMARK    8  A    between atoms: C_26  and  O_27
REMARK    9  A    between atoms: C_26  and  C_28
REMARK                            x       y       z     vdW  Elec       q    Type
REMARK                         _______ _______ _______ _____ _____    ______ ____
ROOT
ATOM      1  C   UNL     1      -1.915   0.737   0.000  0.00  0.00    +0.000 A 
ATOM      2  C   UNL     1      -2.630   0.324   0.000  0.00  0.00    +0.000 A 
ATOM      3  C   UNL     1      -2.630  -0.501   0.000  0.00  0.00    +0.000 A 
ATOM      4  C   UNL     1      -1.915  -0.913   0.000  0.00  0.00    +0.000 A 
ATOM      5  C   UNL     1      -1.201  -0.501   0.000  0.00  0.00    +0.000 A 
ATOM      6  C   UNL     1      -1.201   0.324   0.000  0.00  0.00    +0.000 A 
ATOM      7  C   UNL     1      -3.374   0.707   0.000  0.00  0.00    +0.000 A 
ATOM      8  C   UNL     1      -3.911   0.118   0.000  0.00  0.00    +0.000 A 
ATOM      9  S   UNL     1      -3.521  -0.679   0.000  0.00  0.00    +0.000 S 
ENDROOT
BRANCH   1  10
ATOM     10  O   UNL     1      -1.915   1.562   0.000  0.00  0.00    +0.000 OA
BRANCH  10  11
ATOM     11  C   UNL     1      -1.201   1.974   0.000  0.00  0.00    +0.000 C 
BRANCH  11  12
ATOM     12  C   UNL     1      -0.486   1.562   0.000  0.00  0.00    +0.000 C 
BRANCH  12  13
ATOM     13  C   UNL     1       0.228   1.974   0.000  0.00  0.00    +0.000 A 
ATOM     14  O   UNL     1       1.220   2.867   0.000  0.00  0.00    +0.000 OA
ATOM     15  C   UNL     1       0.400   2.781   0.000  0.00  0.00    +0.000 A 
ATOM     16  N   UNL     1       0.943   1.562   0.000  0.00  0.00    +0.000 NA
ATOM     17  C   UNL     1       1.556   2.114   0.000  0.00  0.00    +0.000 A 
ATOM     18  C   UNL     1      -0.152   3.394   0.000  0.00  0.00    +0.000 C 
BRANCH  17  19
ATOM     19  C   UNL     1       2.363   1.942   0.000  0.00  0.00    +0.000 A 
ATOM     20  C   UNL     1       3.600   2.657   0.000  0.00  0.00    +0.000 A 
ATOM     21  C   UNL     1       2.775   2.657   0.000  0.00  0.00    +0.000 A 
ATOM     22  C   UNL     1       2.775   1.228   0.000  0.00  0.00    +0.000 A 
ATOM     23  C   UNL     1       3.600   1.228   0.000  0.00  0.00    +0.000 A 
ATOM     24  C   UNL     1       4.013   1.942   0.000  0.00  0.00    +0.000 A 
ENDBRANCH  17  19
ENDBRANCH  12  13
ENDBRANCH  11  12
ENDBRANCH  10  11
ENDBRANCH   1  10
BRANCH   4  25
ATOM     25  C   UNL     1      -1.915  -1.738   0.000  0.00  0.00    +0.000 C 
BRANCH  25  26
ATOM     26  C   UNL     1      -1.201  -2.151   0.000  0.00  0.00    +0.000 C 
BRANCH  26  27
ATOM     27  C   UNL     1      -0.486  -1.738   0.000  0.00  0.00    +0.000 C 
ATOM     28  O   UNL     1       0.228  -2.151   0.000  0.00  0.00    +0.000 OA
ATOM     29  O   UNL     1      -0.486  -0.913   0.000  0.00  0.00    +0.000 OA
ENDBRANCH  26  27
BRANCH  26  30
ATOM     30  O   UNL     1      -1.201  -2.976   0.000  0.00  0.00    +0.000 OA
ATOM     31  C   UNL     1      -1.990  -3.559   0.000  0.00  0.00    +0.000 C 
ENDBRANCH  26  30
ENDBRANCH  25  26
ENDBRANCH   4  25
TORSDOF 9
