REMARK  Name = 
REMARK  3 active torsions:
REMARK  status: ('A' for Active; 'I' for Inactive)
REMARK    1  A    between atoms: O_1  and  C_6
REMARK    2  A    between atoms: C_5  and  C_11
REMARK    3  A    between atoms: C_12  and  C_14
REMARK                            x       y       z     vdW  Elec       q    Type
REMARK                         _______ _______ _______ _____ _____    ______ ____
ROOT
ATOM      1  O   UNL     1      18.295  -9.990   0.000  0.00  0.00    +0.000 OA
ATOM      2  C   UNL     1      18.295  -7.515   0.000  0.00  0.00    +0.000 A 
ATOM      3  C   UNL     1      17.581  -8.752   0.000  0.00  0.00    +0.000 A 
ATOM      4  C   UNL     1      17.581  -7.928   0.000  0.00  0.00    +0.000 A 
ATOM      5  C   UNL     1      19.010  -7.928   0.000  0.00  0.00    +0.000 A 
ATOM      6  C   UNL     1      18.295  -9.165   0.000  0.00  0.00    +0.000 A 
ATOM      7  C   UNL     1      19.010  -8.752   0.000  0.00  0.00    +0.000 A 
ENDROOT
BRANCH   3   8
ATOM      8  O   UNL     1      16.866  -9.165   0.000  0.00  0.00    +0.000 OA
ATOM      9  C   UNL     1      16.152  -8.752   0.000  0.00  0.00    +0.000 C 
ENDBRANCH   3   8
BRANCH   2  10
ATOM     10  C   UNL     1      18.295  -6.690   0.000  0.00  0.00    +0.000 C 
ATOM     11  C   UNL     1      19.010  -6.277   0.000  0.00  0.00    +0.000 C 
BRANCH  11  14
ATOM     12  O   UNL     1      19.724  -5.040   0.000  0.00  0.00    +0.000 OA
ATOM     13  O   UNL     1      18.295  -5.040   0.000  0.00  0.00    +0.000 OA
ATOM     14  C   UNL     1      19.010  -5.452   0.000  0.00  0.00    +0.000 C 
ENDBRANCH  11  14
ENDBRANCH   2  10
TORSDOF 3
