REMARK  Name = 
REMARK  16 active torsions:
REMARK  status: ('A' for Active; 'I' for Inactive)
REMARK    1  A    between atoms: C_2  and  C_4
REMARK    2  A    between atoms: C_4  and  N_5
REMARK    3  A    between atoms: N_5  and  C_6
REMARK    4  A    between atoms: N_5  and  S_37
REMARK    5  A    between atoms: C_6  and  C_7
REMARK    6  A    between atoms: C_7  and  C_9
REMARK    7  A    between atoms: C_9  and  C_10
REMARK    8  A    between atoms: C_9  and  N_17
REMARK    9  A    between atoms: C_10  and  C_11
REMARK   10  A    between atoms: C_18  and  C_20
REMARK   11  A    between atoms: C_20  and  C_21
REMARK   12  A    between atoms: C_20  and  N_24
REMARK   13  A    between atoms: N_27  and  C_28
REMARK   14  A    between atoms: C_28  and  C_29
REMARK   15  A    between atoms: S_37  and  C_40
REMARK   16  A    between atoms: C_43  and  C_46
REMARK                            x       y       z     vdW  Elec       q    Type
REMARK                         _______ _______ _______ _____ _____    ______ ____
ROOT
ATOM      1  C   UNL     1       4.203  -1.789   0.000  0.00  0.00    +0.000 C 
ENDROOT
BRANCH   1   2
ATOM      2  N   UNL     1       4.996  -2.017   0.000  0.00  0.00    +0.000 NA
ATOM      3  C   UNL     1       5.590  -1.445   0.000  0.00  0.00    +0.000 C 
ATOM      4  O   UNL     1       5.392  -0.644   0.000  0.00  0.00    +0.000 OA
BRANCH   3   5
ATOM      5  C   UNL     1       6.383  -1.674   0.000  0.00  0.00    +0.000 C 
BRANCH   5   6
ATOM      6  N   UNL     1       6.977  -1.102   0.000  0.00  0.00    +0.000 N 
ATOM      7  C   UNL     1       7.790  -1.247   0.000  0.00  0.00    +0.000 C 
ATOM      8  C   UNL     1       8.178  -0.519   0.000  0.00  0.00    +0.000 C 
ATOM      9  N   UNL     1       7.606   0.075   0.000  0.00  0.00    +0.000 N 
ATOM     10  C   UNL     1       6.864  -0.285   0.000  0.00  0.00    +0.000 C 
ATOM     11  O   UNL     1       6.136   0.104   0.000  0.00  0.00    +0.000 OA
BRANCH   9  12
ATOM     12  C   UNL     1       7.751   0.888   0.000  0.00  0.00    +0.000 C 
BRANCH  12  13
ATOM     13  C   UNL     1       7.120   1.419   0.000  0.00  0.00    +0.000 A 
ATOM     14  C   UNL     1       6.319   1.221   0.000  0.00  0.00    +0.000 A 
ATOM     15  S   UNL     1       5.883   1.921   0.000  0.00  0.00    +0.000 S 
ATOM     16  C   UNL     1       6.415   2.552   0.000  0.00  0.00    +0.000 A 
ATOM     17  C   UNL     1       6.216   3.353   0.000  0.00  0.00    +0.000 C 
ATOM     18  N   UNL     1       7.179   2.242   0.000  0.00  0.00    +0.000 NA
ENDBRANCH  12  13
ENDBRANCH   9  12
ENDBRANCH   5   6
BRANCH   5  19
ATOM     19  C   UNL     1       6.581  -2.475   0.000  0.00  0.00    +0.000 C 
ATOM     20  C   UNL     1       7.374  -2.704   0.000  0.00  0.00    +0.000 C 
ATOM     21  C   UNL     1       5.987  -3.047   0.000  0.00  0.00    +0.000 C 
ENDBRANCH   5  19
ENDBRANCH   3   5
ENDBRANCH   1   2
BRANCH   1  22
ATOM     22  C   UNL     1       3.609  -2.361   0.000  0.00  0.00    +0.000 C 
ATOM     23  O   UNL     1       3.807  -3.161   0.000  0.00  0.00    +0.000 OA
BRANCH  22  24
ATOM     24  C   UNL     1       2.816  -2.132   0.000  0.00  0.00    +0.000 C 
BRANCH  24  25
ATOM     25  N   UNL     1       2.222  -2.704   0.000  0.00  0.00    +0.000 NA
BRANCH  25  26
ATOM     26  S   UNL     1       2.420  -3.505   0.000  0.00  0.00    +0.000 S 
ATOM     27  O   UNL     1       1.619  -3.703   0.000  0.00  0.00    +0.000 OA
ATOM     28  O   UNL     1       3.221  -3.307   0.000  0.00  0.00    +0.000 OA
BRANCH  26  29
ATOM     29  C   UNL     1       2.618  -4.306   0.000  0.00  0.00    +0.000 A 
ATOM     30  C   UNL     1       3.410  -4.534   0.000  0.00  0.00    +0.000 A 
ATOM     31  C   UNL     1       3.609  -5.335   0.000  0.00  0.00    +0.000 A 
ATOM     32  C   UNL     1       3.014  -5.907   0.000  0.00  0.00    +0.000 A 
ATOM     33  C   UNL     1       2.222  -5.678   0.000  0.00  0.00    +0.000 A 
ATOM     34  C   UNL     1       2.023  -4.878   0.000  0.00  0.00    +0.000 A 
BRANCH  32  35
ATOM     35  C   UNL     1       3.212  -6.708   0.000  0.00  0.00    +0.000 C 
ATOM     36  N   UNL     1       2.618  -7.280   0.000  0.00  0.00    +0.000 NA
ATOM     37  O   UNL     1       2.816  -8.081   0.000  0.00  0.00    +0.000 OA
ENDBRANCH  32  35
ENDBRANCH  26  29
ENDBRANCH  25  26
BRANCH  25  38
ATOM     38  C   UNL     1       1.429  -2.475   0.000  0.00  0.00    +0.000 C 
BRANCH  38  40
ATOM     39  C   UNL     1       0.042  -2.818   0.000  0.00  0.00    +0.000 C 
ATOM     40  C   UNL     1       0.835  -3.047   0.000  0.00  0.00    +0.000 C 
ATOM     41  C   UNL     1       1.033  -3.848   0.000  0.00  0.00    +0.000 C 
ENDBRANCH  38  40
ENDBRANCH  25  38
ENDBRANCH  24  25
ENDBRANCH  22  24
ENDBRANCH   1  22
BRANCH   1  42
ATOM     42  C   UNL     1       4.005  -0.988   0.000  0.00  0.00    +0.000 C 
BRANCH  42  43
ATOM     43  C   UNL     1       3.212  -0.759   0.000  0.00  0.00    +0.000 A 
ATOM     44  C   UNL     1       2.618  -1.331   0.000  0.00  0.00    +0.000 A 
ATOM     45  C   UNL     1       1.825  -1.102   0.000  0.00  0.00    +0.000 A 
ATOM     46  C   UNL     1       1.627  -0.301   0.000  0.00  0.00    +0.000 A 
ATOM     47  C   UNL     1       2.222   0.271   0.000  0.00  0.00    +0.000 A 
ATOM     48  C   UNL     1       3.014   0.042   0.000  0.00  0.00    +0.000 A 
ENDBRANCH  42  43
ENDBRANCH   1  42
TORSDOF 16
