REMARK  Name = 
REMARK  4 active torsions:
REMARK  status: ('A' for Active; 'I' for Inactive)
REMARK    1  A    between atoms: C_1  and  C_2
REMARK    2  A    between atoms: C_1  and  O_16
REMARK    3  A    between atoms: C_2  and  C_6
REMARK    4  A    between atoms: O_16  and  P_18
REMARK                            x       y       z     vdW  Elec       q    Type
REMARK                         _______ _______ _______ _____ _____    ______ ____
ROOT
ATOM      1  C   UNL     1       1.429   0.825   0.000  0.00  0.00    +0.000 C 
ATOM      2  C   UNL     1       0.715   1.238   0.000  0.00  0.00    +0.000 C 
ATOM      3  C   UNL     1       1.429   0.000   0.000  0.00  0.00    +0.000 C 
ATOM      4  C   UNL     1       0.000   0.825   0.000  0.00  0.00    +0.000 C 
ATOM      5  C   UNL     1       0.715  -0.412   0.000  0.00  0.00    +0.000 C 
ATOM      6  O   UNL     1       2.143   1.238   0.000  0.00  0.00    +0.000 OA
ATOM      7  O   UNL     1       0.715   2.062   0.000  0.00  0.00    +0.000 OA
ATOM      8  O   UNL     1       2.143  -0.412   0.000  0.00  0.00    +0.000 OA
ATOM      9  O   UNL     1       0.715  -1.238   0.000  0.00  0.00    +0.000 OA
ATOM     10  O   UNL     1       0.000   0.000   0.000  0.00  0.00    +0.000 OA
ENDROOT
BRANCH   4  11
ATOM     11  C   UNL     1      -0.715   1.238   0.000  0.00  0.00    +0.000 C 
ATOM     12  O   UNL     1      -0.715   2.062   0.000  0.00  0.00    +0.000 OA
BRANCH  11  13
ATOM     13  C   UNL     1      -1.429   0.825   0.000  0.00  0.00    +0.000 C 
BRANCH  13  14
ATOM     14  O   UNL     1      -2.143   1.238   0.000  0.00  0.00    +0.000 OA
BRANCH  14  18
ATOM     15  O   UNL     1      -3.572   0.412   0.000  0.00  0.00    +0.000 OA
ATOM     16  O   UNL     1      -3.270   1.540   0.000  0.00  0.00    +0.000 OA
ATOM     17  O   UNL     1      -2.445   0.111   0.000  0.00  0.00    +0.000 OA
ATOM     18  P   UNL     1      -2.858   0.825   0.000  0.00  0.00    +0.000 P 
ENDBRANCH  14  18
ENDBRANCH  13  14
ENDBRANCH  11  13
ENDBRANCH   4  11
TORSDOF 4
