REMARK  Name = 
REMARK  1 active torsions:
REMARK  status: ('A' for Active; 'I' for Inactive)
REMARK    1  A    between atoms: C_2  and  C_5
REMARK                            x       y       z     vdW  Elec       q    Type
REMARK                         _______ _______ _______ _____ _____    ______ ____
ROOT
ATOM      1  C   UNL     1       0.715  -0.412   0.000  0.00  0.00    +0.000 C 
ATOM      2  N   UNL     1       0.000   0.000   0.000  0.00  0.00    +0.000 NA
ATOM      3  C   UNL     1       0.000   0.825   0.000  0.00  0.00    +0.000 C 
ATOM      4  N   UNL     1      -0.715   1.238   0.000  0.00  0.00    +0.000 NA
ATOM      5  C   UNL     1       0.715   1.238   0.000  0.00  0.00    +0.000 C 
ATOM      6  C   UNL     1       0.715   2.062   0.000  0.00  0.00    +0.000 C 
ATOM      7  C   UNL     1       1.429   0.825   0.000  0.00  0.00    +0.000 C 
ATOM      8  N   UNL     1       1.429   0.000   0.000  0.00  0.00    +0.000 NA
ENDROOT
BRANCH   1  10
ATOM      9  F   UNL     1       0.715  -2.062   0.000  0.00  0.00    +0.000 F 
ATOM     10  C   UNL     1       0.715  -1.238   0.000  0.00  0.00    +0.000 C 
ATOM     11  F   UNL     1       1.540  -1.238   0.000  0.00  0.00    +0.000 F 
ATOM     12  F   UNL     1      -0.111  -1.238   0.000  0.00  0.00    +0.000 F 
ENDBRANCH   1  10
TORSDOF 1
