REMARK  Name = 
REMARK  4 active torsions:
REMARK  status: ('A' for Active; 'I' for Inactive)
REMARK    1  A    between atoms: C_3  and  C_5
REMARK    2  A    between atoms: C_4  and  C_6
REMARK    3  A    between atoms: C_5  and  O_9
REMARK    4  A    between atoms: C_6  and  O_10
REMARK                            x       y       z     vdW  Elec       q    Type
REMARK                         _______ _______ _______ _____ _____    ______ ____
ROOT
ATOM      1  C   UNL     1       0.825   0.000   0.000  0.00  0.00    +0.000 C 
ATOM      2  C   UNL     1       0.000   0.000   0.000  0.00  0.00    +0.000 C 
ENDROOT
BRANCH   1   3
ATOM      3  C   UNL     1       1.238   0.714   0.000  0.00  0.00    +0.000 C 
ATOM      4  O   UNL     1       0.825   1.429   0.000  0.00  0.00    +0.000 OA
BRANCH   3   6
ATOM      5  C   UNL     1       2.475   1.429   0.000  0.00  0.00    +0.000 C 
ATOM      6  O   UNL     1       2.062   0.714   0.000  0.00  0.00    +0.000 OA
ENDBRANCH   3   6
ENDBRANCH   1   3
BRANCH   2   7
ATOM      7  C   UNL     1      -0.412  -0.714   0.000  0.00  0.00    +0.000 C 
ATOM      8  O   UNL     1       0.000  -1.429   0.000  0.00  0.00    +0.000 OA
BRANCH   7  10
ATOM      9  C   UNL     1      -1.650  -1.429   0.000  0.00  0.00    +0.000 C 
ATOM     10  O   UNL     1      -1.238  -0.714   0.000  0.00  0.00    +0.000 OA
ENDBRANCH   7  10
ENDBRANCH   2   7
TORSDOF 4
