REMARK  Name = 
REMARK  9 active torsions:
REMARK  status: ('A' for Active; 'I' for Inactive)
REMARK    1  A    between atoms: C_8  and  C_20
REMARK    2  A    between atoms: C_11  and  C_22
REMARK    3  A    between atoms: C_20  and  C_30
REMARK    4  A    between atoms: C_21  and  C_23
REMARK    5  A    between atoms: C_21  and  C_30
REMARK    6  A    between atoms: C_24  and  C_31
REMARK    7  A    between atoms: C_29  and  C_30
REMARK    8  A    between atoms: C_30  and  N_37
REMARK    9  A    between atoms: C_31  and  P_41
REMARK                            x       y       z     vdW  Elec       q    Type
REMARK                         _______ _______ _______ _____ _____    ______ ____
ROOT
ATOM      1  C   UNL     1      -0.171   1.523   0.000  0.00  0.00    +0.000 C 
ENDROOT
BRANCH   1  10
ATOM      2  C   UNL     1       1.600   4.059   0.000  0.00  0.00    +0.000 A 
ATOM      3  C   UNL     1       1.855   3.274   0.000  0.00  0.00    +0.000 A 
ATOM      4  C   UNL     1       0.793   4.231   0.000  0.00  0.00    +0.000 A 
ATOM      5  C   UNL     1       1.303   2.661   0.000  0.00  0.00    +0.000 A 
ATOM      6  C   UNL     1       0.241   3.618   0.000  0.00  0.00    +0.000 A 
ATOM      7  C   UNL     1       0.496   2.833   0.000  0.00  0.00    +0.000 A 
ATOM      8  N   UNL     1      -0.584   3.618   0.000  0.00  0.00    +0.000 NA
ATOM      9  N   UNL     1      -0.839   2.833   0.000  0.00  0.00    +0.000 NA
ATOM     10  N   UNL     1      -0.171   2.348   0.000  0.00  0.00    +0.000 N 
ENDBRANCH   1  10
BRANCH   1  17
ATOM     11  C   UNL     1       3.352   1.110   0.000  0.00  0.00    +0.000 A 
ATOM     12  C   UNL     1       3.352   1.935   0.000  0.00  0.00    +0.000 A 
ATOM     13  C   UNL     1       2.638   0.698   0.000  0.00  0.00    +0.000 A 
ATOM     14  C   UNL     1       2.638   2.348   0.000  0.00  0.00    +0.000 A 
ATOM     15  C   UNL     1       1.923   1.110   0.000  0.00  0.00    +0.000 A 
ATOM     16  C   UNL     1       1.923   1.935   0.000  0.00  0.00    +0.000 A 
ATOM     17  C   UNL     1       0.654   1.523   0.000  0.00  0.00    +0.000 A 
ATOM     18  N   UNL     1       1.139   0.856   0.000  0.00  0.00    +0.000 NA
ATOM     19  S   UNL     1       1.139   2.190   0.000  0.00  0.00    +0.000 S 
ENDBRANCH   1  17
BRANCH   1  20
ATOM     20  C   UNL     1      -0.171   0.698   0.000  0.00  0.00    +0.000 C 
BRANCH  20  25
ATOM     21  C   UNL     1      -1.600   0.698   0.000  0.00  0.00    +0.000 A 
ATOM     22  C   UNL     1      -0.886  -0.540   0.000  0.00  0.00    +0.000 A 
ATOM     23  C   UNL     1      -2.315   0.285   0.000  0.00  0.00    +0.000 A 
ATOM     24  C   UNL     1      -1.600  -0.952   0.000  0.00  0.00    +0.000 A 
ATOM     25  C   UNL     1      -0.886   0.285   0.000  0.00  0.00    +0.000 A 
ATOM     26  C   UNL     1      -2.315  -0.540   0.000  0.00  0.00    +0.000 A 
BRANCH  26  27
ATOM     27  C   UNL     1      -3.029  -0.952   0.000  0.00  0.00    +0.000 C 
ATOM     28  F   UNL     1      -3.442  -0.238   0.000  0.00  0.00    +0.000 F 
ATOM     29  F   UNL     1      -2.617  -1.667   0.000  0.00  0.00    +0.000 F 
BRANCH  27  33
ATOM     30  O   UNL     1      -4.458  -1.777   0.000  0.00  0.00    +0.000 OA
ATOM     31  O   UNL     1      -4.156  -0.650   0.000  0.00  0.00    +0.000 OA
ATOM     32  O   UNL     1      -3.331  -2.079   0.000  0.00  0.00    +0.000 OA
ATOM     33  P   UNL     1      -3.744  -1.365   0.000  0.00  0.00    +0.000 P 
ENDBRANCH  27  33
ENDBRANCH  26  27
ENDBRANCH  20  25
ENDBRANCH   1  20
BRANCH   1  34
ATOM     34  C   UNL     1      -0.996   1.523   0.000  0.00  0.00    +0.000 C 
BRANCH  34  35
ATOM     35  C   UNL     1      -1.409   2.237   0.000  0.00  0.00    +0.000 C 
ATOM     36  C   UNL     1      -2.234   2.237   0.000  0.00  0.00    +0.000 C 
BRANCH  36  42
ATOM     37  C   UNL     1      -3.471   4.381   0.000  0.00  0.00    +0.000 A 
ATOM     38  C   UNL     1      -3.884   3.666   0.000  0.00  0.00    +0.000 A 
ATOM     39  C   UNL     1      -2.646   4.381   0.000  0.00  0.00    +0.000 A 
ATOM     40  C   UNL     1      -3.471   2.952   0.000  0.00  0.00    +0.000 A 
ATOM     41  C   UNL     1      -2.234   3.666   0.000  0.00  0.00    +0.000 A 
ATOM     42  C   UNL     1      -2.646   2.952   0.000  0.00  0.00    +0.000 A 
ENDBRANCH  36  42
ENDBRANCH  34  35
ENDBRANCH   1  34
TORSDOF 9
