REMARK  Name = 
REMARK  1 active torsions:
REMARK  status: ('A' for Active; 'I' for Inactive)
REMARK    1  A    between atoms: C_15  and  C_16
REMARK                            x       y       z     vdW  Elec       q    Type
REMARK                         _______ _______ _______ _____ _____    ______ ____
ROOT
ATOM      1  C   UNL     1       3.352   1.110   0.000  0.00  0.00    +0.000 A 
ATOM      2  C   UNL     1       3.352   1.935   0.000  0.00  0.00    +0.000 A 
ATOM      3  C   UNL     1       2.638   0.698   0.000  0.00  0.00    +0.000 A 
ATOM      4  C   UNL     1       2.638   2.348   0.000  0.00  0.00    +0.000 A 
ATOM      5  C   UNL     1       2.540   4.814   0.000  0.00  0.00    +0.000 C 
ATOM      6  C   UNL     1       1.478   5.770   0.000  0.00  0.00    +0.000 C 
ATOM      7  C   UNL     1      -1.240   4.887   0.000  0.00  0.00    +0.000 C 
ATOM      8  C   UNL     1      -1.537   3.490   0.000  0.00  0.00    +0.000 C 
ATOM      9  C   UNL     1       3.092   5.427   0.000  0.00  0.00    +0.000 C 
ATOM     10  C   UNL     1       2.030   6.383   0.000  0.00  0.00    +0.000 C 
ATOM     11  C   UNL     1      -2.047   5.059   0.000  0.00  0.00    +0.000 C 
ATOM     12  C   UNL     1      -2.344   3.661   0.000  0.00  0.00    +0.000 C 
ATOM     13  C   UNL     1       1.923   1.110   0.000  0.00  0.00    +0.000 A 
ATOM     14  C   UNL     1       1.923   1.935   0.000  0.00  0.00    +0.000 A 
ATOM     15  C   UNL     1       0.654   1.523   0.000  0.00  0.00    +0.000 A 
ATOM     16  C   UNL     1       1.181   4.373   0.000  0.00  0.00    +0.000 A 
ATOM     17  C   UNL     1      -0.178   3.931   0.000  0.00  0.00    +0.000 A 
ATOM     18  C   UNL     1       0.884   2.975   0.000  0.00  0.00    +0.000 A 
ATOM     19  N   UNL     1       1.139   0.856   0.000  0.00  0.00    +0.000 NA
ATOM     20  N   UNL     1       0.374   4.544   0.000  0.00  0.00    +0.000 NA
ATOM     21  N   UNL     1       1.436   3.588   0.000  0.00  0.00    +0.000 NA
ATOM     22  N   UNL     1       0.077   3.147   0.000  0.00  0.00    +0.000 NA
ATOM     23  N   UNL     1       1.733   4.986   0.000  0.00  0.00    +0.000 N 
ATOM     24  N   UNL     1      -0.985   4.103   0.000  0.00  0.00    +0.000 N 
ATOM     25  N   UNL     1       1.139   2.190   0.000  0.00  0.00    +0.000 N 
ATOM     26  O   UNL     1       2.837   6.212   0.000  0.00  0.00    +0.000 OA
ATOM     27  O   UNL     1      -2.599   4.446   0.000  0.00  0.00    +0.000 OA
ENDROOT
BRANCH  15  28
ATOM     28  C   UNL     1      -0.171   1.523   0.000  0.00  0.00    +0.000 C 
ATOM     29  F   UNL     1      -0.584   2.237   0.000  0.00  0.00    +0.000 F 
ATOM     30  F   UNL     1      -0.584   0.808   0.000  0.00  0.00    +0.000 F 
ENDBRANCH  15  28
TORSDOF 1
