REMARK  Name = 
REMARK  6 active torsions:
REMARK  status: ('A' for Active; 'I' for Inactive)
REMARK    1  A    between atoms: C_5  and  C_14
REMARK    2  A    between atoms: C_6  and  C_11
REMARK    3  A    between atoms: C_6  and  C_13
REMARK    4  A    between atoms: C_8  and  C_15
REMARK    5  A    between atoms: C_8  and  N_22
REMARK    6  A    between atoms: C_13  and  C_16
REMARK                            x       y       z     vdW  Elec       q    Type
REMARK                         _______ _______ _______ _____ _____    ______ ____
ROOT
ATOM      1  C   UNL     1      -0.731   3.053   0.000  0.00  0.00    +0.000 A 
ATOM      2  C   UNL     1      -1.624   4.045   0.000  0.00  0.00    +0.000 A 
ATOM      3  C   UNL     1      -0.319   3.768   0.000  0.00  0.00    +0.000 A 
ATOM      4  N   UNL     1      -1.538   3.225   0.000  0.00  0.00    +0.000 NA
ATOM      5  N   UNL     1      -0.871   4.381   0.000  0.00  0.00    +0.000 N 
ATOM      6  O   UNL     1       0.502   3.854   0.000  0.00  0.00    +0.000 OA
ENDROOT
BRANCH   1  11
ATOM      7  C   UNL     1       0.760   1.460   0.000  0.00  0.00    +0.000 C 
ATOM      8  C   UNL     1       0.910   2.881   0.000  0.00  0.00    +0.000 C 
ATOM      9  C   UNL     1       1.581   1.373   0.000  0.00  0.00    +0.000 C 
ATOM     10  C   UNL     1       1.730   2.795   0.000  0.00  0.00    +0.000 C 
ATOM     11  C   UNL     1      -0.396   2.300   0.000  0.00  0.00    +0.000 C 
ATOM     12  C   UNL     1       0.425   2.213   0.000  0.00  0.00    +0.000 C 
ATOM     13  C   UNL     1       2.066   2.041   0.000  0.00  0.00    +0.000 C 
ATOM     14  O   UNL     1       2.886   1.955   0.000  0.00  0.00    +0.000 OA
ENDBRANCH   1  11
BRANCH   2  15
ATOM     15  C   UNL     1      -2.339   4.458   0.000  0.00  0.00    +0.000 C 
ATOM     16  N   UNL     1      -2.339   5.283   0.000  0.00  0.00    +0.000 NA
BRANCH  15  17
ATOM     17  C   UNL     1      -3.053   4.045   0.000  0.00  0.00    +0.000 C 
BRANCH  17  20
ATOM     18  C   UNL     1      -2.386   2.735   0.000  0.00  0.00    +0.000 A 
ATOM     19  C   UNL     1      -3.466   1.951   0.000  0.00  0.00    +0.000 A 
ATOM     20  C   UNL     1      -3.053   3.220   0.000  0.00  0.00    +0.000 A 
ATOM     21  N   UNL     1      -2.641   1.951   0.000  0.00  0.00    +0.000 NA
ATOM     22  N   UNL     1      -3.721   2.735   0.000  0.00  0.00    +0.000 NA
ENDBRANCH  17  20
ENDBRANCH  15  17
ENDBRANCH   2  15
BRANCH   5  23
ATOM     23  C   UNL     1      -0.699   5.188   0.000  0.00  0.00    +0.000 C 
BRANCH  23  24
ATOM     24  C   UNL     1       0.085   5.443   0.000  0.00  0.00    +0.000 C 
ATOM     25  O   UNL     1       0.257   6.250   0.000  0.00  0.00    +0.000 OA
ATOM     26  O   UNL     1       0.699   4.891   0.000  0.00  0.00    +0.000 OA
ENDBRANCH  23  24
ENDBRANCH   5  23
TORSDOF 6
