REMARK  Name = 
REMARK  17 active torsions:
REMARK  status: ('A' for Active; 'I' for Inactive)
REMARK    1  A    between atoms: C_4  and  C_10
REMARK    2  A    between atoms: C_4  and  O_45
REMARK    3  A    between atoms: C_5  and  C_11
REMARK    4  A    between atoms: C_5  and  O_46
REMARK    5  A    between atoms: C_9  and  N_27
REMARK    6  A    between atoms: C_12  and  N_29
REMARK    7  A    between atoms: C_19  and  N_30
REMARK    8  A    between atoms: O_45  and  P_53
REMARK    9  A    between atoms: O_46  and  P_54
REMARK   10  A    between atoms: O_49  and  P_53
REMARK   11  A    between atoms: O_49  and  P_55
REMARK   12  A    between atoms: O_50  and  P_54
REMARK   13  A    between atoms: O_50  and  P_56
REMARK   14  A    between atoms: O_51  and  P_55
REMARK   15  A    between atoms: O_51  and  P_57
REMARK   16  A    between atoms: O_52  and  P_56
REMARK   17  A    between atoms: O_52  and  P_57
REMARK                            x       y       z     vdW  Elec       q    Type
REMARK                         _______ _______ _______ _____ _____    ______ ____
ROOT
ATOM      1  O   UNL     1      -5.316  -1.275   0.000  0.00  0.00    +0.000 OA
ATOM      2  O   UNL     1      -4.347  -2.610   0.000  0.00  0.00    +0.000 OA
ATOM      3  P   UNL     1      -4.832  -1.942   0.000  0.00  0.00    +0.000 P 
ENDROOT
BRANCH   3   4
ATOM      4  O   UNL     1      -5.499  -2.427   0.000  0.00  0.00    +0.000 OA
BRANCH   4   7
ATOM      5  O   UNL     1      -5.917  -1.338   0.000  0.00  0.00    +0.000 OA
ATOM      6  O   UNL     1      -6.588  -2.845   0.000  0.00  0.00    +0.000 OA
ATOM      7  P   UNL     1      -6.253  -2.091   0.000  0.00  0.00    +0.000 P 
BRANCH   7   8
ATOM      8  O   UNL     1      -7.006  -1.756   0.000  0.00  0.00    +0.000 OA
BRANCH   8  11
ATOM      9  O   UNL     1      -8.159  -1.573   0.000  0.00  0.00    +0.000 OA
ATOM     10  O   UNL     1      -7.189  -2.908   0.000  0.00  0.00    +0.000 OA
ATOM     11  P   UNL     1      -7.674  -2.241   0.000  0.00  0.00    +0.000 P 
BRANCH  11  12
ATOM     12  O   UNL     1      -8.341  -2.726   0.000  0.00  0.00    +0.000 OA
BRANCH  12  13
ATOM     13  C   UNL     1      -9.095  -2.390   0.000  0.00  0.00    +0.000 C 
BRANCH  13  16
ATOM     14  C   UNL     1     -10.547  -3.955   0.000  0.00  0.00    +0.000 C 
ATOM     15  C   UNL     1      -9.762  -3.700   0.000  0.00  0.00    +0.000 C 
ATOM     16  C   UNL     1      -9.762  -2.875   0.000  0.00  0.00    +0.000 C 
ATOM     17  C   UNL     1     -11.032  -3.288   0.000  0.00  0.00    +0.000 C 
ATOM     18  O   UNL     1     -10.547  -2.620   0.000  0.00  0.00    +0.000 OA
BRANCH  17  25
ATOM     19  C   UNL     1     -13.507  -1.859   0.000  0.00  0.00    +0.000 C 
ATOM     20  C   UNL     1     -12.269  -2.573   0.000  0.00  0.00    +0.000 A 
ATOM     21  C   UNL     1     -13.094  -2.573   0.000  0.00  0.00    +0.000 A 
ATOM     22  C   UNL     1     -13.507  -3.288   0.000  0.00  0.00    +0.000 A 
ATOM     23  C   UNL     1     -12.269  -4.002   0.000  0.00  0.00    +0.000 A 
ATOM     24  N   UNL     1     -13.094  -4.002   0.000  0.00  0.00    +0.000 NA
ATOM     25  N   UNL     1     -11.857  -3.288   0.000  0.00  0.00    +0.000 N 
ATOM     26  O   UNL     1     -14.332  -3.288   0.000  0.00  0.00    +0.000 OA
ATOM     27  O   UNL     1     -11.857  -4.716   0.000  0.00  0.00    +0.000 OA
ENDBRANCH  17  25
BRANCH  15  29
ATOM     28  N   UNL     1      -7.588  -3.514   0.000  0.00  0.00    +0.000 NA
ATOM     29  N   UNL     1      -9.095  -4.185   0.000  0.00  0.00    +0.000 NA
ATOM     30  N   UNL     1      -8.341  -3.849   0.000  0.00  0.00    +0.000 NA
ENDBRANCH  15  29
ENDBRANCH  13  16
ENDBRANCH  12  13
ENDBRANCH  11  12
ENDBRANCH   8  11
ENDBRANCH   7   8
ENDBRANCH   4   7
ENDBRANCH   3   4
BRANCH   3  31
ATOM     31  O   UNL     1      -4.164  -1.457   0.000  0.00  0.00    +0.000 OA
BRANCH  31  34
ATOM     32  O   UNL     1      -3.075  -1.039   0.000  0.00  0.00    +0.000 OA
ATOM     33  O   UNL     1      -3.746  -2.546   0.000  0.00  0.00    +0.000 OA
ATOM     34  P   UNL     1      -3.410  -1.793   0.000  0.00  0.00    +0.000 P 
BRANCH  34  35
ATOM     35  O   UNL     1      -2.657  -2.128   0.000  0.00  0.00    +0.000 OA
BRANCH  35  38
ATOM     36  O   UNL     1      -2.474  -0.976   0.000  0.00  0.00    +0.000 OA
ATOM     37  O   UNL     1      -1.504  -2.311   0.000  0.00  0.00    +0.000 OA
ATOM     38  P   UNL     1      -1.989  -1.643   0.000  0.00  0.00    +0.000 P 
BRANCH  38  39
ATOM     39  O   UNL     1      -1.322  -1.158   0.000  0.00  0.00    +0.000 OA
BRANCH  39  40
ATOM     40  C   UNL     1      -0.568  -1.494   0.000  0.00  0.00    +0.000 C 
BRANCH  40  41
ATOM     41  C   UNL     1       0.099  -1.009   0.000  0.00  0.00    +0.000 C 
ATOM     42  C   UNL     1       0.884  -1.264   0.000  0.00  0.00    +0.000 C 
ATOM     43  C   UNL     1       1.369  -0.597   0.000  0.00  0.00    +0.000 C 
ATOM     44  C   UNL     1       0.884   0.071   0.000  0.00  0.00    +0.000 C 
ATOM     45  O   UNL     1       1.139  -2.049   0.000  0.00  0.00    +0.000 OA
ATOM     46  O   UNL     1       2.194  -0.597   0.000  0.00  0.00    +0.000 OA
ATOM     47  O   UNL     1       0.099  -0.184   0.000  0.00  0.00    +0.000 OA
BRANCH  44  57
ATOM     48  C   UNL     1       3.352   1.110   0.000  0.00  0.00    +0.000 A 
ATOM     49  C   UNL     1       0.654   1.523   0.000  0.00  0.00    +0.000 A 
ATOM     50  C   UNL     1       1.923   1.935   0.000  0.00  0.00    +0.000 A 
ATOM     51  C   UNL     1       2.638   2.348   0.000  0.00  0.00    +0.000 A 
ATOM     52  C   UNL     1       1.923   1.110   0.000  0.00  0.00    +0.000 A 
ATOM     53  N   UNL     1       2.638   3.173   0.000  0.00  0.00    +0.000 NA
ATOM     54  N   UNL     1       3.352   1.935   0.000  0.00  0.00    +0.000 NA
ATOM     55  N   UNL     1       2.638   0.698   0.000  0.00  0.00    +0.000 NA
ATOM     56  N   UNL     1       1.139   2.190   0.000  0.00  0.00    +0.000 NA
ATOM     57  N   UNL     1       1.139   0.856   0.000  0.00  0.00    +0.000 N 
ENDBRANCH  44  57
ENDBRANCH  40  41
ENDBRANCH  39  40
ENDBRANCH  38  39
ENDBRANCH  35  38
ENDBRANCH  34  35
ENDBRANCH  31  34
ENDBRANCH   3  31
TORSDOF 17
