REMARK  Name = 
REMARK  7 active torsions:
REMARK  status: ('A' for Active; 'I' for Inactive)
REMARK    1  A    between atoms: C_1  and  N_11
REMARK    2  A    between atoms: N_3  and  S_5
REMARK    3  A    between atoms: C_12  and  C_14
REMARK    4  A    between atoms: C_14  and  C_18
REMARK    5  A    between atoms: N_15  and  O_21
REMARK    6  A    between atoms: O_21  and  C_22
REMARK    7  A    between atoms: C_22  and  C_23
REMARK                            x       y       z     vdW  Elec       q    Type
REMARK                         _______ _______ _______ _____ _____    ______ ____
ROOT
ATOM      1  C   UNL     1      -2.880   2.151   0.000  0.00  0.00    +0.000 C 
ATOM      2  N   UNL     1      -2.880   2.976   0.000  0.00  0.00    +0.000 NA
ENDROOT
BRANCH   1   5
ATOM      3  S   UNL     1      -4.379   0.658   0.000  0.00  0.00    +0.000 S 
ATOM      4  C   UNL     1      -3.595   0.913   0.000  0.00  0.00    +0.000 A 
ATOM      5  C   UNL     1      -3.595   1.738   0.000  0.00  0.00    +0.000 A 
ATOM      6  N   UNL     1      -4.379   1.993   0.000  0.00  0.00    +0.000 NA
ATOM      7  C   UNL     1      -4.864   1.326   0.000  0.00  0.00    +0.000 A 
ATOM      8  N   UNL     1      -5.689   1.326   0.000  0.00  0.00    +0.000 NA
ENDBRANCH   1   5
BRANCH   1  10
ATOM      9  N   UNL     1      -1.451   2.151   0.000  0.00  0.00    +0.000 NA
ATOM     10  C   UNL     1      -2.166   1.738   0.000  0.00  0.00    +0.000 C 
ATOM     11  O   UNL     1      -2.166   0.913   0.000  0.00  0.00    +0.000 OA
BRANCH   9  12
ATOM     12  C   UNL     1      -0.737   1.738   0.000  0.00  0.00    +0.000 C 
ATOM     13  C   UNL     1       0.088   1.738   0.000  0.00  0.00    +0.000 C 
ATOM     14  N   UNL     1       0.088   0.913   0.000  0.00  0.00    +0.000 N 
ATOM     15  C   UNL     1      -0.737   0.913   0.000  0.00  0.00    +0.000 C 
ATOM     16  O   UNL     1      -1.320   0.330   0.000  0.00  0.00    +0.000 OA
ATOM     17  C   UNL     1       0.672   2.322   0.000  0.00  0.00    +0.000 C 
BRANCH  14  18
ATOM     18  S   UNL     1       0.672   0.330   0.000  0.00  0.00    +0.000 S 
ATOM     19  O   UNL     1       1.255  -0.253   0.000  0.00  0.00    +0.000 OA
ATOM     20  O   UNL     1       1.268   0.959   0.000  0.00  0.00    +0.000 OA
ATOM     21  O   UNL     1       0.056  -0.298   0.000  0.00  0.00    +0.000 OA
ENDBRANCH  14  18
ENDBRANCH   9  12
ENDBRANCH   1  10
BRANCH   2  22
ATOM     22  O   UNL     1      -2.166   3.388   0.000  0.00  0.00    +0.000 OA
BRANCH  22  23
ATOM     23  C   UNL     1      -2.166   4.213   0.000  0.00  0.00    +0.000 C 
ATOM     24  C   UNL     1      -2.578   4.928   0.000  0.00  0.00    +0.000 C 
ATOM     25  C   UNL     1      -2.962   4.000   0.000  0.00  0.00    +0.000 C 
BRANCH  23  26
ATOM     26  C   UNL     1      -1.451   4.626   0.000  0.00  0.00    +0.000 C 
ATOM     27  O   UNL     1      -1.451   5.451   0.000  0.00  0.00    +0.000 OA
ATOM     28  O   UNL     1      -0.737   4.213   0.000  0.00  0.00    +0.000 OA
ENDBRANCH  23  26
ENDBRANCH  22  23
ENDBRANCH   2  22
TORSDOF 7
