REMARK  Name = 
REMARK  1 active torsions:
REMARK  status: ('A' for Active; 'I' for Inactive)
REMARK    1  A    between atoms: C_11  and  C_14
REMARK                            x       y       z     vdW  Elec       q    Type
REMARK                         _______ _______ _______ _____ _____    ______ ____
ROOT
ATOM      1  C   UNL     1       0.000   0.000   0.000  0.00  0.00    +0.000 C 
ATOM      2  C   UNL     1      -0.715   1.238   0.000  0.00  0.00    +0.000 C 
ATOM      3  C   UNL     1      -0.715   2.062   0.000  0.00  0.00    +0.000 C 
ATOM      4  C   UNL     1       0.000   3.300   0.000  0.00  0.00    +0.000 A 
ATOM      5  C   UNL     1       1.429   3.300   0.000  0.00  0.00    +0.000 A 
ATOM      6  C   UNL     1       1.429   0.825   0.000  0.00  0.00    +0.000 A 
ATOM      7  C   UNL     1       0.000   0.825   0.000  0.00  0.00    +0.000 C 
ATOM      8  C   UNL     1       0.000   2.475   0.000  0.00  0.00    +0.000 A 
ATOM      9  C   UNL     1       0.715   3.712   0.000  0.00  0.00    +0.000 A 
ATOM     10  C   UNL     1       1.429   2.475   0.000  0.00  0.00    +0.000 A 
ATOM     11  C   UNL     1       2.143   1.238   0.000  0.00  0.00    +0.000 A 
ATOM     12  C   UNL     1       0.715   2.062   0.000  0.00  0.00    +0.000 A 
ATOM     13  C   UNL     1       2.143   2.062   0.000  0.00  0.00    +0.000 A 
ATOM     14  F   UNL     1       0.715   4.537   0.000  0.00  0.00    +0.000 F 
ATOM     15  N   UNL     1       0.715   1.238   0.000  0.00  0.00    +0.000 N 
ATOM     16  O   UNL     1       2.858   2.475   0.000  0.00  0.00    +0.000 OA
ENDROOT
BRANCH  11  17
ATOM     17  C   UNL     1       2.858   0.825   0.000  0.00  0.00    +0.000 C 
ATOM     18  O   UNL     1       3.572   1.238   0.000  0.00  0.00    +0.000 OA
ATOM     19  O   UNL     1       2.858   0.000   0.000  0.00  0.00    +0.000 OA
ENDBRANCH  11  17
TORSDOF 1
