REMARK  Name = 
REMARK  7 active torsions:
REMARK  status: ('A' for Active; 'I' for Inactive)
REMARK    1  A    between atoms: C_8  and  C_11
REMARK    2  A    between atoms: C_8  and  C_20
REMARK    3  A    between atoms: C_11  and  C_23
REMARK    4  A    between atoms: C_17  and  C_22
REMARK    5  A    between atoms: C_18  and  C_24
REMARK    6  A    between atoms: C_19  and  N_27
REMARK    7  A    between atoms: C_21  and  N_28
REMARK                            x       y       z     vdW  Elec       q    Type
REMARK                         _______ _______ _______ _____ _____    ______ ____
ROOT
ATOM      1  C   UNL     1       2.339  -1.331   0.000  0.00  0.00    +0.000 A 
ATOM      2  C   UNL     1       2.084  -0.546   0.000  0.00  0.00    +0.000 A 
ATOM      3  C   UNL     1       3.164  -1.331   0.000  0.00  0.00    +0.000 A 
ATOM      4  C   UNL     1       2.751  -0.062   0.000  0.00  0.00    +0.000 A 
ATOM      5  N   UNL     1       3.419  -0.546   0.000  0.00  0.00    +0.000 N 
ENDROOT
BRANCH   5  12
ATOM      6  C   UNL     1       4.645  -1.651   0.000  0.00  0.00    +0.000 C 
ATOM      7  C   UNL     1       5.159   0.770   0.000  0.00  0.00    +0.000 A 
ATOM      8  C   UNL     1       4.375   0.515   0.000  0.00  0.00    +0.000 A 
ATOM      9  C   UNL     1       5.601  -0.589   0.000  0.00  0.00    +0.000 A 
ATOM     10  C   UNL     1       4.816  -0.844   0.000  0.00  0.00    +0.000 A 
ATOM     11  C   UNL     1       5.772   0.218   0.000  0.00  0.00    +0.000 A 
ATOM     12  C   UNL     1       4.203  -0.292   0.000  0.00  0.00    +0.000 A 
BRANCH  11  13
ATOM     13  C   UNL     1       6.557   0.473   0.000  0.00  0.00    +0.000 C 
ATOM     14  N   UNL     1       7.170  -0.079   0.000  0.00  0.00    +0.000 NA
ATOM     15  O   UNL     1       6.729   1.280   0.000  0.00  0.00    +0.000 OA
ENDBRANCH  11  13
ENDBRANCH   5  12
BRANCH   4  20
ATOM     16  C   UNL     1       3.466   1.176   0.000  0.00  0.00    +0.000 A 
ATOM     17  C   UNL     1       2.037   1.176   0.000  0.00  0.00    +0.000 A 
ATOM     18  C   UNL     1       3.466   2.001   0.000  0.00  0.00    +0.000 A 
ATOM     19  C   UNL     1       2.037   2.001   0.000  0.00  0.00    +0.000 A 
ATOM     20  C   UNL     1       2.751   0.763   0.000  0.00  0.00    +0.000 A 
ATOM     21  C   UNL     1       2.751   2.413   0.000  0.00  0.00    +0.000 A 
BRANCH  21  26
ATOM     22  C   UNL     1       2.339   4.508   0.000  0.00  0.00    +0.000 A 
ATOM     23  C   UNL     1       2.084   3.723   0.000  0.00  0.00    +0.000 A 
ATOM     24  C   UNL     1       3.419   3.723   0.000  0.00  0.00    +0.000 A 
ATOM     25  N   UNL     1       3.164   4.508   0.000  0.00  0.00    +0.000 NA
ATOM     26  N   UNL     1       2.751   3.238   0.000  0.00  0.00    +0.000 N 
ENDBRANCH  21  26
ENDBRANCH   4  20
BRANCH   3  27
ATOM     27  C   UNL     1       3.649  -1.999   0.000  0.00  0.00    +0.000 C 
BRANCH  27  28
ATOM     28  C   UNL     1       3.313  -2.752   0.000  0.00  0.00    +0.000 C 
BRANCH  28  29
ATOM     29  C   UNL     1       2.493  -2.838   0.000  0.00  0.00    +0.000 C 
ATOM     30  O   UNL     1       2.008  -2.171   0.000  0.00  0.00    +0.000 OA
ATOM     31  O   UNL     1       2.157  -3.592   0.000  0.00  0.00    +0.000 OA
ENDBRANCH  28  29
ENDBRANCH  27  28
ENDBRANCH   3  27
TORSDOF 7
