REMARK  Name = 
REMARK  2 active torsions:
REMARK  status: ('A' for Active; 'I' for Inactive)
REMARK    1  A    between atoms: C_1  and  C_4
REMARK    2  A    between atoms: C_4  and  C_7
REMARK                            x       y       z     vdW  Elec       q    Type
REMARK                         _______ _______ _______ _____ _____    ______ ____
ROOT
ATOM      1  C   UNL     1      -0.285   0.000   0.000  0.00  0.00    +0.000 A 
ATOM      2  C   UNL     1      -1.003  -0.412   0.000  0.00  0.00    +0.000 A 
ATOM      3  C   UNL     1       0.429  -0.412   0.000  0.00  0.00    +0.000 A 
ATOM      4  C   UNL     1      -1.003  -1.237   0.000  0.00  0.00    +0.000 A 
ATOM      5  C   UNL     1       0.429  -1.237   0.000  0.00  0.00    +0.000 A 
ATOM      6  C   UNL     1      -0.285  -1.653   0.000  0.00  0.00    +0.000 A 
ENDROOT
BRANCH   1   7
ATOM      7  C   UNL     1      -0.285   0.825   0.000  0.00  0.00    +0.000 C 
BRANCH   7   8
ATOM      8  C   UNL     1       0.433   1.240   0.000  0.00  0.00    +0.000 C 
ATOM      9  O   UNL     1       0.433   2.062   0.000  0.00  0.00    +0.000 OA
ATOM     10  O   UNL     1       1.144   0.828   0.000  0.00  0.00    +0.000 OA
ENDBRANCH   7   8
ENDBRANCH   1   7
TORSDOF 2
