REMARK  Name = 
REMARK  14 active torsions:
REMARK  status: ('A' for Active; 'I' for Inactive)
REMARK    1  A    between atoms: C_2  and  C_3
REMARK    2  A    between atoms: C_3  and  C_4
REMARK    3  A    between atoms: C_4  and  C_5
REMARK    4  A    between atoms: C_5  and  C_6
REMARK    5  A    between atoms: C_9  and  C_12
REMARK    6  A    between atoms: N_14  and  C_15
REMARK    7  A    between atoms: C_18  and  S_21
REMARK    8  A    between atoms: S_21  and  N_24
REMARK    9  A    between atoms: N_24  and  C_25
REMARK   10  A    between atoms: N_24  and  C_33
REMARK   11  A    between atoms: C_25  and  C_26
REMARK   12  A    between atoms: C_26  and  N_27
REMARK   13  A    between atoms: C_33  and  C_34
REMARK   14  A    between atoms: C_33  and  C_37
REMARK                            x       y       z     vdW  Elec       q    Type
REMARK                         _______ _______ _______ _____ _____    ______ ____
ROOT
ATOM      1  C   UNL     1       0.191   1.922   0.000  0.00  0.00    +0.000 A 
ATOM      2  C   UNL     1       1.016   1.922   0.000  0.00  0.00    +0.000 A 
ATOM      3  C   UNL     1       1.429   1.208   0.000  0.00  0.00    +0.000 A 
ATOM      4  C   UNL     1       1.016   0.493   0.000  0.00  0.00    +0.000 A 
ATOM      5  C   UNL     1       0.191   0.493   0.000  0.00  0.00    +0.000 A 
ATOM      6  C   UNL     1      -0.221   1.208   0.000  0.00  0.00    +0.000 A 
ENDROOT
BRANCH   4   7
ATOM      7  S   UNL     1       1.429  -0.221   0.000  0.00  0.00    +0.000 S 
ATOM      8  O   UNL     1       0.715  -0.634   0.000  0.00  0.00    +0.000 OA
ATOM      9  O   UNL     1       2.143   0.191   0.000  0.00  0.00    +0.000 OA
BRANCH   7  10
ATOM     10  N   UNL     1       1.841  -0.935   0.000  0.00  0.00    +0.000 NA
BRANCH  10  11
ATOM     11  C   UNL     1       1.429  -1.650   0.000  0.00  0.00    +0.000 C 
BRANCH  11  12
ATOM     12  C   UNL     1       1.841  -2.365   0.000  0.00  0.00    +0.000 C 
BRANCH  12  13
ATOM     13  N   UNL     1       1.429  -3.079   0.000  0.00  0.00    +0.000 NA
ATOM     14  C   UNL     1       1.841  -3.793   0.000  0.00  0.00    +0.000 C 
ATOM     15  C   UNL     1       1.429  -4.508   0.000  0.00  0.00    +0.000 C 
ATOM     16  O   UNL     1       0.604  -4.508   0.000  0.00  0.00    +0.000 OA
ATOM     17  C   UNL     1       0.191  -3.793   0.000  0.00  0.00    +0.000 C 
ATOM     18  C   UNL     1       0.604  -3.079   0.000  0.00  0.00    +0.000 C 
ENDBRANCH  12  13
ENDBRANCH  11  12
ENDBRANCH  10  11
BRANCH  10  19
ATOM     19  C   UNL     1       2.666  -0.935   0.000  0.00  0.00    +0.000 C 
BRANCH  19  20
ATOM     20  C   UNL     1       3.079  -1.650   0.000  0.00  0.00    +0.000 C 
ATOM     21  O   UNL     1       2.666  -2.365   0.000  0.00  0.00    +0.000 OA
ATOM     22  N   UNL     1       3.904  -1.650   0.000  0.00  0.00    +0.000 NA
ATOM     23  O   UNL     1       4.316  -2.365   0.000  0.00  0.00    +0.000 OA
ENDBRANCH  19  20
BRANCH  19  24
ATOM     24  C   UNL     1       3.079  -0.221   0.000  0.00  0.00    +0.000 C 
ATOM     25  C   UNL     1       3.904  -0.221   0.000  0.00  0.00    +0.000 C 
ATOM     26  C   UNL     1       2.666   0.493   0.000  0.00  0.00    +0.000 C 
ENDBRANCH  19  24
ENDBRANCH  10  19
ENDBRANCH   7  10
ENDBRANCH   4   7
BRANCH   1  29
ATOM     27  C   UNL     1      -1.046   2.637   0.000  0.00  0.00    +0.000 C 
ATOM     28  O   UNL     1      -1.459   1.922   0.000  0.00  0.00    +0.000 OA
ATOM     29  N   UNL     1      -0.221   2.637   0.000  0.00  0.00    +0.000 NA
BRANCH  27  33
ATOM     30  C   UNL     1      -2.284   4.780   0.000  0.00  0.00    +0.000 A 
ATOM     31  C   UNL     1      -1.459   4.780   0.000  0.00  0.00    +0.000 A 
ATOM     32  C   UNL     1      -1.046   4.066   0.000  0.00  0.00    +0.000 A 
ATOM     33  C   UNL     1      -1.459   3.351   0.000  0.00  0.00    +0.000 A 
ATOM     34  C   UNL     1      -2.284   3.351   0.000  0.00  0.00    +0.000 A 
ATOM     35  C   UNL     1      -2.696   4.066   0.000  0.00  0.00    +0.000 A 
BRANCH  30  36
ATOM     36  C   UNL     1      -2.696   5.495   0.000  0.00  0.00    +0.000 C 
BRANCH  36  37
ATOM     37  C   UNL     1      -3.521   5.495   0.000  0.00  0.00    +0.000 C 
BRANCH  37  38
ATOM     38  C   UNL     1      -3.934   6.209   0.000  0.00  0.00    +0.000 C 
BRANCH  38  40
ATOM     39  C   UNL     1      -5.171   6.924   0.000  0.00  0.00    +0.000 C 
ATOM     40  C   UNL     1      -4.759   6.209   0.000  0.00  0.00    +0.000 C 
ENDBRANCH  38  40
ENDBRANCH  37  38
ENDBRANCH  36  37
ENDBRANCH  30  36
ENDBRANCH  27  33
ENDBRANCH   1  29
TORSDOF 14
