REMARK  Name = 
REMARK  4 active torsions:
REMARK  status: ('A' for Active; 'I' for Inactive)
REMARK    1  A    between atoms: C_2  and  CA_3
REMARK    2  A    between atoms: CA_3  and  C_4
REMARK    3  A    between atoms: C_4  and  C_5
REMARK    4  A    between atoms: C_5  and  SE_8
REMARK                            x       y       z     vdW  Elec       q    Type
REMARK                         _______ _______ _______ _____ _____    ______ ____
ROOT
ATOM      1  CA  UNL     1      19.145 -16.268   0.000  0.00  0.00    +0.000 C 
ATOM      2  N   UNL     1      19.145 -17.122   0.000  0.00  0.00    +0.000 NA
ENDROOT
BRANCH   1   4
ATOM      3  O   UNL     1      17.662 -16.268   0.000  0.00  0.00    +0.000 OA
ATOM      4  C   UNL     1      18.381 -15.864   0.000  0.00  0.00    +0.000 C 
ATOM      5  OXT UNL     1      18.381 -15.010   0.000  0.00  0.00    +0.000 OA
ENDBRANCH   1   4
BRANCH   1   6
ATOM      6  C   UNL     1      19.864 -15.864   0.000  0.00  0.00    +0.000 C 
BRANCH   6   7
ATOM      7  C   UNL     1      20.583 -16.268   0.000  0.00  0.00    +0.000 C 
BRANCH   7   8
ATOM      8 SE   UNL     1      21.347 -15.819   0.000  0.00  0.00    +0.000 Se
ATOM      9  C   UNL     1      22.515 -16.268   0.000  0.00  0.00    +0.000 C 
ENDBRANCH   7   8
ENDBRANCH   6   7
ENDBRANCH   1   6
TORSDOF 4
