REMARK  Name = 
REMARK  9 active torsions:
REMARK  status: ('A' for Active; 'I' for Inactive)
REMARK    1  A    between atoms: C_6  and  C_7
REMARK    2  A    between atoms: C_20  and  C_21
REMARK    3  A    between atoms: C_21  and  C_22
REMARK    4  A    between atoms: C_22  and  C_23
REMARK    5  A    between atoms: C_28  and  C_29
REMARK    6  A    between atoms: C_37  and  C_38
REMARK    7  A    between atoms: C_38  and  C_39
REMARK    8  A    between atoms: C_39  and  C_40
REMARK    9  A    between atoms: C_45  and  C_46
REMARK                            x       y       z     vdW  Elec       q    Type
REMARK                         _______ _______ _______ _____ _____    ______ ____
ROOT
ATOM      1  C   UNL     1       1.001   0.976   0.000  0.00  0.00    +0.000 C 
ATOM      2  C   UNL     1       1.635   0.449   0.000  0.00  0.00    +0.000 A 
ATOM      3  C   UNL     1       2.435   0.652   0.000  0.00  0.00    +0.000 A 
ATOM      4  C   UNL     1       2.955   1.589   0.000  0.00  0.00    +0.000 C 
ATOM      5  C   UNL     1       3.670   2.002   0.000  0.00  0.00    +0.000 C 
ATOM      6  C   UNL     1       3.975   2.768   0.000  0.00  0.00    +0.000 C 
ATOM      7  C   UNL     1       4.798   2.715   0.000  0.00  0.00    +0.000 C 
ATOM      8  C   UNL     1       5.326   3.349   0.000  0.00  0.00    +0.000 C 
ATOM      9  C   UNL     1       5.002   1.915   0.000  0.00  0.00    +0.000 C 
ATOM     10  N   UNL     1       4.304   1.475   0.000  0.00  0.00    +0.000 N 
ATOM     11 FE   UNL     1       4.350   0.000   0.000  0.00  0.00    +0.000 Fe
ATOM     12  N   UNL     1       5.824   0.046   0.000  0.00  0.00    +0.000 N 
ATOM     13  C   UNL     1       6.265  -0.652   0.000  0.00  0.00    +0.000 A 
ATOM     14  C   UNL     1       5.744  -1.589   0.000  0.00  0.00    +0.000 C 
ATOM     15  C   UNL     1       5.030  -2.002   0.000  0.00  0.00    +0.000 C 
ATOM     16  N   UNL     1       4.396  -1.475   0.000  0.00  0.00    +0.000 N 
ATOM     17  C   UNL     1       3.698  -1.915   0.000  0.00  0.00    +0.000 C 
ATOM     18  C   UNL     1       3.901  -2.715   0.000  0.00  0.00    +0.000 C 
ATOM     19  C   UNL     1       4.724  -2.768   0.000  0.00  0.00    +0.000 C 
ATOM     20  C   UNL     1       5.165  -3.466   0.000  0.00  0.00    +0.000 C 
ATOM     21  C   UNL     1       2.760  -1.395   0.000  0.00  0.00    +0.000 C 
ATOM     22  C   UNL     1       2.348  -0.680   0.000  0.00  0.00    +0.000 A 
ATOM     23  N   UNL     1       2.875  -0.046   0.000  0.00  0.00    +0.000 N 
ATOM     24  C   UNL     1       1.581  -0.375   0.000  0.00  0.00    +0.000 A 
ATOM     25  C   UNL     1       7.064  -0.449   0.000  0.00  0.00    +0.000 A 
ATOM     26  C   UNL     1       7.699  -0.976   0.000  0.00  0.00    +0.000 C 
ATOM     27  C   UNL     1       7.118   0.375   0.000  0.00  0.00    +0.000 A 
ATOM     28  C   UNL     1       6.352   0.680   0.000  0.00  0.00    +0.000 A 
ATOM     29  C   UNL     1       5.939   1.395   0.000  0.00  0.00    +0.000 C 
ENDROOT
BRANCH  21  30
ATOM     30  C   UNL     1       2.182  -1.983   0.000  0.00  0.00    +0.000 A 
ATOM     31  C   UNL     1       2.402  -2.778   0.000  0.00  0.00    +0.000 A 
ATOM     32  C   UNL     1       1.824  -3.366   0.000  0.00  0.00    +0.000 A 
ATOM     33  C   UNL     1       1.025  -3.159   0.000  0.00  0.00    +0.000 A 
ATOM     34  C   UNL     1       0.805  -2.364   0.000  0.00  0.00    +0.000 A 
ATOM     35  C   UNL     1       1.383  -1.776   0.000  0.00  0.00    +0.000 A 
ENDBRANCH  21  30
BRANCH  27  36
ATOM     36  C   UNL     1       7.816   0.815   0.000  0.00  0.00    +0.000 C 
ATOM     37  C   UNL     1       7.783   1.639   0.000  0.00  0.00    +0.000 C 
ENDBRANCH  27  36
BRANCH   6  38
ATOM     38  C   UNL     1       3.535   3.466   0.000  0.00  0.00    +0.000 C 
ATOM     39  C   UNL     1       3.919   4.196   0.000  0.00  0.00    +0.000 C 
ENDBRANCH   6  38
BRANCH  18  40
ATOM     40  C   UNL     1       3.374  -3.349   0.000  0.00  0.00    +0.000 C 
BRANCH  40  41
ATOM     41  C   UNL     1       3.660  -4.123   0.000  0.00  0.00    +0.000 C 
BRANCH  41  42
ATOM     42  C   UNL     1       3.132  -4.757   0.000  0.00  0.00    +0.000 C 
ATOM     43  O   UNL     1       3.418  -5.531   0.000  0.00  0.00    +0.000 OA
ATOM     44  O   UNL     1       2.319  -4.618   0.000  0.00  0.00    +0.000 OA
ENDBRANCH  41  42
ENDBRANCH  40  41
ENDBRANCH  18  40
BRANCH  24  45
ATOM     45  C   UNL     1       0.884  -0.815   0.000  0.00  0.00    +0.000 C 
BRANCH  45  46
ATOM     46  C   UNL     1       0.154  -0.431   0.000  0.00  0.00    +0.000 C 
BRANCH  46  47
ATOM     47  C   UNL     1      -0.544  -0.872   0.000  0.00  0.00    +0.000 C 
ATOM     48  O   UNL     1      -0.511  -1.696   0.000  0.00  0.00    +0.000 OA
ATOM     49  O   UNL     1      -1.274  -0.487   0.000  0.00  0.00    +0.000 OA
ENDBRANCH  46  47
ENDBRANCH  45  46
ENDBRANCH  24  45
TORSDOF 9
