REMARK  Name = 
REMARK  3 active torsions:
REMARK  status: ('A' for Active; 'I' for Inactive)
REMARK    1  A    between atoms: C_2  and  C_6
REMARK    2  A    between atoms: C_8  and  O_15
REMARK    3  A    between atoms: O_15  and  C_18
REMARK                            x       y       z     vdW  Elec       q    Type
REMARK                         _______ _______ _______ _____ _____    ______ ____
ROOT
ATOM      1  C   UNL     1      17.530  -9.209   0.000  0.00  0.00    +0.000 C 
ATOM      2  C   UNL     1      18.248  -8.792   0.000  0.00  0.00    +0.000 C 
ATOM      3  O   UNL     1      16.810  -8.795   0.000  0.00  0.00    +0.000 OA
ATOM      4  C   UNL     1      17.530 -10.032   0.000  0.00  0.00    +0.000 C 
ATOM      5  C   UNL     1      18.248  -7.968   0.000  0.00  0.00    +0.000 C 
ATOM      6  C   UNL     1      16.810  -7.968   0.000  0.00  0.00    +0.000 C 
ATOM      7  C   UNL     1      16.817 -10.446   0.000  0.00  0.00    +0.000 C 
ATOM      8  C   UNL     1      17.530  -7.555   0.000  0.00  0.00    +0.000 C 
ATOM      9  O   UNL     1      18.962  -7.551   0.000  0.00  0.00    +0.000 OA
ATOM     10  C   UNL     1      16.099  -7.558   0.000  0.00  0.00    +0.000 C 
ATOM     11  O   UNL     1      16.806  -7.141   0.000  0.00  0.00    +0.000 OA
ATOM     12  C   UNL     1      16.106 -10.039   0.000  0.00  0.00    +0.000 C 
ATOM     13  C   UNL     1      15.385  -7.972   0.000  0.00  0.00    +0.000 C 
ATOM     14  C   UNL     1      15.392 -10.449   0.000  0.00  0.00    +0.000 C 
ATOM     15  C   UNL     1      14.668  -7.562   0.000  0.00  0.00    +0.000 C 
ATOM     16  O   UNL     1      15.385  -8.799   0.000  0.00  0.00    +0.000 OA
ATOM     17  C   UNL     1      14.678 -10.047   0.000  0.00  0.00    +0.000 C 
ATOM     18  C   UNL     1      13.954  -7.975   0.000  0.00  0.00    +0.000 C 
ATOM     19  C   UNL     1      13.961 -10.460   0.000  0.00  0.00    +0.000 C 
ATOM     20  C   UNL     1      13.240  -7.565   0.000  0.00  0.00    +0.000 C 
ATOM     21  O   UNL     1      13.957  -8.802   0.000  0.00  0.00    +0.000 OA
ATOM     22  C   UNL     1      13.247 -10.050   0.000  0.00  0.00    +0.000 C 
ATOM     23  C   UNL     1      12.530  -7.983   0.000  0.00  0.00    +0.000 C 
ATOM     24  O   UNL     1      13.240  -6.738   0.000  0.00  0.00    +0.000 OA
ATOM     25  C   UNL     1      12.536 -10.464   0.000  0.00  0.00    +0.000 C 
ATOM     26  C   UNL     1      11.812  -7.573   0.000  0.00  0.00    +0.000 C 
ATOM     27  C   UNL     1      11.823 -10.054   0.000  0.00  0.00    +0.000 C 
ATOM     28  C   UNL     1      11.098  -7.986   0.000  0.00  0.00    +0.000 C 
ATOM     29  C   UNL     1      11.105 -10.467   0.000  0.00  0.00    +0.000 C 
ATOM     30  C   UNL     1      10.384  -7.576   0.000  0.00  0.00    +0.000 C 
ATOM     31  O   UNL     1      11.098  -8.813   0.000  0.00  0.00    +0.000 OA
ATOM     32  C   UNL     1      10.391 -10.057   0.000  0.00  0.00    +0.000 C 
ATOM     33  C   UNL     1       9.670  -7.990   0.000  0.00  0.00    +0.000 C 
ATOM     34  C   UNL     1       9.677 -10.471   0.000  0.00  0.00    +0.000 C 
ATOM     35  C   UNL     1       8.956  -7.580   0.000  0.00  0.00    +0.000 C 
ATOM     36  O   UNL     1       9.674  -8.817   0.000  0.00  0.00    +0.000 OA
ATOM     37  C   UNL     1       8.967 -10.061   0.000  0.00  0.00    +0.000 C 
ATOM     38  C   UNL     1       8.242  -7.993   0.000  0.00  0.00    +0.000 C 
ATOM     39  C   UNL     1       8.245 -10.474   0.000  0.00  0.00    +0.000 C 
ATOM     40  O   UNL     1       7.528  -7.583   0.000  0.00  0.00    +0.000 OA
ATOM     41  O   UNL     1       8.242  -8.820   0.000  0.00  0.00    +0.000 OA
ATOM     42  C   UNL     1       7.531 -10.064   0.000  0.00  0.00    +0.000 C 
ATOM     43  C   UNL     1       6.814  -7.997   0.000  0.00  0.00    +0.000 C 
ATOM     44  C   UNL     1       6.818 -10.478   0.000  0.00  0.00    +0.000 C 
ATOM     45  C   UNL     1       6.814  -8.823   0.000  0.00  0.00    +0.000 C 
ATOM     46  C   UNL     1       6.096  -7.583   0.000  0.00  0.00    +0.000 C 
ATOM     47  C   UNL     1       6.096 -10.064   0.000  0.00  0.00    +0.000 C 
ATOM     48  C   UNL     1       6.096  -9.237   0.000  0.00  0.00    +0.000 C 
ATOM     49  C   UNL     1       7.531  -9.237   0.000  0.00  0.00    +0.000 C 
ATOM     50  C   UNL     1       5.387 -10.478   0.000  0.00  0.00    +0.000 C 
ATOM     51  O   UNL     1       5.387  -8.823   0.000  0.00  0.00    +0.000 OA
ENDROOT
BRANCH   2  52
ATOM     52  C   UNL     1      18.965  -9.205   0.000  0.00  0.00    +0.000 C 
ATOM     53  O   UNL     1      18.965 -10.032   0.000  0.00  0.00    +0.000 OA
ATOM     54  O   UNL     1      19.679  -8.792   0.000  0.00  0.00    +0.000 OA
ENDBRANCH   2  52
BRANCH   7  55
ATOM     55  O   UNL     1      16.820 -11.273   0.000  0.00  0.00    +0.000 OA
BRANCH  55  56
ATOM     56  C   UNL     1      16.106 -11.690   0.000  0.00  0.00    +0.000 C 
ATOM     57  C   UNL     1      16.110 -12.521   0.000  0.00  0.00    +0.000 C 
ATOM     58  O   UNL     1      15.392 -11.276   0.000  0.00  0.00    +0.000 OA
ATOM     59  C   UNL     1      15.396 -12.935   0.000  0.00  0.00    +0.000 C 
ATOM     60  O   UNL     1      16.828 -12.927   0.000  0.00  0.00    +0.000 OA
ATOM     61  C   UNL     1      14.678 -11.690   0.000  0.00  0.00    +0.000 C 
ATOM     62  C   UNL     1      14.678 -12.521   0.000  0.00  0.00    +0.000 C 
ATOM     63  N   UNL     1      15.396 -13.761   0.000  0.00  0.00    +0.000 NA
ATOM     64  C   UNL     1      13.957 -11.284   0.000  0.00  0.00    +0.000 C 
ATOM     65  O   UNL     1      13.961 -12.938   0.000  0.00  0.00    +0.000 OA
ENDBRANCH  55  56
ENDBRANCH   7  55
TORSDOF 3
