REMARK  Name = 
REMARK  10 active torsions:
REMARK  status: ('A' for Active; 'I' for Inactive)
REMARK    1  A    between atoms: C_8  and  C_9
REMARK    2  A    between atoms: C_9  and  O_25
REMARK    3  A    between atoms: C_10  and  C_11
REMARK    4  A    between atoms: C_10  and  O_25
REMARK    5  A    between atoms: C_11  and  O_26
REMARK    6  A    between atoms: C_13  and  C_18
REMARK    7  A    between atoms: C_14  and  N_22
REMARK    8  A    between atoms: C_15  and  C_17
REMARK    9  A    between atoms: C_16  and  N_22
REMARK   10  A    between atoms: C_17  and  O_26
REMARK                            x       y       z     vdW  Elec       q    Type
REMARK                         _______ _______ _______ _____ _____    ______ ____
ROOT
ATOM      1  C   UNL     1       8.574   5.775   0.000  0.00  0.00    +0.000 A 
ATOM      2  C   UNL     1       9.288   6.188   0.000  0.00  0.00    +0.000 A 
ATOM      3  C   UNL     1       7.859   6.188   0.000  0.00  0.00    +0.000 A 
ATOM      4  C   UNL     1       9.288   7.013   0.000  0.00  0.00    +0.000 A 
ATOM      5  C   UNL     1       7.859   7.013   0.000  0.00  0.00    +0.000 A 
ATOM      6  C   UNL     1       8.574   7.425   0.000  0.00  0.00    +0.000 A 
ENDROOT
BRANCH   5   7
ATOM      7  C   UNL     1       7.145   7.425   0.000  0.00  0.00    +0.000 C 
ATOM      8  O   UNL     1       7.145   8.250   0.000  0.00  0.00    +0.000 OA
BRANCH   7   9
ATOM      9  O   UNL     1       6.430   7.013   0.000  0.00  0.00    +0.000 OA
BRANCH   9  10
ATOM     10  C   UNL     1       5.716   7.425   0.000  0.00  0.00    +0.000 C 
BRANCH  10  11
ATOM     11  C   UNL     1       5.001   7.013   0.000  0.00  0.00    +0.000 C 
BRANCH  11  12
ATOM     12  O   UNL     1       4.287   7.425   0.000  0.00  0.00    +0.000 OA
BRANCH  12  13
ATOM     13  C   UNL     1       3.572   7.013   0.000  0.00  0.00    +0.000 C 
BRANCH  13  14
ATOM     14  C   UNL     1       2.858   7.425   0.000  0.00  0.00    +0.000 C 
ATOM     15  O   UNL     1       2.143   7.013   0.000  0.00  0.00    +0.000 OA
ENDBRANCH  13  14
ENDBRANCH  12  13
ENDBRANCH  11  12
ENDBRANCH  10  11
ENDBRANCH   9  10
ENDBRANCH   7   9
ENDBRANCH   5   7
BRANCH   6  16
ATOM     16  N   UNL     1       8.574   8.250   0.000  0.00  0.00    +0.000 NA
BRANCH  16  22
ATOM     17  C   UNL     1      10.717   8.662   0.000  0.00  0.00    +0.000 A 
ATOM     18  C   UNL     1      10.717   9.488   0.000  0.00  0.00    +0.000 A 
ATOM     19  C   UNL     1      10.002   8.250   0.000  0.00  0.00    +0.000 A 
ATOM     20  C   UNL     1       9.288   9.488   0.000  0.00  0.00    +0.000 A 
ATOM     21  C   UNL     1      10.002   9.900   0.000  0.00  0.00    +0.000 A 
ATOM     22  C   UNL     1       9.288   8.662   0.000  0.00  0.00    +0.000 A 
BRANCH  21  23
ATOM     23  C   UNL     1      10.002  10.725   0.000  0.00  0.00    +0.000 C 
ATOM     24  F   UNL     1      10.002  11.550   0.000  0.00  0.00    +0.000 F 
ATOM     25  F   UNL     1       9.178  10.725   0.000  0.00  0.00    +0.000 F 
ATOM     26  F   UNL     1      10.828  10.725   0.000  0.00  0.00    +0.000 F 
ENDBRANCH  21  23
ENDBRANCH  16  22
ENDBRANCH   6  16
TORSDOF 10
