REMARK  Name = 
REMARK  7 active torsions:
REMARK  status: ('A' for Active; 'I' for Inactive)
REMARK    1  A    between atoms: CA_2  and  C_3
REMARK    2  A    between atoms: CA_2  and  C_14
REMARK    3  A    between atoms: C_3  and  C_4
REMARK    4  A    between atoms: C_4  and  C_5
REMARK    5  A    between atoms: C_5  and  N_6
REMARK    6  A    between atoms: C_7  and  C_9
REMARK    7  A    between atoms: C_9  and  P_10
REMARK                            x       y       z     vdW  Elec       q    Type
REMARK                         _______ _______ _______ _____ _____    ______ ____
ROOT
ATOM      1  C   UNL     1       7.808   2.858   0.000  0.00  0.00    +0.000 C 
ENDROOT
BRANCH   1   2
ATOM      2  N   UNL     1       7.093   3.270   0.000  0.00  0.00    +0.000 NA
ATOM      3  C   UNL     1       6.379   2.858   0.000  0.00  0.00    +0.000 C 
ATOM      4  O   UNL     1       6.379   2.033   0.000  0.00  0.00    +0.000 OA
BRANCH   3   5
ATOM      5  C   UNL     1       5.665   3.270   0.000  0.00  0.00    +0.000 C 
BRANCH   5   6
ATOM      6  P   UNL     1       4.950   2.858   0.000  0.00  0.00    +0.000 P 
ATOM      7  O   UNL     1       4.236   2.445   0.000  0.00  0.00    +0.000 OA
ATOM      8  O   UNL     1       5.362   2.143   0.000  0.00  0.00    +0.000 OA
ATOM      9  O   UNL     1       4.537   3.572   0.000  0.00  0.00    +0.000 OA
ENDBRANCH   5   6
ENDBRANCH   3   5
ENDBRANCH   1   2
BRANCH   1  10
ATOM     10  C   UNL     1       8.522   3.270   0.000  0.00  0.00    +0.000 C 
BRANCH  10  11
ATOM     11  C   UNL     1       9.237   2.858   0.000  0.00  0.00    +0.000 C 
BRANCH  11  13
ATOM     12  N   UNL     1       9.951   4.095   0.000  0.00  0.00    +0.000 NA
ATOM     13  CA  UNL     1       9.951   3.270   0.000  0.00  0.00    +0.000 C 
BRANCH  13  14
ATOM     14  C   UNL     1      10.666   2.858   0.000  0.00  0.00    +0.000 C 
ATOM     15  O   UNL     1      11.380   3.270   0.000  0.00  0.00    +0.000 OA
ATOM     16  OXT UNL     1      10.666   2.033   0.000  0.00  0.00    +0.000 OA
ENDBRANCH  13  14
ENDBRANCH  11  13
ENDBRANCH  10  11
ENDBRANCH   1  10
TORSDOF 7
