REMARK  Name = 
REMARK  0 active torsions:
REMARK  status: ('A' for Active; 'I' for Inactive)
REMARK                            x       y       z     vdW  Elec       q    Type
REMARK                         _______ _______ _______ _____ _____    ______ ____
ROOT
ATOM      1  O   UNL     1       0.000   0.825   0.000  0.00  0.00    +0.000 OA
ATOM      2  O   UNL     1       0.000  -0.825   0.000  0.00  0.00    +0.000 OA
ATOM      3  O   UNL     1      -0.825   0.000   0.000  0.00  0.00    +0.000 OA
ATOM      4  O   UNL     1       0.825   0.000   0.000  0.00  0.00    +0.000 OA
ATOM      5  S   UNL     1       0.000   0.000   0.000  0.00  0.00    +0.000 S 
ENDROOT
TORSDOF 0
REMARK  Name = 
REMARK  0 active torsions:
REMARK  status: ('A' for Active; 'I' for Inactive)
REMARK                            x       y       z     vdW  Elec       q    Type
REMARK                         _______ _______ _______ _____ _____    ______ ____
ROOT
ATOM      1 ZN   UNL     1       3.182   0.000   0.000  0.00  0.00    +0.000 Zn
ENDROOT
TORSDOF 0
