REMARK  Name = 
REMARK  2 active torsions:
REMARK  status: ('A' for Active; 'I' for Inactive)
REMARK    1  A    between atoms: C_18  and  C_22
REMARK    2  A    between atoms: C_20  and  N_30
REMARK                            x       y       z     vdW  Elec       q    Type
REMARK                         _______ _______ _______ _____ _____    ______ ____
ROOT
ATOM      1  C   UNL     1      -2.081  -0.358   0.000  0.00  0.00    +0.000 C 
ATOM      2  C   UNL     1       3.993   0.825   0.000  0.00  0.00    +0.000 A 
ATOM      3  C   UNL     1       3.279   1.238   0.000  0.00  0.00    +0.000 A 
ATOM      4  C   UNL     1      -0.692  -0.514   0.000  0.00  0.00    +0.000 C 
ATOM      5  C   UNL     1       0.112  -0.331   0.000  0.00  0.00    +0.000 C 
ATOM      6  C   UNL     1       0.112   1.156   0.000  0.00  0.00    +0.000 C 
ATOM      7  C   UNL     1      -0.692   1.339   0.000  0.00  0.00    +0.000 C 
ATOM      8  C   UNL     1       3.279  -0.412   0.000  0.00  0.00    +0.000 A 
ATOM      9  C   UNL     1      -1.337   0.000   0.000  0.00  0.00    +0.000 C 
ATOM     10  C   UNL     1       3.993   0.000   0.000  0.00  0.00    +0.000 A 
ATOM     11  C   UNL     1       2.564   0.000   0.000  0.00  0.00    +0.000 A 
ATOM     12  C   UNL     1       2.564   0.825   0.000  0.00  0.00    +0.000 A 
ATOM     13  C   UNL     1      -2.081   1.183   0.000  0.00  0.00    +0.000 C 
ATOM     14  C   UNL     1       1.295   0.412   0.000  0.00  0.00    +0.000 A 
ATOM     15 CL   UNL     1       4.708  -0.412   0.000  0.00  0.00    +0.000 Cl
ATOM     16  N   UNL     1       1.780  -0.255   0.000  0.00  0.00    +0.000 NA
ATOM     17  N   UNL     1       0.470   0.412   0.000  0.00  0.00    +0.000 N 
ATOM     18  N   UNL     1      -1.337   0.825   0.000  0.00  0.00    +0.000 N 
ATOM     19  O   UNL     1      -2.142   2.006   0.000  0.00  0.00    +0.000 OA
ATOM     20  O   UNL     1       1.780   1.080   0.000  0.00  0.00    +0.000 OA
ENDROOT
BRANCH  13  26
ATOM     21  C   UNL     1      -3.321  -1.392   0.000  0.00  0.00    +0.000 C 
ATOM     22  C   UNL     1      -4.126  -0.211   0.000  0.00  0.00    +0.000 A 
ATOM     23  C   UNL     1      -4.187   0.611   0.000  0.00  0.00    +0.000 A 
ATOM     24  C   UNL     1      -2.701  -0.104   0.000  0.00  0.00    +0.000 A 
ATOM     25  C   UNL     1      -3.382  -0.569   0.000  0.00  0.00    +0.000 A 
ATOM     26  C   UNL     1      -2.762   0.718   0.000  0.00  0.00    +0.000 A 
ATOM     27  C   UNL     1      -3.506   1.076   0.000  0.00  0.00    +0.000 A 
BRANCH  27  32
ATOM     28  C   UNL     1      -3.251   3.196   0.000  0.00  0.00    +0.000 A 
ATOM     29  C   UNL     1      -4.073   3.134   0.000  0.00  0.00    +0.000 A 
ATOM     30  N   UNL     1      -2.938   2.432   0.000  0.00  0.00    +0.000 NA
ATOM     31  N   UNL     1      -4.269   2.333   0.000  0.00  0.00    +0.000 NA
ATOM     32  N   UNL     1      -3.567   1.899   0.000  0.00  0.00    +0.000 N 
ENDBRANCH  27  32
ENDBRANCH  13  26
TORSDOF 2
