REMARK  Name = 
REMARK  7 active torsions:
REMARK  status: ('A' for Active; 'I' for Inactive)
REMARK    1  A    between atoms: C_1  and  C_2
REMARK    2  A    between atoms: C_1  and  CA_6
REMARK    3  A    between atoms: C_2  and  SE_26
REMARK    4  A    between atoms: C_3  and  C_7
REMARK    5  A    between atoms: C_3  and  SE_26
REMARK    6  A    between atoms: CA_6  and  C_14
REMARK    7  A    between atoms: C_13  and  N_20
REMARK                            x       y       z     vdW  Elec       q    Type
REMARK                         _______ _______ _______ _____ _____    ______ ____
ROOT
ATOM      1  C   UNL     1      -2.478   5.033   0.000  0.00  0.00    +0.000 C 
ATOM      2  C   UNL     1      -2.564   5.854   0.000  0.00  0.00    +0.000 C 
ATOM      3  C   UNL     1      -3.371   6.025   0.000  0.00  0.00    +0.000 C 
ATOM      4  C   UNL     1      -3.784   5.311   0.000  0.00  0.00    +0.000 C 
ATOM      5  O   UNL     1      -1.951   6.406   0.000  0.00  0.00    +0.000 OA
ATOM      6  O   UNL     1      -3.707   6.779   0.000  0.00  0.00    +0.000 OA
ATOM      7  O   UNL     1      -3.232   4.697   0.000  0.00  0.00    +0.000 OA
ENDROOT
BRANCH   4  17
ATOM      8  C   UNL     1      -5.737   7.143   0.000  0.00  0.00    +0.000 A 
ATOM      9  C   UNL     1      -5.016   4.510   0.000  0.00  0.00    +0.000 A 
ATOM     10  C   UNL     1      -5.910   5.502   0.000  0.00  0.00    +0.000 A 
ATOM     11  C   UNL     1      -6.577   5.987   0.000  0.00  0.00    +0.000 A 
ATOM     12  C   UNL     1      -5.156   5.838   0.000  0.00  0.00    +0.000 A 
ATOM     13  N   UNL     1      -7.331   5.651   0.000  0.00  0.00    +0.000 NA
ATOM     14  N   UNL     1      -6.491   6.807   0.000  0.00  0.00    +0.000 NA
ATOM     15  N   UNL     1      -5.070   6.658   0.000  0.00  0.00    +0.000 NA
ATOM     16  N   UNL     1      -5.824   4.681   0.000  0.00  0.00    +0.000 NA
ATOM     17  N   UNL     1      -4.604   5.224   0.000  0.00  0.00    +0.000 N 
ENDBRANCH   4  17
BRANCH   1  18
ATOM     18  C   UNL     1      -1.763   4.621   0.000  0.00  0.00    +0.000 C 
BRANCH  18  19
ATOM     19 SE   UNL     1      -1.049   5.033   0.000  0.00  0.00    +0.000 Se
BRANCH  19  20
ATOM     20  C   UNL     1      -0.334   5.446   0.000  0.00  0.00    +0.000 C 
BRANCH  20  21
ATOM     21  C   UNL     1       0.380   5.033   0.000  0.00  0.00    +0.000 C 
BRANCH  21  22
ATOM     22  CA  UNL     1       1.095   5.446   0.000  0.00  0.00    +0.000 C 
ATOM     23  N   UNL     1       1.095   6.271   0.000  0.00  0.00    +0.000 NA
BRANCH  22  24
ATOM     24  C   UNL     1       1.809   5.033   0.000  0.00  0.00    +0.000 C 
ATOM     25  O   UNL     1       2.523   5.446   0.000  0.00  0.00    +0.000 OA
ATOM     26  OXT UNL     1       1.809   4.208   0.000  0.00  0.00    +0.000 OA
ENDBRANCH  22  24
ENDBRANCH  21  22
ENDBRANCH  20  21
ENDBRANCH  19  20
ENDBRANCH  18  19
ENDBRANCH   1  18
TORSDOF 7
