REMARK  Name = 
REMARK  6 active torsions:
REMARK  status: ('A' for Active; 'I' for Inactive)
REMARK    1  A    between atoms: C_2  and  C_3
REMARK    2  A    between atoms: C_3  and  C_4
REMARK    3  A    between atoms: C_4  and  S_5
REMARK    4  A    between atoms: S_5  and  C_6
REMARK    5  A    between atoms: C_6  and  C_7
REMARK    6  A    between atoms: C_7  and  C_9
REMARK                            x       y       z     vdW  Elec       q    Type
REMARK                         _______ _______ _______ _____ _____    ______ ____
ROOT
ATOM      1  S   UNK     1       5.856   2.556   0.000  0.00  0.00    +0.000 S 
ENDROOT
BRANCH   1   2
ATOM      2  C   UNK     1       5.141   2.143   0.000  0.00  0.00    +0.000 C 
BRANCH   2   3
ATOM      3  C   UNK     1       4.427   2.556   0.000  0.00  0.00    +0.000 C 
BRANCH   3   5
ATOM      4  N   UNK     1       2.998   2.556   0.000  0.00  0.00    +0.000 NA
ATOM      5  C   UNK     1       3.712   2.143   0.000  0.00  0.00    +0.000 C 
ENDBRANCH   3   5
ENDBRANCH   2   3
ENDBRANCH   1   2
BRANCH   1   6
ATOM      6  C   UNK     1       6.570   2.143   0.000  0.00  0.00    +0.000 C 
BRANCH   6   7
ATOM      7  C   UNK     1       7.285   2.556   0.000  0.00  0.00    +0.000 C 
ATOM      8  N   UNK     1       7.285   3.381   0.000  0.00  0.00    +0.000 NA
BRANCH   7   9
ATOM      9  C   UNK     1       7.999   2.143   0.000  0.00  0.00    +0.000 C 
ATOM     10  O   UNK     1       8.714   2.556   0.000  0.00  0.00    +0.000 OA
ENDBRANCH   7   9
ENDBRANCH   6   7
ENDBRANCH   1   6
TORSDOF 6
