REMARK  Name = 
REMARK  5 active torsions:
REMARK  status: ('A' for Active; 'I' for Inactive)
REMARK    1  A    between atoms: C_8  and  C_9
REMARK    2  A    between atoms: C_15  and  C_18
REMARK    3  A    between atoms: C_18  and  C_19
REMARK    4  A    between atoms: C_20  and  C_21
REMARK    5  A    between atoms: C_21  and  C_23
REMARK                            x       y       z     vdW  Elec       q    Type
REMARK                         _______ _______ _______ _____ _____    ______ ____
ROOT
ATOM      1  C   UNL     1      13.566  -9.561   0.000  0.00  0.00    +0.000 C 
ATOM      2  C   UNL     1      14.280 -10.799   0.000  0.00  0.00    +0.000 C 
ATOM      3  C   UNL     1      14.280  -9.973   0.000  0.00  0.00    +0.000 C 
ATOM      4  C   UNL     1      14.280  -8.323   0.000  0.00  0.00    +0.000 C 
ATOM      5  C   UNL     1      13.566  -8.736   0.000  0.00  0.00    +0.000 C 
ATOM      6  C   UNL     1      14.995  -9.561   0.000  0.00  0.00    +0.000 C 
ATOM      7  C   UNL     1      14.995  -8.736   0.000  0.00  0.00    +0.000 C 
ATOM      8  C   UNL     1      15.780  -8.481   0.000  0.00  0.00    +0.000 C 
ATOM      9  C   UNL     1      15.780  -9.816   0.000  0.00  0.00    +0.000 C 
ATOM     10  C   UNL     1      16.264  -9.149   0.000  0.00  0.00    +0.000 C 
ATOM     11  C   UNL     1      14.995  -7.911   0.000  0.00  0.00    +0.000 C 
ENDROOT
BRANCH   2  18
ATOM     12  C   UNL     1      12.137  -9.561   0.000  0.00  0.00    +0.000 C 
ATOM     13  C   UNL     1      11.423  -9.973   0.000  0.00  0.00    +0.000 C 
ATOM     14  C   UNL     1      11.423 -10.799   0.000  0.00  0.00    +0.000 C 
ATOM     15  C   UNL     1      12.137 -11.211   0.000  0.00  0.00    +0.000 C 
ATOM     16  C   UNL     1      12.851 -10.799   0.000  0.00  0.00    +0.000 C 
ATOM     17  C   UNL     1      12.851  -9.973   0.000  0.00  0.00    +0.000 C 
ATOM     18  C   UNL     1      13.566 -11.211   0.000  0.00  0.00    +0.000 C 
ATOM     19  O   UNL     1      10.708 -11.211   0.000  0.00  0.00    +0.000 OA
ATOM     20  O   UNL     1      12.137  -8.736   0.000  0.00  0.00    +0.000 OA
ATOM     21  C   UNL     1      12.851  -9.149   0.000  0.00  0.00    +0.000 C 
ENDBRANCH   2  18
BRANCH   8  22
ATOM     22  C   UNL     1      15.780  -7.656   0.000  0.00  0.00    +0.000 C 
ATOM     23  C   UNL     1      15.065  -7.244   0.000  0.00  0.00    +0.000 C 
BRANCH  22  24
ATOM     24  C   UNL     1      16.494  -7.244   0.000  0.00  0.00    +0.000 C 
ATOM     25  C   UNL     1      17.209  -7.656   0.000  0.00  0.00    +0.000 C 
BRANCH  25  26
ATOM     26  C   UNL     1      17.923  -7.244   0.000  0.00  0.00    +0.000 C 
ATOM     27  O   UNL     1      17.923  -6.419   0.000  0.00  0.00    +0.000 OA
BRANCH  26  28
ATOM     28  C   UNL     1      18.637  -7.656   0.000  0.00  0.00    +0.000 C 
ATOM     29  C   UNL     1      19.050  -8.370   0.000  0.00  0.00    +0.000 C 
ATOM     30  C   UNL     1      19.462  -7.656   0.000  0.00  0.00    +0.000 C 
ENDBRANCH  26  28
ENDBRANCH  25  26
ENDBRANCH  22  24
ENDBRANCH   8  22
TORSDOF 5
