REMARK  Name = 
REMARK  6 active torsions:
REMARK  status: ('A' for Active; 'I' for Inactive)
REMARK    1  A    between atoms: C_3  and  C_4
REMARK    2  A    between atoms: C_4  and  N_5
REMARK    3  A    between atoms: N_5  and  C_6
REMARK    4  A    between atoms: C_9  and  C_12
REMARK    5  A    between atoms: C_20  and  C_21
REMARK    6  A    between atoms: C_21  and  N_22
REMARK                            x       y       z     vdW  Elec       q    Type
REMARK                         _______ _______ _______ _____ _____    ______ ____
ROOT
ATOM      1  C   UNL     1      -4.129   1.936   0.000  0.00  0.00    +0.000 C 
ATOM      2  N   UNL     1      -3.644   1.269   0.000  0.00  0.00    +0.000 N 
ATOM      3  C   UNL     1      -3.899   0.484   0.000  0.00  0.00    +0.000 A 
ATOM      4  N   UNL     1      -3.232  -0.001   0.000  0.00  0.00    +0.000 NA
ATOM      5  C   UNL     1      -2.564   0.484   0.000  0.00  0.00    +0.000 A 
ATOM      6  C   UNL     1      -2.819   1.269   0.000  0.00  0.00    +0.000 A 
ATOM      7  C   UNL     1      -2.267   1.882   0.000  0.00  0.00    +0.000 A 
ATOM      8  C   UNL     1      -1.460   1.710   0.000  0.00  0.00    +0.000 A 
ATOM      9  C   UNL     1      -1.205   0.926   0.000  0.00  0.00    +0.000 A 
ATOM     10  C   UNL     1      -1.758   0.313   0.000  0.00  0.00    +0.000 A 
ENDROOT
BRANCH   3  11
ATOM     11  C   UNL     1      -4.684   0.229   0.000  0.00  0.00    +0.000 C 
BRANCH  11  12
ATOM     12  N   UNL     1      -5.297   0.781   0.000  0.00  0.00    +0.000 NA
BRANCH  12  13
ATOM     13  C   UNL     1      -6.082   0.526   0.000  0.00  0.00    +0.000 A 
ATOM     14  C   UNL     1      -6.253  -0.281   0.000  0.00  0.00    +0.000 A 
ATOM     15  C   UNL     1      -7.038  -0.536   0.000  0.00  0.00    +0.000 A 
ATOM     16  C   UNL     1      -7.651   0.016   0.000  0.00  0.00    +0.000 A 
ATOM     17  C   UNL     1      -7.479   0.823   0.000  0.00  0.00    +0.000 A 
ATOM     18  C   UNL     1      -6.695   1.078   0.000  0.00  0.00    +0.000 A 
BRANCH  16  19
ATOM     19  C   UNL     1      -8.435  -0.239   0.000  0.00  0.00    +0.000 C 
ATOM     20  N   UNL     1      -9.049   0.313   0.000  0.00  0.00    +0.000 NA
ATOM     21  N   UNL     1      -8.607  -1.046   0.000  0.00  0.00    +0.000 NA
ENDBRANCH  16  19
ENDBRANCH  12  13
ENDBRANCH  11  12
ENDBRANCH   3  11
BRANCH   9  22
ATOM     22  C   UNL     1      -0.398   0.754   0.000  0.00  0.00    +0.000 C 
BRANCH  22  23
ATOM     23  N   UNL     1      -0.143  -0.030   0.000  0.00  0.00    +0.000 N 
ATOM     24  C   UNL     1      -0.628  -0.698   0.000  0.00  0.00    +0.000 A 
ATOM     25  C   UNL     1      -1.453  -0.698   0.000  0.00  0.00    +0.000 C 
ATOM     26  N   UNL     1      -0.143  -1.365   0.000  0.00  0.00    +0.000 NA
ATOM     27  C   UNL     1       0.641  -1.110   0.000  0.00  0.00    +0.000 A 
ATOM     28  C   UNL     1       0.641  -0.285   0.000  0.00  0.00    +0.000 A 
ATOM     29  C   UNL     1       1.356   0.127   0.000  0.00  0.00    +0.000 A 
ATOM     30  C   UNL     1       2.070  -0.285   0.000  0.00  0.00    +0.000 A 
ATOM     31  C   UNL     1       2.070  -1.110   0.000  0.00  0.00    +0.000 A 
ATOM     32  C   UNL     1       1.356  -1.523   0.000  0.00  0.00    +0.000 A 
ENDBRANCH  22  23
ENDBRANCH   9  22
TORSDOF 6
