REMARK  Name = 
REMARK  4 active torsions:
REMARK  status: ('A' for Active; 'I' for Inactive)
REMARK    1  A    between atoms: C_4  and  C_7
REMARK    2  A    between atoms: C_7  and  C_9
REMARK    3  A    between atoms: C_11  and  C_15
REMARK    4  A    between atoms: C_15  and  C_16
REMARK                            x       y       z     vdW  Elec       q    Type
REMARK                         _______ _______ _______ _____ _____    ______ ____
ROOT
ATOM      1  C   UNL     1       3.930  -1.031   0.000  0.00  0.00    +0.000 A 
ATOM      2  C   UNL     1       4.644  -0.619   0.000  0.00  0.00    +0.000 A 
ATOM      3  C   UNL     1       5.359  -1.031   0.000  0.00  0.00    +0.000 A 
ATOM      4  C   UNL     1       5.359  -1.856   0.000  0.00  0.00    +0.000 A 
ATOM      5  C   UNL     1       4.644  -2.269   0.000  0.00  0.00    +0.000 A 
ATOM      6  C   UNL     1       3.930  -1.856   0.000  0.00  0.00    +0.000 A 
ATOM      7  N   UNL     1       4.644   0.206   0.000  0.00  0.00    +0.000 NA
ENDROOT
BRANCH   1   8
ATOM      8  C   UNL     1       3.215  -0.619   0.000  0.00  0.00    +0.000 C 
ATOM      9  O   UNL     1       3.215   0.206   0.000  0.00  0.00    +0.000 OA
BRANCH   8  13
ATOM     10  C   UNL     1       1.072  -1.856   0.000  0.00  0.00    +0.000 A 
ATOM     11  C   UNL     1       1.072  -1.031   0.000  0.00  0.00    +0.000 A 
ATOM     12  C   UNL     1       1.786  -0.619   0.000  0.00  0.00    +0.000 A 
ATOM     13  C   UNL     1       2.501  -1.031   0.000  0.00  0.00    +0.000 A 
ATOM     14  C   UNL     1       2.501  -1.856   0.000  0.00  0.00    +0.000 A 
ATOM     15  C   UNL     1       1.786  -2.269   0.000  0.00  0.00    +0.000 A 
ENDBRANCH   8  13
ENDBRANCH   1   8
BRANCH   3  16
ATOM     16  C   UNL     1       6.073  -0.619   0.000  0.00  0.00    +0.000 C 
BRANCH  16  17
ATOM     17  C   UNL     1       6.787  -1.031   0.000  0.00  0.00    +0.000 C 
ATOM     18  O   UNL     1       7.502  -0.619   0.000  0.00  0.00    +0.000 OA
ATOM     19  N   UNL     1       6.787  -1.856   0.000  0.00  0.00    +0.000 NA
ENDBRANCH  16  17
ENDBRANCH   3  16
TORSDOF 4
