REMARK  Name = 
REMARK  11 active torsions:
REMARK  status: ('A' for Active; 'I' for Inactive)
REMARK    1  A    between atoms: C_12  and  C_32
REMARK    2  A    between atoms: C_13  and  C_14
REMARK    3  A    between atoms: C_13  and  C_18
REMARK    4  A    between atoms: C_14  and  C_19
REMARK    5  A    between atoms: C_18  and  N_49
REMARK    6  A    between atoms: C_19  and  N_50
REMARK    7  A    between atoms: C_28  and  C_30
REMARK    8  A    between atoms: C_31  and  N_48
REMARK    9  A    between atoms: C_37  and  O_59
REMARK   10  A    between atoms: C_38  and  O_59
REMARK   11  A    between atoms: C_41  and  O_56
REMARK                            x       y       z     vdW  Elec       q    Type
REMARK                         _______ _______ _______ _____ _____    ______ ____
ROOT
ATOM      1  C   UNL     1       6.164   0.350   0.000  0.00  0.00    +0.000 C 
ATOM      2  C   UNL     1       5.535  -2.044   0.000  0.00  0.00    +0.000 C 
ATOM      3  C   UNL     1       8.299  -2.771   0.000  0.00  0.00    +0.000 C 
ATOM      4  C   UNL     1       8.010  -0.335   0.000  0.00  0.00    +0.000 C 
ATOM      5  C   UNL     1       6.783  -4.027   0.000  0.00  0.00    +0.000 C 
ATOM      6  C   UNL     1       3.651  -3.250   0.000  0.00  0.00    +0.000 C 
ATOM      7  C   UNL     1       6.541  -1.029   0.000  0.00  0.00    +0.000 C 
ATOM      8  C   UNL     1       5.954  -0.448   0.000  0.00  0.00    +0.000 C 
ATOM      9  C   UNL     1       4.949  -1.464   0.000  0.00  0.00    +0.000 C 
ATOM     10  C   UNL     1       7.713  -2.190   0.000  0.00  0.00    +0.000 C 
ATOM     11  C   UNL     1       4.529  -3.059   0.000  0.00  0.00    +0.000 C 
ATOM     12  C   UNL     1       5.159  -0.666   0.000  0.00  0.00    +0.000 C 
ATOM     13  C   UNL     1       4.153  -1.681   0.000  0.00  0.00    +0.000 C 
ATOM     14  C   UNL     1       6.917  -2.407   0.000  0.00  0.00    +0.000 C 
ATOM     15  C   UNL     1       7.923  -1.392   0.000  0.00  0.00    +0.000 C 
ATOM     16  C   UNL     1       5.911  -3.423   0.000  0.00  0.00    +0.000 C 
ATOM     17  C   UNL     1       2.820  -1.757   0.000  0.00  0.00    +0.000 C 
ATOM     18  C   UNL     1       7.336  -0.812   0.000  0.00  0.00    +0.000 C 
ATOM     19  C   UNL     1       6.707  -3.205   0.000  0.00  0.00    +0.000 C 
ATOM     20  C   UNL     1       3.943  -2.479   0.000  0.00  0.00    +0.000 C 
ATOM     21  F   UNL     1       7.529  -3.273   0.000  0.00  0.00    +0.000 F 
ATOM     22  N   UNL     1       3.459  -1.235   0.000  0.00  0.00    +0.000 N 
ATOM     23  O   UNL     1       4.572  -0.085   0.000  0.00  0.00    +0.000 OA
ATOM     24  O   UNL     1       6.331  -1.827   0.000  0.00  0.00    +0.000 OA
ATOM     25  O   UNL     1       5.702  -4.221   0.000  0.00  0.00    +0.000 OA
ATOM     26  O   UNL     1       2.022  -1.547   0.000  0.00  0.00    +0.000 OA
ATOM     27  O   UNL     1       5.325  -2.842   0.000  0.00  0.00    +0.000 OA
ATOM     28  O   UNL     1       3.120  -2.526   0.000  0.00  0.00    +0.000 OA
ENDROOT
BRANCH  18  30
ATOM     29  C   UNL     1       7.454   0.613   0.000  0.00  0.00    +0.000 C 
ATOM     30  O   UNL     1       6.984  -0.066   0.000  0.00  0.00    +0.000 OA
ENDBRANCH  18  30
BRANCH  11  32
ATOM     31  C   UNL     1       4.906  -4.438   0.000  0.00  0.00    +0.000 C 
ATOM     32  C   UNL     1       4.320  -3.857   0.000  0.00  0.00    +0.000 C 
ENDBRANCH  11  32
BRANCH  22  33
ATOM     33  C   UNL     1       3.412  -0.411   0.000  0.00  0.00    +0.000 C 
BRANCH  33  34
ATOM     34  C   UNL     1       4.102   0.042   0.000  0.00  0.00    +0.000 C 
BRANCH  34  35
ATOM     35  C   UNL     1       4.054   0.865   0.000  0.00  0.00    +0.000 C 
BRANCH  35  36
ATOM     36  C   UNL     1       3.318   1.236   0.000  0.00  0.00    +0.000 C 
BRANCH  36  41
ATOM     37  C   UNL     1       1.856   1.075   0.000  0.00  0.00    +0.000 A 
ATOM     38  C   UNL     1       1.340   0.432   0.000  0.00  0.00    +0.000 A 
ATOM     39  N   UNL     1       1.793  -0.258   0.000  0.00  0.00    +0.000 NA
ATOM     40  N   UNL     1       2.589  -0.041   0.000  0.00  0.00    +0.000 NA
ATOM     41  N   UNL     1       2.628   0.784   0.000  0.00  0.00    +0.000 N 
BRANCH  38  46
ATOM     42  C   UNL     1      -0.754  -0.184   0.000  0.00  0.00    +0.000 A 
ATOM     43  C   UNL     1       0.070  -0.223   0.000  0.00  0.00    +0.000 A 
ATOM     44  C   UNL     1      -1.132   0.550   0.000  0.00  0.00    +0.000 A 
ATOM     45  C   UNL     1       0.138   1.204   0.000  0.00  0.00    +0.000 A 
ATOM     46  C   UNL     1       0.516   0.471   0.000  0.00  0.00    +0.000 A 
ATOM     47  C   UNL     1      -0.686   1.244   0.000  0.00  0.00    +0.000 A 
ATOM     48  N   UNL     1      -1.064   1.977   0.000  0.00  0.00    +0.000 NA
ENDBRANCH  38  46
ENDBRANCH  36  41
ENDBRANCH  35  36
ENDBRANCH  34  35
ENDBRANCH  33  34
ENDBRANCH  22  33
BRANCH  15  49
ATOM     49  O   UNL     1       8.718  -1.175   0.000  0.00  0.00    +0.000 OA
BRANCH  49  55
ATOM     50  C   UNL     1       7.966   1.582   0.000  0.00  0.00    +0.000 C 
ATOM     51  C   UNL     1       9.348   1.219   0.000  0.00  0.00    +0.000 C 
ATOM     52  C   UNL     1       8.552   1.002   0.000  0.00  0.00    +0.000 C 
ATOM     53  C   UNL     1       9.934   0.638   0.000  0.00  0.00    +0.000 C 
ATOM     54  C   UNL     1       9.724  -0.160   0.000  0.00  0.00    +0.000 C 
ATOM     55  C   UNL     1       8.928  -0.377   0.000  0.00  0.00    +0.000 C 
ATOM     56  O   UNL     1      10.310  -0.740   0.000  0.00  0.00    +0.000 OA
ATOM     57  O   UNL     1       8.342   0.204   0.000  0.00  0.00    +0.000 OA
BRANCH  53  60
ATOM     58  C   UNL     1      10.939   1.653   0.000  0.00  0.00    +0.000 C 
ATOM     59  C   UNL     1      11.316   0.275   0.000  0.00  0.00    +0.000 C 
ATOM     60  N   UNL     1      10.730   0.856   0.000  0.00  0.00    +0.000 NA
ENDBRANCH  53  60
ENDBRANCH  49  55
ENDBRANCH  15  49
TORSDOF 11
