REMARK  Name = 
REMARK  1 active torsions:
REMARK  status: ('A' for Active; 'I' for Inactive)
REMARK    1  A    between atoms: C_19  and  C_20
REMARK                            x       y       z     vdW  Elec       q    Type
REMARK                         _______ _______ _______ _____ _____    ______ ____
ROOT
ATOM      1  C   UNL     1       3.554  -3.042   0.000  0.00  0.00    +0.000 C 
ATOM      2  N   UNL     1       3.554  -2.217   0.000  0.00  0.00    +0.000 NA
ATOM      3  C   UNL     1       4.268  -1.805   0.000  0.00  0.00    +0.000 C 
ATOM      4  C   UNL     1       4.268  -0.980   0.000  0.00  0.00    +0.000 C 
ATOM      5  C   UNL     1       3.554  -0.567   0.000  0.00  0.00    +0.000 C 
ATOM      6  C   UNL     1       3.554   0.258   0.000  0.00  0.00    +0.000 C 
ATOM      7  C   UNL     1       4.297   0.616   0.000  0.00  0.00    +0.000 A 
ATOM      8  C   UNL     1       4.902   0.055   0.000  0.00  0.00    +0.000 A 
ATOM      9  C   UNL     1       5.690   0.298   0.000  0.00  0.00    +0.000 A 
ATOM     10  C   UNL     1       5.874   1.102   0.000  0.00  0.00    +0.000 A 
ATOM     11  C   UNL     1       5.269   1.663   0.000  0.00  0.00    +0.000 A 
ATOM     12  C   UNL     1       4.481   1.420   0.000  0.00  0.00    +0.000 A 
ATOM     13  C   UNL     1       3.966   2.065   0.000  0.00  0.00    +0.000 C 
ATOM     14  C   UNL     1       3.141   2.065   0.000  0.00  0.00    +0.000 C 
ATOM     15  N   UNL     1       2.627   1.420   0.000  0.00  0.00    +0.000 N 
ATOM     16  C   UNL     1       2.811   0.616   0.000  0.00  0.00    +0.000 A 
ATOM     17  N   UNL     1       2.102   0.193   0.000  0.00  0.00    +0.000 NA
ATOM     18  C   UNL     1       1.481   0.735   0.000  0.00  0.00    +0.000 A 
ATOM     19  C   UNL     1       1.805   1.494   0.000  0.00  0.00    +0.000 A 
ATOM     20  C   UNL     1       2.839  -0.980   0.000  0.00  0.00    +0.000 C 
ATOM     21  C   UNL     1       2.839  -1.805   0.000  0.00  0.00    +0.000 C 
ENDROOT
BRANCH  19  22
ATOM     22  C   UNL     1       1.382   2.202   0.000  0.00  0.00    +0.000 C 
ATOM     23  O   UNL     1       1.784   2.923   0.000  0.00  0.00    +0.000 OA
ENDBRANCH  19  22
TORSDOF 1
