REMARK  Name = 
REMARK  5 active torsions:
REMARK  status: ('A' for Active; 'I' for Inactive)
REMARK    1  A    between atoms: C_15  and  C_17
REMARK    2  A    between atoms: C_15  and  C_18
REMARK    3  A    between atoms: C_16  and  C_21
REMARK    4  A    between atoms: C_16  and  N_22
REMARK    5  A    between atoms: C_19  and  C_21
REMARK                            x       y       z     vdW  Elec       q    Type
REMARK                         _______ _______ _______ _____ _____    ______ ____
ROOT
ATOM      1  C   UNL     1      -1.429   5.775   0.000  0.00  0.00    +0.000 C 
ATOM      2  C   UNL     1      -2.143   4.537   0.000  0.00  0.00    +0.000 C 
ATOM      3  C   UNL     1      -2.143   6.188   0.000  0.00  0.00    +0.000 C 
ATOM      4  C   UNL     1      -2.858   4.950   0.000  0.00  0.00    +0.000 C 
ATOM      5  C   UNL     1      -1.429   4.950   0.000  0.00  0.00    +0.000 C 
ATOM      6  N   UNL     1      -2.858   5.775   0.000  0.00  0.00    +0.000 NA
ENDROOT
BRANCH   6   8
ATOM      7  C   UNL     1      -4.287   5.775   0.000  0.00  0.00    +0.000 C 
ATOM      8  C   UNL     1      -3.572   6.188   0.000  0.00  0.00    +0.000 C 
BRANCH   8   9
ATOM      9  C   UNL     1      -3.572   7.013   0.000  0.00  0.00    +0.000 C 
ATOM     10  O   UNL     1      -2.858   7.425   0.000  0.00  0.00    +0.000 OA
BRANCH   9  15
ATOM     11  C   UNL     1      -4.287   8.250   0.000  0.00  0.00    +0.000 A 
ATOM     12  C   UNL     1      -5.001   7.013   0.000  0.00  0.00    +0.000 A 
ATOM     13  C   UNL     1      -5.001   8.662   0.000  0.00  0.00    +0.000 A 
ATOM     14  C   UNL     1      -5.716   7.425   0.000  0.00  0.00    +0.000 A 
ATOM     15  C   UNL     1      -4.287   7.425   0.000  0.00  0.00    +0.000 A 
ATOM     16  C   UNL     1      -5.716   8.250   0.000  0.00  0.00    +0.000 A 
ATOM     17  O   UNL     1      -6.430   8.662   0.000  0.00  0.00    +0.000 OA
ENDBRANCH   9  15
ENDBRANCH   8   9
ENDBRANCH   6   8
BRANCH   5  18
ATOM     18  C   UNL     1      -0.714   4.537   0.000  0.00  0.00    +0.000 C 
BRANCH  18  24
ATOM     19  C   UNL     1      -0.714   2.062   0.000  0.00  0.00    +0.000 A 
ATOM     20  C   UNL     1       0.000   2.475   0.000  0.00  0.00    +0.000 A 
ATOM     21  C   UNL     1      -1.429   2.475   0.000  0.00  0.00    +0.000 A 
ATOM     22  C   UNL     1       0.000   3.300   0.000  0.00  0.00    +0.000 A 
ATOM     23  C   UNL     1      -1.429   3.300   0.000  0.00  0.00    +0.000 A 
ATOM     24  C   UNL     1      -0.714   3.712   0.000  0.00  0.00    +0.000 A 
ENDBRANCH  18  24
ENDBRANCH   5  18
TORSDOF 5
