REMARK  Name = 
REMARK  5 active torsions:
REMARK  status: ('A' for Active; 'I' for Inactive)
REMARK    1  A    between atoms: C_1  and  C_2
REMARK    2  A    between atoms: C_1  and  C_3
REMARK    3  A    between atoms: C_2  and  C_4
REMARK    4  A    between atoms: C_3  and  CA_5
REMARK    5  A    between atoms: CA_5  and  C_6
REMARK                            x       y       z     vdW  Elec       q    Type
REMARK                         _______ _______ _______ _____ _____    ______ ____
ROOT
ATOM      1  C   UNL     1       3.904   1.429   0.000  0.00  0.00    +0.000 C 
ENDROOT
BRANCH   1   2
ATOM      2  CA  UNL     1       4.618   1.841   0.000  0.00  0.00    +0.000 C 
ATOM      3  N   UNL     1       4.618   2.666   0.000  0.00  0.00    +0.000 NA
BRANCH   2   4
ATOM      4  C   UNL     1       5.333   1.429   0.000  0.00  0.00    +0.000 C 
ATOM      5  O   UNL     1       6.047   1.841   0.000  0.00  0.00    +0.000 OA
ATOM      6  OXT UNL     1       5.333   0.604   0.000  0.00  0.00    +0.000 OA
ENDBRANCH   2   4
ENDBRANCH   1   2
BRANCH   1   7
ATOM      7  C   UNL     1       3.189   1.841   0.000  0.00  0.00    +0.000 C 
BRANCH   7   8
ATOM      8  C   UNL     1       2.475   1.429   0.000  0.00  0.00    +0.000 C 
BRANCH   8   9
ATOM      9  C   UNL     1       1.760   1.841   0.000  0.00  0.00    +0.000 C 
ATOM     10  O   UNL     1       1.046   1.429   0.000  0.00  0.00    +0.000 OA
ENDBRANCH   8   9
ENDBRANCH   7   8
ENDBRANCH   1   7
TORSDOF 5
