REMARK  Name = 
REMARK  7 active torsions:
REMARK  status: ('A' for Active; 'I' for Inactive)
REMARK    1  A    between atoms: C_2  and  N_3
REMARK    2  A    between atoms: C_6  and  C_7
REMARK    3  A    between atoms: C_7  and  O_9
REMARK    4  A    between atoms: O_9  and  C_10
REMARK    5  A    between atoms: C_13  and  C_14
REMARK    6  A    between atoms: C_21  and  C_22
REMARK    7  A    between atoms: C_25  and  C_26
REMARK                            x       y       z     vdW  Elec       q    Type
REMARK                         _______ _______ _______ _____ _____    ______ ____
ROOT
ATOM      1  N   UNL     1       0.715  -1.238   0.000  0.00  0.00    +0.000 N 
ATOM      2  C   UNL     1       1.429  -1.650   0.000  0.00  0.00    +0.000 A 
ATOM      3  C   UNL     1       2.143  -1.238   0.000  0.00  0.00    +0.000 C 
ATOM      4  C   UNL     1       1.429  -2.475   0.000  0.00  0.00    +0.000 A 
ATOM      5  C   UNL     1       0.715  -2.888   0.000  0.00  0.00    +0.000 A 
ATOM      6  C   UNL     1       0.000  -2.475   0.000  0.00  0.00    +0.000 A 
ATOM      7  C   UNL     1       0.000  -1.650   0.000  0.00  0.00    +0.000 A 
ENDROOT
BRANCH   5   8
ATOM      8  C   UNL     1       0.715  -3.712   0.000  0.00  0.00    +0.000 A 
ATOM      9  C   UNL     1       1.429  -4.125   0.000  0.00  0.00    +0.000 A 
ATOM     10  C   UNL     1       1.429  -4.950   0.000  0.00  0.00    +0.000 A 
ATOM     11  C   UNL     1       0.715  -5.362   0.000  0.00  0.00    +0.000 A 
ATOM     12  C   UNL     1       0.000  -4.950   0.000  0.00  0.00    +0.000 A 
ATOM     13  C   UNL     1       0.000  -4.125   0.000  0.00  0.00    +0.000 A 
ATOM     14 CL   UNL     1      -0.715  -3.712   0.000  0.00  0.00    +0.000 Cl
ENDBRANCH   5   8
BRANCH   7  15
ATOM     15  C   UNL     1      -0.715  -1.238   0.000  0.00  0.00    +0.000 C 
ATOM     16  O   UNL     1      -0.715  -0.412   0.000  0.00  0.00    +0.000 OA
ATOM     17  O   UNL     1      -1.429  -1.650   0.000  0.00  0.00    +0.000 OA
ENDBRANCH   7  15
BRANCH   6  18
ATOM     18  C   UNL     1      -0.715  -2.888   0.000  0.00  0.00    +0.000 C 
ATOM     19  O   UNL     1      -1.429  -2.475   0.000  0.00  0.00    +0.000 OA
ATOM     20  O   UNL     1      -1.199  -3.555   0.000  0.00  0.00    +0.000 OA
ENDBRANCH   6  18
BRANCH   4  21
ATOM     21  C   UNL     1       2.143  -2.888   0.000  0.00  0.00    +0.000 C 
ATOM     22  O   UNL     1       2.858  -2.475   0.000  0.00  0.00    +0.000 OA
BRANCH  21  23
ATOM     23  O   UNL     1       2.143  -3.712   0.000  0.00  0.00    +0.000 OA
BRANCH  23  24
ATOM     24  C   UNL     1       2.858  -4.125   0.000  0.00  0.00    +0.000 C 
ATOM     25  C   UNL     1       3.572  -3.712   0.000  0.00  0.00    +0.000 C 
ATOM     26  C   UNL     1       2.858  -4.950   0.000  0.00  0.00    +0.000 C 
ENDBRANCH  23  24
ENDBRANCH  21  23
ENDBRANCH   4  21
BRANCH   1  28
ATOM     27  C   UNL     1       1.429   0.000   0.000  0.00  0.00    +0.000 C 
ATOM     28  C   UNL     1       0.715  -0.412   0.000  0.00  0.00    +0.000 C 
ENDBRANCH   1  28
TORSDOF 7
