REMARK  Name = 
REMARK  3 active torsions:
REMARK  status: ('A' for Active; 'I' for Inactive)
REMARK    1  A    between atoms: O_3  and  C_6
REMARK    2  A    between atoms: O_3  and  C_11
REMARK    3  A    between atoms: C_6  and  C_7
REMARK                            x       y       z     vdW  Elec       q    Type
REMARK                         _______ _______ _______ _____ _____    ______ ____
ROOT
ATOM      1  O   UNL     1       3.079  -0.016   0.000  0.00  0.00    +0.000 OA
ENDROOT
BRANCH   1   4
ATOM      2 CL   UNL     1       4.508  -0.841   0.000  0.00  0.00    +0.000 Cl
ATOM      3 CL   UNL     1       1.650  -0.841   0.000  0.00  0.00    +0.000 Cl
ATOM      4  C   UNL     1       3.079  -0.841   0.000  0.00  0.00    +0.000 A 
ATOM      5  C   UNL     1       3.793  -1.254   0.000  0.00  0.00    +0.000 A 
ATOM      6  C   UNL     1       2.365  -1.254   0.000  0.00  0.00    +0.000 A 
ATOM      7  C   UNL     1       3.793  -2.079   0.000  0.00  0.00    +0.000 A 
ATOM      8  C   UNL     1       2.365  -2.079   0.000  0.00  0.00    +0.000 A 
ATOM      9  C   UNL     1       3.079  -2.491   0.000  0.00  0.00    +0.000 A 
ENDBRANCH   1   4
BRANCH   1  10
ATOM     10  C   UNL     1       3.793   0.397   0.000  0.00  0.00    +0.000 C 
ATOM     11  C   UNL     1       4.508  -0.016   0.000  0.00  0.00    +0.000 C 
BRANCH  10  14
ATOM     12  N   UNL     1       3.126   1.706   0.000  0.00  0.00    +0.000 NA
ATOM     13  N   UNL     1       4.461   1.706   0.000  0.00  0.00    +0.000 NA
ATOM     14  C   UNL     1       3.793   1.222   0.000  0.00  0.00    +0.000 C 
ATOM     15  C   UNL     1       3.381   2.491   0.000  0.00  0.00    +0.000 C 
ATOM     16  C   UNL     1       4.206   2.491   0.000  0.00  0.00    +0.000 C 
ENDBRANCH  10  14
ENDBRANCH   1  10
TORSDOF 3
