REMARK  Name = 
REMARK  7 active torsions:
REMARK  status: ('A' for Active; 'I' for Inactive)
REMARK    1  A    between atoms: C_2  and  CA_4
REMARK    2  A    between atoms: C_2  and  C_5
REMARK    3  A    between atoms: C_3  and  CA_6
REMARK    4  A    between atoms: C_3  and  O_16
REMARK    5  A    between atoms: CA_4  and  C_7
REMARK    6  A    between atoms: C_5  and  O_16
REMARK    7  A    between atoms: CA_6  and  C_8
REMARK                            x       y       z     vdW  Elec       q    Type
REMARK                         _______ _______ _______ _____ _____    ______ ____
ROOT
ATOM      1  C   UNL     1       3.491  -0.715   0.000  0.00  0.00    +0.000 C 
ATOM      2  O   UNL     1       3.491  -1.540   0.000  0.00  0.00    +0.000 OA
ENDROOT
BRANCH   1   3
ATOM      3  C   UNL     1       2.777  -0.302   0.000  0.00  0.00    +0.000 C 
BRANCH   3   4
ATOM      4  CA  UNL     1       2.062  -0.715   0.000  0.00  0.00    +0.000 C 
ATOM      5  N   UNL     1       2.062  -1.540   0.000  0.00  0.00    +0.000 NA
BRANCH   4   6
ATOM      6  C   UNL     1       1.348  -0.302   0.000  0.00  0.00    +0.000 C 
ATOM      7  O   UNL     1       0.634  -0.715   0.000  0.00  0.00    +0.000 OA
ATOM      8  OXT UNL     1       1.348   0.523   0.000  0.00  0.00    +0.000 OA
ENDBRANCH   4   6
ENDBRANCH   3   4
ENDBRANCH   1   3
BRANCH   1   9
ATOM      9  O   UNL     1       4.206  -0.302   0.000  0.00  0.00    +0.000 OA
BRANCH   9  11
ATOM     10  C   UNL     1       4.920  -1.540   0.000  0.00  0.00    +0.000 C 
ATOM     11  C   UNL     1       4.920  -0.715   0.000  0.00  0.00    +0.000 C 
BRANCH  11  12
ATOM     12  CA  UNL     1       5.635  -0.302   0.000  0.00  0.00    +0.000 C 
ATOM     13  N   UNL     1       5.635   0.523   0.000  0.00  0.00    +0.000 NA
BRANCH  12  14
ATOM     14  C   UNL     1       6.349  -0.715   0.000  0.00  0.00    +0.000 C 
ATOM     15  O   UNL     1       7.064  -0.302   0.000  0.00  0.00    +0.000 OA
ATOM     16  OXT UNL     1       6.349  -1.540   0.000  0.00  0.00    +0.000 OA
ENDBRANCH  12  14
ENDBRANCH  11  12
ENDBRANCH   9  11
ENDBRANCH   1   9
TORSDOF 7
