REMARK  Name = 
REMARK  6 active torsions:
REMARK  status: ('A' for Active; 'I' for Inactive)
REMARK    1  A    between atoms: C_2  and  C_4
REMARK    2  A    between atoms: N_8  and  C_9
REMARK    3  A    between atoms: C_17  and  N_18
REMARK    4  A    between atoms: N_18  and  C_19
REMARK    5  A    between atoms: C_22  and  S_25
REMARK    6  A    between atoms: S_25  and  N_28
REMARK                            x       y       z     vdW  Elec       q    Type
REMARK                         _______ _______ _______ _____ _____    ______ ____
ROOT
ATOM      1  C   UNL     1       1.139  -0.030   0.000  0.00  0.00    +0.000 A 
ATOM      2  C   UNL     1       1.923  -0.285   0.000  0.00  0.00    +0.000 A 
ATOM      3  N   UNL     1       2.638   0.127   0.000  0.00  0.00    +0.000 NA
ATOM      4  C   UNL     1       3.352  -0.285   0.000  0.00  0.00    +0.000 A 
ATOM      5  N   UNL     1       4.067   0.127   0.000  0.00  0.00    +0.000 NA
ATOM      6  C   UNL     1       3.352  -1.110   0.000  0.00  0.00    +0.000 A 
ATOM      7  C   UNL     1       2.638  -1.523   0.000  0.00  0.00    +0.000 A 
ATOM      8  N   UNL     1       1.923  -1.110   0.000  0.00  0.00    +0.000 N 
ATOM      9  N   UNL     1       1.139  -1.365   0.000  0.00  0.00    +0.000 NA
ATOM     10  C   UNL     1       0.654  -0.698   0.000  0.00  0.00    +0.000 A 
ENDROOT
BRANCH   5  11
ATOM     11  C   UNL     1       4.067   0.952   0.000  0.00  0.00    +0.000 C 
ATOM     12  C   UNL     1       3.352   1.365   0.000  0.00  0.00    +0.000 C 
ATOM     13  C   UNL     1       3.352   2.190   0.000  0.00  0.00    +0.000 C 
ATOM     14  C   UNL     1       4.067   2.602   0.000  0.00  0.00    +0.000 C 
ATOM     15  N   UNL     1       4.067   3.427   0.000  0.00  0.00    +0.000 NA
ATOM     16  C   UNL     1       4.781   2.190   0.000  0.00  0.00    +0.000 C 
ATOM     17  C   UNL     1       4.781   1.365   0.000  0.00  0.00    +0.000 C 
ENDBRANCH   5  11
BRANCH   1  19
ATOM     18  C   UNL     1       0.077   0.926   0.000  0.00  0.00    +0.000 C 
ATOM     19  C   UNL     1       0.884   0.754   0.000  0.00  0.00    +0.000 C 
ATOM     20  C   UNL     1       1.436   1.367   0.000  0.00  0.00    +0.000 C 
ENDBRANCH   1  19
BRANCH   7  21
ATOM     21  N   UNL     1       2.638  -2.348   0.000  0.00  0.00    +0.000 NA
BRANCH  21  22
ATOM     22  C   UNL     1       1.923  -2.760   0.000  0.00  0.00    +0.000 A 
ATOM     23  C   UNL     1       1.923  -3.585   0.000  0.00  0.00    +0.000 A 
ATOM     24  C   UNL     1       1.209  -3.998   0.000  0.00  0.00    +0.000 A 
ATOM     25  C   UNL     1       0.494  -3.585   0.000  0.00  0.00    +0.000 A 
ATOM     26  C   UNL     1       0.494  -2.760   0.000  0.00  0.00    +0.000 A 
ATOM     27  C   UNL     1       1.209  -2.348   0.000  0.00  0.00    +0.000 A 
BRANCH  25  28
ATOM     28  S   UNL     1      -0.220  -3.998   0.000  0.00  0.00    +0.000 S 
ATOM     29  O   UNL     1      -0.633  -3.284   0.000  0.00  0.00    +0.000 OA
ATOM     30  O   UNL     1       0.192  -4.712   0.000  0.00  0.00    +0.000 OA
BRANCH  28  31
ATOM     31  N   UNL     1      -0.934  -4.410   0.000  0.00  0.00    +0.000 NA
ATOM     32  C   UNL     1      -0.934  -5.235   0.000  0.00  0.00    +0.000 C 
ATOM     33  C   UNL     1      -1.649  -3.998   0.000  0.00  0.00    +0.000 C 
ENDBRANCH  28  31
ENDBRANCH  25  28
ENDBRANCH  21  22
ENDBRANCH   7  21
TORSDOF 6
