REMARK  Name = 
REMARK  10 active torsions:
REMARK  status: ('A' for Active; 'I' for Inactive)
REMARK    1  A    between atoms: C_2  and  C_4
REMARK    2  A    between atoms: C_4  and  C_5
REMARK    3  A    between atoms: C_5  and  C_6
REMARK    4  A    between atoms: C_6  and  C_7
REMARK    5  A    between atoms: C_7  and  C_8
REMARK    6  A    between atoms: C_8  and  C_9
REMARK    7  A    between atoms: C_9  and  O_10
REMARK    8  A    between atoms: O_10  and  C_11
REMARK    9  A    between atoms: C_15  and  N_16
REMARK   10  A    between atoms: C_20  and  C_22
REMARK                            x       y       z     vdW  Elec       q    Type
REMARK                         _______ _______ _______ _____ _____    ______ ____
ROOT
ATOM      1  C   UNL     1       9.288 -10.312   0.000  0.00  0.00    +0.000 A 
ATOM      2  C   UNL     1      10.003  -9.900   0.000  0.00  0.00    +0.000 A 
ATOM      3 CL   UNL     1      10.003  -9.075   0.000  0.00  0.00    +0.000 Cl
ATOM      4  C   UNL     1      10.717 -10.312   0.000  0.00  0.00    +0.000 A 
ATOM      5  C   UNL     1      10.717 -11.137   0.000  0.00  0.00    +0.000 A 
ATOM      6  C   UNL     1      10.003 -11.550   0.000  0.00  0.00    +0.000 A 
ATOM      7  C   UNL     1       9.288 -11.137   0.000  0.00  0.00    +0.000 A 
ATOM      8 CL   UNL     1       8.574 -11.550   0.000  0.00  0.00    +0.000 Cl
ENDROOT
BRANCH   5   9
ATOM      9  N   UNL     1      11.431 -11.550   0.000  0.00  0.00    +0.000 NA
ATOM     10  C   UNL     1      12.146 -11.137   0.000  0.00  0.00    +0.000 C 
ATOM     11  O   UNL     1      12.146 -10.312   0.000  0.00  0.00    +0.000 OA
ATOM     12  N   UNL     1      12.861 -11.550   0.000  0.00  0.00    +0.000 NA
ATOM     13  C   UNL     1      13.575 -11.137   0.000  0.00  0.00    +0.000 C 
ATOM     14  O   UNL     1      13.575 -10.312   0.000  0.00  0.00    +0.000 OA
BRANCH  13  15
ATOM     15  C   UNL     1      14.289 -11.550   0.000  0.00  0.00    +0.000 A 
ATOM     16  C   UNL     1      15.004 -11.137   0.000  0.00  0.00    +0.000 A 
ATOM     17  C   UNL     1      15.718 -11.550   0.000  0.00  0.00    +0.000 A 
ATOM     18  C   UNL     1      15.718 -12.375   0.000  0.00  0.00    +0.000 A 
ATOM     19  C   UNL     1      15.004 -12.787   0.000  0.00  0.00    +0.000 A 
ATOM     20  C   UNL     1      14.289 -12.375   0.000  0.00  0.00    +0.000 A 
ATOM     21 CL   UNL     1      13.575 -12.787   0.000  0.00  0.00    +0.000 Cl
ENDBRANCH  13  15
ENDBRANCH   5   9
BRANCH   1  22
ATOM     22  O   UNL     1       8.574  -9.900   0.000  0.00  0.00    +0.000 OA
BRANCH  22  23
ATOM     23  C   UNL     1       7.859 -10.312   0.000  0.00  0.00    +0.000 C 
BRANCH  23  24
ATOM     24  C   UNL     1       7.145  -9.900   0.000  0.00  0.00    +0.000 C 
BRANCH  24  25
ATOM     25  C   UNL     1       6.430 -10.312   0.000  0.00  0.00    +0.000 C 
BRANCH  25  26
ATOM     26  C   UNL     1       5.716  -9.900   0.000  0.00  0.00    +0.000 C 
BRANCH  26  27
ATOM     27  C   UNL     1       5.001 -10.312   0.000  0.00  0.00    +0.000 C 
BRANCH  27  28
ATOM     28  C   UNL     1       4.287  -9.900   0.000  0.00  0.00    +0.000 C 
BRANCH  28  30
ATOM     29  O   UNL     1       2.858  -9.900   0.000  0.00  0.00    +0.000 OA
ATOM     30  C   UNL     1       3.572 -10.312   0.000  0.00  0.00    +0.000 C 
ATOM     31  O   UNL     1       3.572 -11.137   0.000  0.00  0.00    +0.000 OA
ENDBRANCH  28  30
ENDBRANCH  27  28
ENDBRANCH  26  27
ENDBRANCH  25  26
ENDBRANCH  24  25
ENDBRANCH  23  24
ENDBRANCH  22  23
ENDBRANCH   1  22
TORSDOF 10
