REMARK  Name = 
REMARK  8 active torsions:
REMARK  status: ('A' for Active; 'I' for Inactive)
REMARK    1  A    between atoms: C_4  and  C_5
REMARK    2  A    between atoms: C_9  and  C_10
REMARK    3  A    between atoms: C_10  and  O_12
REMARK    4  A    between atoms: O_12  and  C_13
REMARK    5  A    between atoms: C_13  and  C_14
REMARK    6  A    between atoms: C_13  and  C_16
REMARK    7  A    between atoms: C_21  and  O_22
REMARK    8  A    between atoms: O_22  and  C_23
REMARK                            x       y       z     vdW  Elec       q    Type
REMARK                         _______ _______ _______ _____ _____    ______ ____
ROOT
ATOM      1  C   UNL     1       5.001  -1.238   0.000  0.00  0.00    +0.000 C 
ENDROOT
BRANCH   1   2
ATOM      2  C   UNL     1       5.001  -0.412   0.000  0.00  0.00    +0.000 A 
ATOM      3  C   UNL     1       4.287   0.000   0.000  0.00  0.00    +0.000 A 
ATOM      4  C   UNL     1       4.287   0.825   0.000  0.00  0.00    +0.000 A 
ATOM      5  C   UNL     1       5.001   1.238   0.000  0.00  0.00    +0.000 A 
ATOM      6  F   UNL     1       5.001   2.062   0.000  0.00  0.00    +0.000 F 
ATOM      7  C   UNL     1       5.716   0.825   0.000  0.00  0.00    +0.000 A 
ATOM      8  C   UNL     1       5.716   0.000   0.000  0.00  0.00    +0.000 A 
BRANCH   7   9
ATOM      9  O   UNL     1       6.430   1.238   0.000  0.00  0.00    +0.000 OA
BRANCH   9  10
ATOM     10  C   UNL     1       7.145   0.825   0.000  0.00  0.00    +0.000 A 
ATOM     11  C   UNL     1       7.859   1.238   0.000  0.00  0.00    +0.000 A 
ATOM     12  C   UNL     1       8.574   0.825   0.000  0.00  0.00    +0.000 A 
ATOM     13  C   UNL     1       8.574   0.000   0.000  0.00  0.00    +0.000 A 
ATOM     14  C   UNL     1       7.859  -0.412   0.000  0.00  0.00    +0.000 A 
ATOM     15  C   UNL     1       7.145   0.000   0.000  0.00  0.00    +0.000 A 
ENDBRANCH   9  10
ENDBRANCH   7   9
ENDBRANCH   1   2
BRANCH   1  16
ATOM     16  C   UNL     1       5.716  -1.650   0.000  0.00  0.00    +0.000 C 
ATOM     17  N   UNL     1       6.430  -2.062   0.000  0.00  0.00    +0.000 NA
ENDBRANCH   1  16
BRANCH   1  18
ATOM     18  O   UNL     1       4.287  -1.650   0.000  0.00  0.00    +0.000 OA
BRANCH  18  19
ATOM     19  C   UNL     1       4.287  -2.475   0.000  0.00  0.00    +0.000 C 
ATOM     20  O   UNL     1       5.001  -2.888   0.000  0.00  0.00    +0.000 OA
BRANCH  19  25
ATOM     21  C   UNL     1       2.528  -4.132   0.000  0.00  0.00    +0.000 C 
ATOM     22  C   UNL     1       3.160  -3.602   0.000  0.00  0.00    +0.000 C 
ATOM     23  C   UNL     1       3.792  -4.132   0.000  0.00  0.00    +0.000 C 
ATOM     24  C   UNL     1       2.747  -2.888   0.000  0.00  0.00    +0.000 C 
ATOM     25  C   UNL     1       3.572  -2.888   0.000  0.00  0.00    +0.000 C 
BRANCH  24  26
ATOM     26  C   UNL     1       2.033  -2.475   0.000  0.00  0.00    +0.000 C 
ATOM     27  C   UNL     1       2.033  -1.650   0.000  0.00  0.00    +0.000 C 
ATOM     28 CL   UNL     1       1.318  -1.238   0.000  0.00  0.00    +0.000 Cl
ATOM     29 CL   UNL     1       2.747  -1.238   0.000  0.00  0.00    +0.000 Cl
ENDBRANCH  24  26
ENDBRANCH  19  25
ENDBRANCH  18  19
ENDBRANCH   1  18
TORSDOF 8
