REMARK  Name = 
REMARK  6 active torsions:
REMARK  status: ('A' for Active; 'I' for Inactive)
REMARK    1  A    between atoms: C_16  and  C_17
REMARK    2  A    between atoms: C_16  and  C_26
REMARK    3  A    between atoms: C_17  and  C_19
REMARK    4  A    between atoms: C_19  and  C_20
REMARK    5  A    between atoms: N_28  and  C_29
REMARK    6  A    between atoms: C_29  and  C_31
REMARK                            x       y       z     vdW  Elec       q    Type
REMARK                         _______ _______ _______ _____ _____    ______ ____
ROOT
ATOM      1  C   UNL     1      -1.703   0.216   0.000  0.00  0.00    +0.000 C 
ATOM      2  C   UNL     1      -2.417  -0.196   0.000  0.00  0.00    +0.000 C 
ATOM      3  C   UNL     1      -1.703  -1.433   0.000  0.00  0.00    +0.000 C 
ATOM      4  C   UNL     1      -0.274  -1.433   0.000  0.00  0.00    +0.000 C 
ATOM      5  C   UNL     1      -0.988  -0.196   0.000  0.00  0.00    +0.000 C 
ATOM      6  C   UNL     1      -0.274   1.042   0.000  0.00  0.00    +0.000 C 
ATOM      7  C   UNL     1       0.441   1.454   0.000  0.00  0.00    +0.000 C 
ATOM      8  C   UNL     1       1.940  -0.038   0.000  0.00  0.00    +0.000 C 
ATOM      9  C   UNL     1       2.425   0.629   0.000  0.00  0.00    +0.000 C 
ATOM     10  C   UNL     1      -0.988   0.629   0.000  0.00  0.00    +0.000 C 
ATOM     11  C   UNL     1      -0.274   0.216   0.000  0.00  0.00    +0.000 C 
ATOM     12  C   UNL     1       0.441  -0.196   0.000  0.00  0.00    +0.000 C 
ATOM     13  C   UNL     1       1.155   0.216   0.000  0.00  0.00    +0.000 C 
ATOM     14  C   UNL     1       1.155   1.042   0.000  0.00  0.00    +0.000 C 
ATOM     15  C   UNL     1       1.155   1.867   0.000  0.00  0.00    +0.000 C 
ATOM     16  C   UNL     1       1.940   1.296   0.000  0.00  0.00    +0.000 C 
ATOM     17  C   UNL     1      -2.417  -1.021   0.000  0.00  0.00    +0.000 C 
ATOM     18  O   UNL     1      -3.132  -1.433   0.000  0.00  0.00    +0.000 OA
ATOM     19  C   UNL     1       0.441  -1.021   0.000  0.00  0.00    +0.000 C 
ATOM     20  O   UNL     1       1.155  -1.433   0.000  0.00  0.00    +0.000 OA
ATOM     21  C   UNL     1      -0.988  -1.021   0.000  0.00  0.00    +0.000 C 
ENDROOT
BRANCH  16  23
ATOM     22  C   UNL     1       1.225   2.534   0.000  0.00  0.00    +0.000 C 
ATOM     23  C   UNL     1       1.940   2.121   0.000  0.00  0.00    +0.000 C 
BRANCH  23  24
ATOM     24  C   UNL     1       2.654   2.534   0.000  0.00  0.00    +0.000 C 
BRANCH  24  25
ATOM     25  C   UNL     1       3.369   2.121   0.000  0.00  0.00    +0.000 C 
BRANCH  25  26
ATOM     26  C   UNL     1       4.083   2.534   0.000  0.00  0.00    +0.000 C 
ATOM     27  O   UNL     1       4.083   3.359   0.000  0.00  0.00    +0.000 OA
ATOM     28  N   UNL     1       4.798   2.121   0.000  0.00  0.00    +0.000 NA
BRANCH  28  29
ATOM     29  C   UNL     1       5.512   2.534   0.000  0.00  0.00    +0.000 C 
BRANCH  29  31
ATOM     30  O   UNL     1       6.941   2.534   0.000  0.00  0.00    +0.000 OA
ATOM     31  C   UNL     1       6.226   2.121   0.000  0.00  0.00    +0.000 C 
ATOM     32  O   UNL     1       6.226   1.296   0.000  0.00  0.00    +0.000 OA
ENDBRANCH  29  31
ENDBRANCH  28  29
ENDBRANCH  25  26
ENDBRANCH  24  25
ENDBRANCH  23  24
ENDBRANCH  16  23
TORSDOF 6
