REMARK  Name = 
REMARK  3 active torsions:
REMARK  status: ('A' for Active; 'I' for Inactive)
REMARK    1  A    between atoms: CA_2  and  C_3
REMARK    2  A    between atoms: CA_2  and  C_9
REMARK    3  A    between atoms: C_3  and  N_4
REMARK                            x       y       z     vdW  Elec       q    Type
REMARK                         _______ _______ _______ _____ _____    ______ ____
ROOT
ATOM      1  C   UNL     1       1.238   0.715   0.000  0.00  0.00    +0.000 C 
ENDROOT
BRANCH   1   2
ATOM      2  N   UNL     1       0.825   0.000   0.000  0.00  0.00    +0.000 NA
ATOM      3  C   UNL     1       0.000   0.000   0.000  0.00  0.00    +0.000 C 
ATOM      4  N   UNL     1      -0.412   0.715   0.000  0.00  0.00    +0.000 NA
ATOM      5  N   UNL     1      -0.412  -0.715   0.000  0.00  0.00    +0.000 NA
ATOM      6  O   UNL     1      -1.238  -0.715   0.000  0.00  0.00    +0.000 OA
ENDBRANCH   1   2
BRANCH   1   8
ATOM      7  N   UNL     1       0.000   1.429   0.000  0.00  0.00    +0.000 NA
ATOM      8  CA  UNL     1       0.825   1.429   0.000  0.00  0.00    +0.000 C 
BRANCH   8   9
ATOM      9  C   UNL     1       1.238   2.143   0.000  0.00  0.00    +0.000 C 
ATOM     10  O   UNL     1       0.825   2.858   0.000  0.00  0.00    +0.000 OA
ATOM     11  OXT UNL     1       2.062   2.143   0.000  0.00  0.00    +0.000 OA
ENDBRANCH   8   9
ENDBRANCH   1   8
TORSDOF 3
