REMARK  Name = 
REMARK  5 active torsions:
REMARK  status: ('A' for Active; 'I' for Inactive)
REMARK    1  A    between atoms: C_2  and  C_6
REMARK    2  A    between atoms: C_6  and  C_9
REMARK    3  A    between atoms: N_7  and  C_9
REMARK    4  A    between atoms: N_7  and  C_10
REMARK    5  A    between atoms: C_8  and  C_15
REMARK                            x       y       z     vdW  Elec       q    Type
REMARK                         _______ _______ _______ _____ _____    ______ ____
ROOT
ATOM      1  O   UNL     1      -2.026  -4.030   0.000  0.00  0.00    +0.000 OA
ATOM      2  C   UNL     1      -1.548  -4.702   0.000  0.00  0.00    +0.000 A 
ATOM      3  C   UNL     1      -2.801  -4.275   0.000  0.00  0.00    +0.000 A 
ATOM      4  C   UNL     1      -2.026  -5.351   0.000  0.00  0.00    +0.000 A 
ATOM      5  C   UNL     1      -2.801  -5.106   0.000  0.00  0.00    +0.000 A 
ATOM      6  C   UNL     1      -3.512  -3.865   0.000  0.00  0.00    +0.000 A 
ATOM      7  C   UNL     1      -3.512  -5.516   0.000  0.00  0.00    +0.000 A 
ATOM      8  C   UNL     1      -4.230  -5.106   0.000  0.00  0.00    +0.000 A 
ATOM      9  C   UNL     1      -4.230  -4.275   0.000  0.00  0.00    +0.000 A 
ENDROOT
BRANCH   2  10
ATOM     10  C   UNL     1      -0.729  -4.702   0.000  0.00  0.00    +0.000 C 
ATOM     11  O   UNL     1      -0.319  -5.419   0.000  0.00  0.00    +0.000 OA
BRANCH  10  12
ATOM     12  C   UNL     1      -0.319  -3.996   0.000  0.00  0.00    +0.000 C 
BRANCH  12  13
ATOM     13  N   UNL     1      -0.729  -3.279   0.000  0.00  0.00    +0.000 NA
BRANCH  13  14
ATOM     14  C   UNL     1      -0.319  -2.567   0.000  0.00  0.00    +0.000 C 
ATOM     15  C   UNL     1      -1.025  -2.140   0.000  0.00  0.00    +0.000 C 
ATOM     16  C   UNL     1       0.108  -1.850   0.000  0.00  0.00    +0.000 C 
ATOM     17  C   UNL     1       0.410  -2.977   0.000  0.00  0.00    +0.000 C 
ENDBRANCH  13  14
ENDBRANCH  12  13
ENDBRANCH  10  12
ENDBRANCH   2  10
BRANCH   6  18
ATOM     18  C   UNL     1      -3.512  -3.046   0.000  0.00  0.00    +0.000 C 
ATOM     19  C   UNL     1      -4.230  -2.630   0.000  0.00  0.00    +0.000 C 
ENDBRANCH   6  18
TORSDOF 5
