REMARK  Name = 
REMARK  8 active torsions:
REMARK  status: ('A' for Active; 'I' for Inactive)
REMARK    1  A    between atoms: C_14  and  C_18
REMARK    2  A    between atoms: C_14  and  C_24
REMARK    3  A    between atoms: C_17  and  C_21
REMARK    4  A    between atoms: C_17  and  N_32
REMARK    5  A    between atoms: C_22  and  C_28
REMARK    6  A    between atoms: C_24  and  C_29
REMARK    7  A    between atoms: C_24  and  N_32
REMARK    8  A    between atoms: C_26  and  C_27
REMARK                            x       y       z     vdW  Elec       q    Type
REMARK                         _______ _______ _______ _____ _____    ______ ____
ROOT
ATOM      1  C   UNL     1      -2.948   1.264   0.000  0.00  0.00    +0.000 C 
ATOM      2  N   UNL     1      -2.862   2.085   0.000  0.00  0.00    +0.000 N 
ATOM      3  O   UNL     1      -2.281   0.779   0.000  0.00  0.00    +0.000 OA
ENDROOT
BRANCH   1   8
ATOM      4  C   UNL     1      -5.123   1.078   0.000  0.00  0.00    +0.000 A 
ATOM      5  C   UNL     1      -4.369   1.414   0.000  0.00  0.00    +0.000 A 
ATOM      6  C   UNL     1      -4.542  -0.227   0.000  0.00  0.00    +0.000 A 
ATOM      7  C   UNL     1      -5.209   0.258   0.000  0.00  0.00    +0.000 A 
ATOM      8  C   UNL     1      -3.702   0.929   0.000  0.00  0.00    +0.000 A 
ATOM      9  C   UNL     1      -3.788   0.108   0.000  0.00  0.00    +0.000 A 
ATOM     10 CL   UNL     1      -5.963  -0.078   0.000  0.00  0.00    +0.000 Cl
ATOM     11 CL   UNL     1      -3.121  -0.377   0.000  0.00  0.00    +0.000 Cl
ENDBRANCH   1   8
BRANCH   2  12
ATOM     12  C   UNL     1      -2.108   2.420   0.000  0.00  0.00    +0.000 C 
BRANCH  12  15
ATOM     13  C   UNL     1      -1.441   1.110   0.000  0.00  0.00    +0.000 A 
ATOM     14  C   UNL     1      -0.656   0.856   0.000  0.00  0.00    +0.000 A 
ATOM     15  C   UNL     1      -1.441   1.935   0.000  0.00  0.00    +0.000 A 
ATOM     16  C   UNL     1      -0.171   1.523   0.000  0.00  0.00    +0.000 A 
ATOM     17  S   UNL     1      -0.656   2.190   0.000  0.00  0.00    +0.000 S 
BRANCH  16  25
ATOM     18  C   UNL     1       3.352   1.110   0.000  0.00  0.00    +0.000 A 
ATOM     19  C   UNL     1       3.352   1.935   0.000  0.00  0.00    +0.000 A 
ATOM     20  C   UNL     1       2.638   0.698   0.000  0.00  0.00    +0.000 A 
ATOM     21  C   UNL     1       2.638   2.348   0.000  0.00  0.00    +0.000 A 
ATOM     22  C   UNL     1       1.139   0.856   0.000  0.00  0.00    +0.000 A 
ATOM     23  C   UNL     1       1.923   1.110   0.000  0.00  0.00    +0.000 A 
ATOM     24  C   UNL     1       1.923   1.935   0.000  0.00  0.00    +0.000 A 
ATOM     25  C   UNL     1       0.654   1.523   0.000  0.00  0.00    +0.000 A 
ATOM     26  O   UNL     1       1.139   2.190   0.000  0.00  0.00    +0.000 OA
ENDBRANCH  16  25
ENDBRANCH  12  15
ENDBRANCH   2  12
BRANCH   2  27
ATOM     27  C   UNL     1      -3.529   2.570   0.000  0.00  0.00    +0.000 C 
BRANCH  27  28
ATOM     28  C   UNL     1      -3.443   3.390   0.000  0.00  0.00    +0.000 C 
ATOM     29  O   UNL     1      -4.111   3.875   0.000  0.00  0.00    +0.000 OA
ATOM     30  O   UNL     1      -2.689   3.726   0.000  0.00  0.00    +0.000 OA
ENDBRANCH  27  28
BRANCH  27  31
ATOM     31  C   UNL     1      -4.283   2.234   0.000  0.00  0.00    +0.000 C 
BRANCH  31  37
ATOM     32  C   UNL     1      -6.285   3.689   0.000  0.00  0.00    +0.000 A 
ATOM     33  C   UNL     1      -6.372   2.869   0.000  0.00  0.00    +0.000 A 
ATOM     34  C   UNL     1      -5.532   4.024   0.000  0.00  0.00    +0.000 A 
ATOM     35  C   UNL     1      -5.704   2.384   0.000  0.00  0.00    +0.000 A 
ATOM     36  C   UNL     1      -4.864   3.540   0.000  0.00  0.00    +0.000 A 
ATOM     37  C   UNL     1      -4.950   2.719   0.000  0.00  0.00    +0.000 A 
ENDBRANCH  31  37
ENDBRANCH  27  31
ENDBRANCH   2  27
TORSDOF 8
