REMARK  Name = 
REMARK  8 active torsions:
REMARK  status: ('A' for Active; 'I' for Inactive)
REMARK    1  A    between atoms: O_1  and  C_18
REMARK    2  A    between atoms: O_2  and  C_19
REMARK    3  A    between atoms: O_3  and  C_37
REMARK    4  A    between atoms: N_6  and  C_14
REMARK    5  A    between atoms: N_7  and  C_23
REMARK    6  A    between atoms: C_14  and  C_15
REMARK    7  A    between atoms: C_15  and  C_20
REMARK    8  A    between atoms: C_28  and  C_32
REMARK                            x       y       z     vdW  Elec       q    Type
REMARK                         _______ _______ _______ _____ _____    ______ ____
ROOT
ATOM      1  C   UNL     1       5.972  -0.014   0.000  0.00  0.00    +0.000 A 
ATOM      2  C   UNL     1       5.263  -0.435   0.000  0.00  0.00    +0.000 A 
ATOM      3  C   UNL     1       6.692  -0.418   0.000  0.00  0.00    +0.000 A 
ATOM      4  C   UNL     1       5.992  -1.664   0.000  0.00  0.00    +0.000 A 
ATOM      5  C   UNL     1       5.272  -1.260   0.000  0.00  0.00    +0.000 A 
ATOM      6  C   UNL     1       6.701  -1.243   0.000  0.00  0.00    +0.000 A 
ENDROOT
BRANCH   4   8
ATOM      7  O   UNL     1       4.572  -2.505   0.000  0.00  0.00    +0.000 OA
ATOM      8  N   UNL     1       6.001  -2.489   0.000  0.00  0.00    +0.000 NA
ATOM      9  C   UNL     1       5.291  -2.910   0.000  0.00  0.00    +0.000 C 
BRANCH   9  14
ATOM     10  O   UNL     1       3.849  -6.238   0.000  0.00  0.00    +0.000 OA
ATOM     11  N   UNL     1       3.849  -3.763   0.000  0.00  0.00    +0.000 NA
ATOM     12  C   UNL     1       4.564  -4.176   0.000  0.00  0.00    +0.000 A 
ATOM     13  C   UNL     1       4.564  -5.000   0.000  0.00  0.00    +0.000 A 
ATOM     14  C   UNL     1       5.301  -3.735   0.000  0.00  0.00    +0.000 A 
ATOM     15  C   UNL     1       3.135  -4.176   0.000  0.00  0.00    +0.000 A 
ATOM     16  C   UNL     1       3.135  -5.000   0.000  0.00  0.00    +0.000 A 
ATOM     17  C   UNL     1       3.849  -5.413   0.000  0.00  0.00    +0.000 A 
ATOM     18  C   UNL     1       5.301  -5.441   0.000  0.00  0.00    +0.000 A 
ATOM     19  C   UNL     1       6.048  -4.158   0.000  0.00  0.00    +0.000 A 
ATOM     20  C   UNL     1       2.397  -3.735   0.000  0.00  0.00    +0.000 A 
ATOM     21  C   UNL     1       2.397  -5.441   0.000  0.00  0.00    +0.000 A 
ATOM     22  C   UNL     1       6.048  -5.018   0.000  0.00  0.00    +0.000 A 
ATOM     23  C   UNL     1       1.650  -4.158   0.000  0.00  0.00    +0.000 A 
ATOM     24  C   UNL     1       1.650  -5.018   0.000  0.00  0.00    +0.000 A 
BRANCH  20  25
ATOM     25  O   UNL     1       2.407  -2.910   0.000  0.00  0.00    +0.000 OA
ATOM     26  C   UNL     1       1.697  -2.489   0.000  0.00  0.00    +0.000 C 
ENDBRANCH  20  25
ENDBRANCH   9  14
ENDBRANCH   4   8
BRANCH   1  27
ATOM     27  C   UNL     1       5.963   0.810   0.000  0.00  0.00    +0.000 C 
BRANCH  27  28
ATOM     28  C   UNL     1       6.673   1.231   0.000  0.00  0.00    +0.000 C 
BRANCH  28  29
ATOM     29  N   UNL     1       6.663   2.056   0.000  0.00  0.00    +0.000 NA
ATOM     30  C   UNL     1       5.915   2.480   0.000  0.00  0.00    +0.000 C 
ATOM     31  C   UNL     1       7.400   2.497   0.000  0.00  0.00    +0.000 C 
ATOM     32  C   UNL     1       5.915   3.339   0.000  0.00  0.00    +0.000 C 
ATOM     33  C   UNL     1       7.380   3.356   0.000  0.00  0.00    +0.000 A 
ATOM     34  C   UNL     1       6.663   3.763   0.000  0.00  0.00    +0.000 A 
ATOM     35  C   UNL     1       8.092   3.774   0.000  0.00  0.00    +0.000 A 
ATOM     36  C   UNL     1       6.657   4.588   0.000  0.00  0.00    +0.000 A 
ATOM     37  C   UNL     1       8.085   4.599   0.000  0.00  0.00    +0.000 A 
ATOM     38  C   UNL     1       7.368   5.006   0.000  0.00  0.00    +0.000 A 
BRANCH  38  39
ATOM     39  O   UNL     1       7.361   5.831   0.000  0.00  0.00    +0.000 OA
ATOM     40  C   UNL     1       6.644   6.238   0.000  0.00  0.00    +0.000 C 
ENDBRANCH  38  39
BRANCH  37  41
ATOM     41  O   UNL     1       8.796   5.017   0.000  0.00  0.00    +0.000 OA
ATOM     42  C   UNL     1       9.514   4.610   0.000  0.00  0.00    +0.000 C 
ENDBRANCH  37  41
ENDBRANCH  28  29
ENDBRANCH  27  28
ENDBRANCH   1  27
TORSDOF 8
