REMARK  Name = 
REMARK  5 active torsions:
REMARK  status: ('A' for Active; 'I' for Inactive)
REMARK    1  A    between atoms: N_5  and  C_13
REMARK    2  A    between atoms: N_6  and  C_15
REMARK    3  A    between atoms: N_7  and  C_14
REMARK    4  A    between atoms: C_13  and  C_14
REMARK    5  A    between atoms: C_21  and  C_28
REMARK                            x       y       z     vdW  Elec       q    Type
REMARK                         _______ _______ _______ _____ _____    ______ ____
ROOT
ATOM      1  N   UNL     1       5.179  -0.366   0.000  0.00  0.00    +0.000 NA
ATOM      2  N   UNL     1       5.692   1.202   0.000  0.00  0.00    +0.000 N 
ATOM      3  C   UNL     1       4.628   0.248   0.000  0.00  0.00    +0.000 C 
ATOM      4  C   UNL     1       5.987  -0.196   0.000  0.00  0.00    +0.000 C 
ATOM      5  C   UNL     1       4.885   1.032   0.000  0.00  0.00    +0.000 C 
ATOM      6  C   UNL     1       6.243   0.589   0.000  0.00  0.00    +0.000 C 
ENDROOT
BRANCH   2   7
ATOM      7  C   UNL     1       5.948   1.987   0.000  0.00  0.00    +0.000 A 
ATOM      8  C   UNL     1       6.756   2.157   0.000  0.00  0.00    +0.000 A 
ATOM      9  C   UNL     1       5.397   2.601   0.000  0.00  0.00    +0.000 A 
ATOM     10  C   UNL     1       7.012   2.941   0.000  0.00  0.00    +0.000 A 
ATOM     11  C   UNL     1       5.654   3.385   0.000  0.00  0.00    +0.000 A 
ATOM     12  C   UNL     1       6.461   3.555   0.000  0.00  0.00    +0.000 A 
BRANCH  10  16
ATOM     13  F   UNL     1       7.649   3.918   0.000  0.00  0.00    +0.000 F 
ATOM     14  F   UNL     1       8.627   3.281   0.000  0.00  0.00    +0.000 F 
ATOM     15  F   UNL     1       7.989   2.304   0.000  0.00  0.00    +0.000 F 
ATOM     16  C   UNL     1       7.819   3.111   0.000  0.00  0.00    +0.000 C 
ENDBRANCH  10  16
ENDBRANCH   2   7
BRANCH   1  17
ATOM     17  C   UNL     1       4.923  -1.150   0.000  0.00  0.00    +0.000 C 
BRANCH  17  18
ATOM     18  C   UNL     1       4.116  -1.320   0.000  0.00  0.00    +0.000 C 
BRANCH  18  20
ATOM     19  O   UNL     1       5.166  -2.768   0.000  0.00  0.00    +0.000 OA
ATOM     20  N   UNL     1       3.860  -2.104   0.000  0.00  0.00    +0.000 N 
ATOM     21  N   UNL     1       3.860  -3.432   0.000  0.00  0.00    +0.000 NA
ATOM     22  C   UNL     1       3.079  -2.356   0.000  0.00  0.00    +0.000 A 
ATOM     23  C   UNL     1       4.341  -2.768   0.000  0.00  0.00    +0.000 A 
ATOM     24  C   UNL     1       3.079  -3.181   0.000  0.00  0.00    +0.000 A 
ATOM     25  C   UNL     1       2.365  -1.943   0.000  0.00  0.00    +0.000 A 
ATOM     26  C   UNL     1       2.365  -3.593   0.000  0.00  0.00    +0.000 A 
ATOM     27  C   UNL     1       1.650  -2.356   0.000  0.00  0.00    +0.000 A 
ATOM     28  C   UNL     1       1.650  -3.181   0.000  0.00  0.00    +0.000 A 
ENDBRANCH  18  20
ENDBRANCH  17  18
ENDBRANCH   1  17
TORSDOF 5
