REMARK  Name = 
REMARK  11 active torsions:
REMARK  status: ('A' for Active; 'I' for Inactive)
REMARK    1  A    between atoms: O_1  and  C_21
REMARK    2  A    between atoms: N_2  and  C_8
REMARK    3  A    between atoms: N_2  and  C_11
REMARK    4  A    between atoms: N_2  and  C_12
REMARK    5  A    between atoms: N_3  and  C_10
REMARK    6  A    between atoms: N_3  and  C_13
REMARK    7  A    between atoms: C_5  and  C_6
REMARK    8  A    between atoms: C_5  and  C_7
REMARK    9  A    between atoms: C_6  and  C_8
REMARK   10  A    between atoms: C_7  and  C_9
REMARK   11  A    between atoms: C_9  and  C_10
REMARK                            x       y       z     vdW  Elec       q    Type
REMARK                         _______ _______ _______ _____ _____    ______ ____
ROOT
ATOM      1  N   UNL     1       7.389   1.813   0.000  0.00  0.00    +0.000 NA
ATOM      2  C   UNL     1       5.937   1.842   0.000  0.00  0.00    +0.000 A 
ATOM      3  C   UNL     1       6.652   2.255   0.000  0.00  0.00    +0.000 A 
ATOM      4  C   UNL     1       6.652   3.079   0.000  0.00  0.00    +0.000 A 
ATOM      5  C   UNL     1       5.222   2.255   0.000  0.00  0.00    +0.000 A 
ATOM      6  C   UNL     1       7.389   3.521   0.000  0.00  0.00    +0.000 A 
ATOM      7  C   UNL     1       5.937   3.492   0.000  0.00  0.00    +0.000 A 
ATOM      8  C   UNL     1       5.222   3.079   0.000  0.00  0.00    +0.000 A 
ATOM      9  C   UNL     1       8.136   3.097   0.000  0.00  0.00    +0.000 A 
ATOM     10  C   UNL     1       7.380   4.346   0.000  0.00  0.00    +0.000 C 
ATOM     11  C   UNL     1       8.136   2.237   0.000  0.00  0.00    +0.000 A 
ENDROOT
BRANCH   8  12
ATOM     12  O   UNL     1       4.508   3.492   0.000  0.00  0.00    +0.000 OA
ATOM     13  C   UNL     1       4.508   4.317   0.000  0.00  0.00    +0.000 C 
ENDBRANCH   8  12
BRANCH   2  14
ATOM     14  N   UNL     1       5.937   1.017   0.000  0.00  0.00    +0.000 NA
BRANCH  14  15
ATOM     15  C   UNL     1       5.222   0.605   0.000  0.00  0.00    +0.000 C 
BRANCH  15  16
ATOM     16  C   UNL     1       5.222  -0.221   0.000  0.00  0.00    +0.000 C 
BRANCH  16  17
ATOM     17  C   UNL     1       4.508  -0.633   0.000  0.00  0.00    +0.000 C 
BRANCH  17  18
ATOM     18  C   UNL     1       4.508  -1.458   0.000  0.00  0.00    +0.000 C 
BRANCH  18  19
ATOM     19  C   UNL     1       3.793  -1.871   0.000  0.00  0.00    +0.000 C 
BRANCH  19  20
ATOM     20  C   UNL     1       3.793  -2.696   0.000  0.00  0.00    +0.000 C 
BRANCH  20  21
ATOM     21  N   UNL     1       3.079  -3.108   0.000  0.00  0.00    +0.000 NA
BRANCH  21  22
ATOM     22  C   UNL     1       2.365  -2.696   0.000  0.00  0.00    +0.000 C 
ATOM     23  C   UNL     1       1.650  -3.108   0.000  0.00  0.00    +0.000 C 
ENDBRANCH  21  22
BRANCH  21  24
ATOM     24  C   UNL     1       3.079  -3.933   0.000  0.00  0.00    +0.000 C 
ATOM     25  C   UNL     1       2.365  -4.346   0.000  0.00  0.00    +0.000 C 
ENDBRANCH  21  24
ENDBRANCH  20  21
ENDBRANCH  19  20
ENDBRANCH  18  19
ENDBRANCH  17  18
ENDBRANCH  16  17
ENDBRANCH  15  16
ENDBRANCH  14  15
ENDBRANCH   2  14
TORSDOF 11
