REMARK  Name = 
REMARK  9 active torsions:
REMARK  status: ('A' for Active; 'I' for Inactive)
REMARK    1  A    between atoms: O_5  and  C_39
REMARK    2  A    between atoms: O_5  and  C_42
REMARK    3  A    between atoms: N_6  and  C_15
REMARK    4  A    between atoms: C_8  and  C_17
REMARK    5  A    between atoms: C_15  and  C_16
REMARK    6  A    between atoms: C_16  and  C_18
REMARK    7  A    between atoms: C_18  and  C_23
REMARK    8  A    between atoms: C_31  and  C_34
REMARK    9  A    between atoms: C_34  and  C_36
REMARK                            x       y       z     vdW  Elec       q    Type
REMARK                         _______ _______ _______ _____ _____    ______ ____
ROOT
ATOM      1  O   UNL     1       7.808   7.330   0.000  0.00  0.00    +0.000 OA
ATOM      2  N   UNL     1       6.428   6.960   0.000  0.00  0.00    +0.000 N 
ATOM      3  C   UNL     1       6.058   5.580   0.000  0.00  0.00    +0.000 C 
ATOM      4  C   UNL     1       5.261   5.793   0.000  0.00  0.00    +0.000 C 
ATOM      5  C   UNL     1       6.641   6.163   0.000  0.00  0.00    +0.000 C 
ATOM      6  C   UNL     1       5.047   6.590   0.000  0.00  0.00    +0.000 C 
ATOM      7  C   UNL     1       5.631   7.173   0.000  0.00  0.00    +0.000 C 
ATOM      8  C   UNL     1       7.011   7.543   0.000  0.00  0.00    +0.000 C 
ENDROOT
BRANCH   3  11
ATOM      9 CL   UNL     1       6.797   2.819   0.000  0.00  0.00    +0.000 Cl
ATOM     10 CL   UNL     1       8.391   3.246   0.000  0.00  0.00    +0.000 Cl
ATOM     11  C   UNL     1       6.641   4.996   0.000  0.00  0.00    +0.000 A 
ATOM     12  C   UNL     1       6.428   4.199   0.000  0.00  0.00    +0.000 A 
ATOM     13  C   UNL     1       7.438   5.210   0.000  0.00  0.00    +0.000 A 
ATOM     14  C   UNL     1       7.011   3.616   0.000  0.00  0.00    +0.000 A 
ATOM     15  C   UNL     1       8.021   4.626   0.000  0.00  0.00    +0.000 A 
ATOM     16  C   UNL     1       7.808   3.829   0.000  0.00  0.00    +0.000 A 
ENDBRANCH   3  11
BRANCH   8  17
ATOM     17  C   UNL     1       6.797   8.340   0.000  0.00  0.00    +0.000 C 
BRANCH  17  18
ATOM     18  C   UNL     1       7.381   8.924   0.000  0.00  0.00    +0.000 A 
ATOM     19  C   UNL     1       8.178   8.710   0.000  0.00  0.00    +0.000 A 
ATOM     20  C   UNL     1       7.167   9.720   0.000  0.00  0.00    +0.000 A 
ATOM     21  C   UNL     1       8.761   9.293   0.000  0.00  0.00    +0.000 A 
ATOM     22  C   UNL     1       7.751  10.304   0.000  0.00  0.00    +0.000 A 
ATOM     23  C   UNL     1       8.547  10.090   0.000  0.00  0.00    +0.000 A 
BRANCH  21  24
ATOM     24  O   UNL     1       9.558   9.080   0.000  0.00  0.00    +0.000 OA
BRANCH  24  25
ATOM     25  C   UNL     1      10.141   9.663   0.000  0.00  0.00    +0.000 C 
ATOM     26  C   UNL     1      10.938   9.450   0.000  0.00  0.00    +0.000 C 
ATOM     27  C   UNL     1       9.928  10.460   0.000  0.00  0.00    +0.000 C 
ENDBRANCH  24  25
ENDBRANCH  21  24
ENDBRANCH  17  18
ENDBRANCH   8  17
BRANCH   3  28
ATOM     28  C   UNL     1       5.844   4.783   0.000  0.00  0.00    +0.000 C 
BRANCH  28  29
ATOM     29  C   UNL     1       5.047   4.569   0.000  0.00  0.00    +0.000 C 
BRANCH  29  30
ATOM     30  N   UNL     1       4.834   3.772   0.000  0.00  0.00    +0.000 N 
ATOM     31  C   UNL     1       4.620   2.975   0.000  0.00  0.00    +0.000 C 
ATOM     32  C   UNL     1       4.528   4.885   0.000  0.00  0.00    +0.000 C 
ATOM     33  C   UNL     1       2.779   2.865   0.000  0.00  0.00    +0.000 C 
ATOM     34  C   UNL     1       6.345   3.146   0.000  0.00  0.00    +0.000 C 
ATOM     35  C   UNL     1       3.813   4.472   0.000  0.00  0.00    +0.000 C 
ATOM     36  C   UNL     1       3.191   2.150   0.000  0.00  0.00    +0.000 C 
ATOM     37  C   UNL     1       6.132   2.349   0.000  0.00  0.00    +0.000 C 
BRANCH  31  38
ATOM     38  C   UNL     1       4.692   2.153   0.000  0.00  0.00    +0.000 A 
ATOM     39  C   UNL     1       5.440   1.805   0.000  0.00  0.00    +0.000 A 
ATOM     40  C   UNL     1       4.016   1.680   0.000  0.00  0.00    +0.000 A 
ATOM     41  C   UNL     1       5.512   0.983   0.000  0.00  0.00    +0.000 A 
ATOM     42  C   UNL     1       4.088   0.858   0.000  0.00  0.00    +0.000 A 
ATOM     43  C   UNL     1       4.836   0.509   0.000  0.00  0.00    +0.000 A 
ENDBRANCH  31  38
ENDBRANCH  29  30
ENDBRANCH  28  29
ENDBRANCH   3  28
TORSDOF 9
REMARK  Name = 
REMARK  9 active torsions:
REMARK  status: ('A' for Active; 'I' for Inactive)
REMARK    1  A    between atoms: O_5  and  C_39
REMARK    2  A    between atoms: O_5  and  C_42
REMARK    3  A    between atoms: N_6  and  C_15
REMARK    4  A    between atoms: C_8  and  C_17
REMARK    5  A    between atoms: C_15  and  C_16
REMARK    6  A    between atoms: C_16  and  C_18
REMARK    7  A    between atoms: C_18  and  C_23
REMARK    8  A    between atoms: C_31  and  C_34
REMARK    9  A    between atoms: C_34  and  C_36
REMARK                            x       y       z     vdW  Elec       q    Type
REMARK                         _______ _______ _______ _____ _____    ______ ____
ROOT
ATOM      1 CL   UNL     1       0.000   5.244   0.000  0.00  0.00    +0.000 Cl
ENDROOT
TORSDOF 0
