REMARK  Name = 
REMARK  5 active torsions:
REMARK  status: ('A' for Active; 'I' for Inactive)
REMARK    1  A    between atoms: C_7  and  C_8
REMARK    2  A    between atoms: C_7  and  C_15
REMARK    3  A    between atoms: C_8  and  N_19
REMARK    4  A    between atoms: C_9  and  C_12
REMARK    5  A    between atoms: C_10  and  C_13
REMARK                            x       y       z     vdW  Elec       q    Type
REMARK                         _______ _______ _______ _____ _____    ______ ____
ROOT
ATOM      1  C   UNL     1      -2.220   0.353   0.000  0.00  0.00    +0.000 C 
ATOM      2  C   UNL     1      -3.040   0.439   0.000  0.00  0.00    +0.000 C 
ATOM      3  C   UNL     1      -3.453   1.154   0.000  0.00  0.00    +0.000 C 
ATOM      4  C   UNL     1      -4.346   0.162   0.000  0.00  0.00    +0.000 C 
ATOM      5  N   UNL     1      -4.260   0.982   0.000  0.00  0.00    +0.000 N 
ATOM      6  O   UNL     1      -3.117   1.908   0.000  0.00  0.00    +0.000 OA
ATOM      7  S   UNL     1      -5.060  -0.251   0.000  0.00  0.00    +0.000 S 
ATOM      8  S   UNL     1      -3.592  -0.174   0.000  0.00  0.00    +0.000 S 
ENDROOT
BRANCH   1  11
ATOM      9  C   UNL     1      -0.910   1.021   0.000  0.00  0.00    +0.000 A 
ATOM     10  C   UNL     1      -0.655   1.805   0.000  0.00  0.00    +0.000 A 
ATOM     11  C   UNL     1      -1.735   1.021   0.000  0.00  0.00    +0.000 A 
ATOM     12  C   UNL     1      -1.322   2.290   0.000  0.00  0.00    +0.000 A 
ATOM     13  O   UNL     1      -1.990   1.805   0.000  0.00  0.00    +0.000 OA
BRANCH  12  18
ATOM     14  C   UNL     1      -0.608   3.528   0.000  0.00  0.00    +0.000 A 
ATOM     15  C   UNL     1      -2.037   3.528   0.000  0.00  0.00    +0.000 A 
ATOM     16  C   UNL     1      -0.608   4.353   0.000  0.00  0.00    +0.000 A 
ATOM     17  C   UNL     1      -2.037   4.353   0.000  0.00  0.00    +0.000 A 
ATOM     18  C   UNL     1      -1.322   3.115   0.000  0.00  0.00    +0.000 A 
ATOM     19  C   UNL     1      -1.322   4.765   0.000  0.00  0.00    +0.000 A 
ATOM     20 CL   UNL     1      -1.322   5.590   0.000  0.00  0.00    +0.000 Cl
ENDBRANCH  12  18
ENDBRANCH   1  11
BRANCH   5  21
ATOM     21  C   UNL     1      -4.873   1.534   0.000  0.00  0.00    +0.000 C 
BRANCH  21  22
ATOM     22  C   UNL     1      -5.657   1.280   0.000  0.00  0.00    +0.000 C 
BRANCH  22  23
ATOM     23  C   UNL     1      -6.270   1.831   0.000  0.00  0.00    +0.000 C 
ATOM     24  O   UNL     1      -7.055   1.577   0.000  0.00  0.00    +0.000 OA
ATOM     25  O   UNL     1      -6.099   2.639   0.000  0.00  0.00    +0.000 OA
ENDBRANCH  22  23
ENDBRANCH  21  22
ENDBRANCH   5  21
TORSDOF 5
