REMARK  Name = 
REMARK  0 active torsions:
REMARK  status: ('A' for Active; 'I' for Inactive)
REMARK                            x       y       z     vdW  Elec       q    Type
REMARK                         _______ _______ _______ _____ _____    ______ ____
ROOT
ATOM      1  O   UNL     1       2.093  -0.206   0.000  0.00  0.00    +0.000 OA
ATOM      2  C   UNL     1       2.808   0.206   0.000  0.00  0.00    +0.000 C 
ATOM      3  C   UNL     1       3.522  -0.206   0.000  0.00  0.00    +0.000 C 
ENDROOT
TORSDOF 0
