REMARK  Name = 
REMARK  10 active torsions:
REMARK  status: ('A' for Active; 'I' for Inactive)
REMARK    1  A    between atoms: C_2  and  C_4
REMARK    2  A    between atoms: C_5  and  C_41
REMARK    3  A    between atoms: C_7  and  O_8
REMARK    4  A    between atoms: O_8  and  C_9
REMARK    5  A    between atoms: C_10  and  N_11
REMARK    6  A    between atoms: C_12  and  C_14
REMARK    7  A    between atoms: C_16  and  N_20
REMARK    8  A    between atoms: C_24  and  N_25
REMARK    9  A    between atoms: C_26  and  C_28
REMARK   10  A    between atoms: C_30  and  N_34
REMARK                            x       y       z     vdW  Elec       q    Type
REMARK                         _______ _______ _______ _____ _____    ______ ____
ROOT
ATOM      1  C   UNL     1       2.143  -7.838   0.000  0.00  0.00    +0.000 A 
ATOM      2  C   UNL     1       2.143  -8.662   0.000  0.00  0.00    +0.000 A 
ATOM      3  C   UNL     1       1.429  -9.075   0.000  0.00  0.00    +0.000 A 
ATOM      4  C   UNL     1       0.715  -8.662   0.000  0.00  0.00    +0.000 A 
ATOM      5  C   UNL     1       0.715  -7.838   0.000  0.00  0.00    +0.000 A 
ATOM      6  C   UNL     1       1.429  -7.425   0.000  0.00  0.00    +0.000 A 
ENDROOT
BRANCH   2   7
ATOM      7  N   UNL     1       2.858  -9.075   0.000  0.00  0.00    +0.000 NA
ATOM      8  C   UNL     1       3.572  -8.662   0.000  0.00  0.00    +0.000 C 
ATOM      9  O   UNL     1       3.572  -7.838   0.000  0.00  0.00    +0.000 OA
BRANCH   8  10
ATOM     10  C   UNL     1       4.287  -9.075   0.000  0.00  0.00    +0.000 A 
ATOM     11  C   UNL     1       5.001  -8.662   0.000  0.00  0.00    +0.000 A 
ATOM     12  C   UNL     1       5.716  -9.075   0.000  0.00  0.00    +0.000 A 
ATOM     13  C   UNL     1       5.716  -9.900   0.000  0.00  0.00    +0.000 A 
ATOM     14  C   UNL     1       5.001 -10.312   0.000  0.00  0.00    +0.000 A 
ATOM     15  C   UNL     1       4.287  -9.900   0.000  0.00  0.00    +0.000 A 
BRANCH  12  16
ATOM     16  N   UNL     1       6.430  -8.662   0.000  0.00  0.00    +0.000 N 
ATOM     17  O   UNL     1       7.145  -9.075   0.000  0.00  0.00    +0.000 OA
ATOM     18  O   UNL     1       6.430  -7.838   0.000  0.00  0.00    +0.000 OA
ENDBRANCH  12  16
ENDBRANCH   8  10
ENDBRANCH   2   7
BRANCH   4  19
ATOM     19  N   UNL     1       0.000  -9.075   0.000  0.00  0.00    +0.000 NA
ATOM     20  C   UNL     1       0.000  -9.900   0.000  0.00  0.00    +0.000 C 
ATOM     21  O   UNL     1       0.715 -10.312   0.000  0.00  0.00    +0.000 OA
BRANCH  20  22
ATOM     22  C   UNL     1      -0.715 -10.312   0.000  0.00  0.00    +0.000 A 
ATOM     23  C   UNL     1      -0.715 -11.137   0.000  0.00  0.00    +0.000 A 
ATOM     24  C   UNL     1      -1.429 -11.550   0.000  0.00  0.00    +0.000 A 
ATOM     25  C   UNL     1      -2.143 -11.137   0.000  0.00  0.00    +0.000 A 
ATOM     26  C   UNL     1      -2.143 -10.312   0.000  0.00  0.00    +0.000 A 
ATOM     27  C   UNL     1      -1.429  -9.900   0.000  0.00  0.00    +0.000 A 
BRANCH  24  28
ATOM     28  N   UNL     1      -1.429 -12.375   0.000  0.00  0.00    +0.000 N 
ATOM     29  O   UNL     1      -2.143 -12.787   0.000  0.00  0.00    +0.000 OA
ATOM     30  O   UNL     1      -0.715 -12.787   0.000  0.00  0.00    +0.000 OA
ENDBRANCH  24  28
ENDBRANCH  20  22
ENDBRANCH   4  19
BRANCH   1  31
ATOM     31  O   UNL     1       2.858  -7.425   0.000  0.00  0.00    +0.000 OA
BRANCH  31  35
ATOM     32  C   UNL     1       2.858  -4.950   0.000  0.00  0.00    +0.000 A 
ATOM     33  C   UNL     1       3.572  -5.362   0.000  0.00  0.00    +0.000 A 
ATOM     34  C   UNL     1       3.572  -6.188   0.000  0.00  0.00    +0.000 A 
ATOM     35  C   UNL     1       2.858  -6.600   0.000  0.00  0.00    +0.000 A 
ATOM     36  C   UNL     1       2.143  -6.188   0.000  0.00  0.00    +0.000 A 
ATOM     37  C   UNL     1       2.143  -5.362   0.000  0.00  0.00    +0.000 A 
BRANCH  32  39
ATOM     38  O   UNL     1       2.143  -3.712   0.000  0.00  0.00    +0.000 OA
ATOM     39  C   UNL     1       2.858  -4.125   0.000  0.00  0.00    +0.000 C 
ATOM     40  O   UNL     1       3.572  -3.712   0.000  0.00  0.00    +0.000 OA
ENDBRANCH  32  39
BRANCH  33  41
ATOM     41  C   UNL     1       4.287  -4.950   0.000  0.00  0.00    +0.000 C 
ATOM     42  O   UNL     1       5.001  -5.362   0.000  0.00  0.00    +0.000 OA
ATOM     43  O   UNL     1       4.287  -4.125   0.000  0.00  0.00    +0.000 OA
ENDBRANCH  33  41
ENDBRANCH  31  35
ENDBRANCH   1  31
TORSDOF 10
