REMARK  Name = 
REMARK  6 active torsions:
REMARK  status: ('A' for Active; 'I' for Inactive)
REMARK    1  A    between atoms: O_4  and  C_12
REMARK    2  A    between atoms: O_4  and  C_17
REMARK    3  A    between atoms: O_6  and  C_24
REMARK    4  A    between atoms: O_6  and  C_25
REMARK    5  A    between atoms: N_11  and  C_18
REMARK    6  A    between atoms: C_17  and  C_19
REMARK                            x       y       z     vdW  Elec       q    Type
REMARK                         _______ _______ _______ _____ _____    ______ ____
ROOT
ATOM      1  O   UNL     1       6.652   0.055   0.000  0.00  0.00    +0.000 OA
ENDROOT
BRANCH   1   5
ATOM      2  O   UNL     1       8.080  -1.595   0.000  0.00  0.00    +0.000 OA
ATOM      3  N   UNL     1       8.795  -0.357   0.000  0.00  0.00    +0.000 N 
ATOM      4  N   UNL     1       9.576  -1.434   0.000  0.00  0.00    +0.000 NA
ATOM      5  C   UNL     1       7.366  -0.357   0.000  0.00  0.00    +0.000 C 
ATOM      6  C   UNL     1       8.080   0.055   0.000  0.00  0.00    +0.000 C 
ATOM      7  C   UNL     1       7.366  -1.182   0.000  0.00  0.00    +0.000 C 
ATOM      8  C   UNL     1       8.795  -1.182   0.000  0.00  0.00    +0.000 A 
ATOM      9  C   UNL     1       9.576  -0.106   0.000  0.00  0.00    +0.000 A 
ATOM     10  C   UNL     1      10.057  -0.770   0.000  0.00  0.00    +0.000 A 
BRANCH  10  13
ATOM     11  O   UNL     1      11.295  -1.484   0.000  0.00  0.00    +0.000 OA
ATOM     12  O   UNL     1      11.295  -0.055   0.000  0.00  0.00    +0.000 OA
ATOM     13  N   UNL     1      10.882  -0.770   0.000  0.00  0.00    +0.000 N 
ENDBRANCH  10  13
ENDBRANCH   1   5
BRANCH   1  14
ATOM     14  C   UNL     1       5.937  -0.357   0.000  0.00  0.00    +0.000 C 
BRANCH  14  15
ATOM     15  C   UNL     1       5.222   0.055   0.000  0.00  0.00    +0.000 A 
ATOM     16  C   UNL     1       4.508  -0.357   0.000  0.00  0.00    +0.000 A 
ATOM     17  C   UNL     1       5.222   0.880   0.000  0.00  0.00    +0.000 A 
ATOM     18  C   UNL     1       3.793   0.055   0.000  0.00  0.00    +0.000 A 
ATOM     19  C   UNL     1       4.508   1.293   0.000  0.00  0.00    +0.000 A 
ATOM     20  C   UNL     1       3.793   0.880   0.000  0.00  0.00    +0.000 A 
BRANCH  20  21
ATOM     21  O   UNL     1       3.079   1.293   0.000  0.00  0.00    +0.000 OA
BRANCH  21  25
ATOM     22  F   UNL     1       1.650   0.468   0.000  0.00  0.00    +0.000 F 
ATOM     23  F   UNL     1       2.777   0.166   0.000  0.00  0.00    +0.000 F 
ATOM     24  F   UNL     1       1.952   1.595   0.000  0.00  0.00    +0.000 F 
ATOM     25  C   UNL     1       2.365   0.880   0.000  0.00  0.00    +0.000 C 
ENDBRANCH  21  25
ENDBRANCH  20  21
ENDBRANCH  14  15
ENDBRANCH   1  14
TORSDOF 6
