REMARK  Name = 
REMARK  8 active torsions:
REMARK  status: ('A' for Active; 'I' for Inactive)
REMARK    1  A    between atoms: C_16  and  C_17
REMARK    2  A    between atoms: C_18  and  C_19
REMARK    3  A    between atoms: C_19  and  C_20
REMARK    4  A    between atoms: C_20  and  C_21
REMARK    5  A    between atoms: C_21  and  C_22
REMARK    6  A    between atoms: C_22  and  C_23
REMARK    7  A    between atoms: C_23  and  C_24
REMARK    8  A    between atoms: C_24  and  C_25
REMARK                            x       y       z     vdW  Elec       q    Type
REMARK                         _______ _______ _______ _____ _____    ______ ____
ROOT
ATOM      1  C   UNL     1      -7.941   5.715   0.000  0.00  0.00    +0.000 C 
ATOM      2  C   UNL     1      -7.119   5.409   0.000  0.00  0.00    +0.000 C 
ATOM      3  C   UNL     1      -6.484   6.136   0.000  0.00  0.00    +0.000 C 
ATOM      4  C   UNL     1      -5.946   6.974   0.000  0.00  0.00    +0.000 C 
ATOM      5  O   UNL     1      -6.542   7.613   0.000  0.00  0.00    +0.000 OA
ATOM      6  N   UNL     1      -5.250   7.541   0.000  0.00  0.00    +0.000 NA
ATOM      7  C   UNL     1      -4.458   7.923   0.000  0.00  0.00    +0.000 C 
ATOM      8  C   UNL     1      -4.415   8.751   0.000  0.00  0.00    +0.000 C 
ATOM      9  C   UNL     1      -3.770   9.257   0.000  0.00  0.00    +0.000 C 
ATOM     10  C   UNL     1      -2.971   9.068   0.000  0.00  0.00    +0.000 C 
ATOM     11  C   UNL     1      -2.623   8.321   0.000  0.00  0.00    +0.000 C 
ATOM     12  N   UNL     1      -2.964   7.551   0.000  0.00  0.00    +0.000 N 
ATOM     13  O   UNL     1      -2.690   6.730   0.000  0.00  0.00    +0.000 OA
ATOM     14 FE   UNL     1      -2.729   5.852   0.000  0.00  0.00    +0.000 Fe
ATOM     15  O   UNL     1      -1.940   5.613   0.000  0.00  0.00    +0.000 OA
ATOM     16  C   UNL     1      -1.863   4.803   0.000  0.00  0.00    +0.000 C 
ATOM     17  N   UNL     1      -2.611   4.449   0.000  0.00  0.00    +0.000 NA
ATOM     18  C   UNL     1      -3.144   3.783   0.000  0.00  0.00    +0.000 C 
ATOM     19  C   UNL     1      -3.834   3.285   0.000  0.00  0.00    +0.000 C 
ATOM     20  C   UNL     1      -4.626   2.954   0.000  0.00  0.00    +0.000 C 
ATOM     21  C   UNL     1      -5.482   2.887   0.000  0.00  0.00    +0.000 C 
ATOM     22  C   UNL     1      -6.280   3.218   0.000  0.00  0.00    +0.000 C 
ATOM     23  N   UNL     1      -5.711   3.822   0.000  0.00  0.00    +0.000 NA
ATOM     24  C   UNL     1      -6.003   4.585   0.000  0.00  0.00    +0.000 C 
ATOM     25  O   UNL     1      -5.179   4.831   0.000  0.00  0.00    +0.000 OA
ATOM     26  C   UNL     1      -6.510   5.263   0.000  0.00  0.00    +0.000 C 
ATOM     27  C   UNL     1      -7.129   5.968   0.000  0.00  0.00    +0.000 C 
ATOM     28  O   UNL     1      -6.709   6.680   0.000  0.00  0.00    +0.000 OA
ATOM     29  C   UNL     1      -5.878   6.367   0.000  0.00  0.00    +0.000 C 
ATOM     30  N   UNL     1      -5.777   5.564   0.000  0.00  0.00    +0.000 NA
ATOM     31  C   UNL     1      -5.095   6.196   0.000  0.00  0.00    +0.000 A 
ATOM     32  C   UNL     1      -5.177   7.007   0.000  0.00  0.00    +0.000 A 
ATOM     33  C   UNL     1      -4.515   7.484   0.000  0.00  0.00    +0.000 A 
ATOM     34  C   UNL     1      -3.771   7.149   0.000  0.00  0.00    +0.000 A 
ATOM     35  C   UNL     1      -3.689   6.338   0.000  0.00  0.00    +0.000 A 
ATOM     36  C   UNL     1      -4.351   5.861   0.000  0.00  0.00    +0.000 A 
ATOM     37  O   UNL     1      -3.552   5.984   0.000  0.00  0.00    +0.000 OA
ATOM     38  C   UNL     1      -6.951   3.763   0.000  0.00  0.00    +0.000 C 
ATOM     39  O   UNL     1      -7.619   3.254   0.000  0.00  0.00    +0.000 OA
ATOM     40  O   UNL     1      -7.305   4.561   0.000  0.00  0.00    +0.000 OA
ATOM     41  O   UNL     1      -3.123   5.100   0.000  0.00  0.00    +0.000 OA
ATOM     42  C   UNL     1      -3.781   7.439   0.000  0.00  0.00    +0.000 C 
ATOM     43  O   UNL     1      -4.392   6.780   0.000  0.00  0.00    +0.000 OA
ENDROOT
BRANCH  16  44
ATOM     44  C   UNL     1      -1.138   4.392   0.000  0.00  0.00    +0.000 C 
ATOM     45  C   UNL     1      -0.418   4.808   0.000  0.00  0.00    +0.000 C 
BRANCH  45  46
ATOM     46  C   UNL     1       0.288   4.400   0.000  0.00  0.00    +0.000 C 
BRANCH  46  47
ATOM     47  C   UNL     1       0.994   4.808   0.000  0.00  0.00    +0.000 C 
BRANCH  47  48
ATOM     48  C   UNL     1       1.701   4.400   0.000  0.00  0.00    +0.000 C 
BRANCH  48  49
ATOM     49  C   UNL     1       2.407   4.808   0.000  0.00  0.00    +0.000 C 
BRANCH  49  50
ATOM     50  C   UNL     1       3.113   4.400   0.000  0.00  0.00    +0.000 C 
BRANCH  50  51
ATOM     51  C   UNL     1       3.820   4.808   0.000  0.00  0.00    +0.000 C 
BRANCH  51  52
ATOM     52  C   UNL     1       4.526   4.400   0.000  0.00  0.00    +0.000 C 
ATOM     53  O   UNL     1       5.232   4.808   0.000  0.00  0.00    +0.000 OA
ATOM     54  O   UNL     1       4.526   3.584   0.000  0.00  0.00    +0.000 OA
ENDBRANCH  51  52
ENDBRANCH  50  51
ENDBRANCH  49  50
ENDBRANCH  48  49
ENDBRANCH  47  48
ENDBRANCH  46  47
ENDBRANCH  45  46
ENDBRANCH  16  44
TORSDOF 8
