REMARK  Name = 
REMARK  35 active torsions:
REMARK  status: ('A' for Active; 'I' for Inactive)
REMARK    1  A    between atoms: C_2  and  C_4
REMARK    2  A    between atoms: C_4  and  C_5
REMARK    3  A    between atoms: C_6  and  C_7
REMARK    4  A    between atoms: C_8  and  C_9
REMARK    5  A    between atoms: N_11  and  C_12
REMARK    6  A    between atoms: C_12  and  C_13
REMARK    7  A    between atoms: C_12  and  C_17
REMARK    8  A    between atoms: C_13  and  C_14
REMARK    9  A    between atoms: N_19  and  C_20
REMARK   10  A    between atoms: C_21  and  C_179
REMARK   11  A    between atoms: C_25  and  C_171
REMARK   12  A    between atoms: C_34  and  C_35
REMARK   13  A    between atoms: C_35  and  C_36
REMARK   14  A    between atoms: C_46  and  C_164
REMARK   15  A    between atoms: C_50  and  C_161
REMARK   16  A    between atoms: C_54  and  C_132
REMARK   17  A    between atoms: C_58  and  C_59
REMARK   18  A    between atoms: C_59  and  C_60
REMARK   19  A    between atoms: C_60  and  C_61
REMARK   20  A    between atoms: C_66  and  C_67
REMARK   21  A    between atoms: C_67  and  C_68
REMARK   22  A    between atoms: C_77  and  C_129
REMARK   23  A    between atoms: C_81  and  C_122
REMARK   24  A    between atoms: C_85  and  C_115
REMARK   25  A    between atoms: C_89  and  C_112
REMARK   26  A    between atoms: C_93  and  C_94
REMARK   27  A    between atoms: C_94  and  C_95
REMARK   28  A    between atoms: C_95  and  C_96
REMARK   29  A    between atoms: C_101  and  C_105
REMARK   30  A    between atoms: C_135  and  O_136
REMARK   31  A    between atoms: O_136  and  C_137
REMARK   32  A    between atoms: C_139  and  C_140
REMARK   33  A    between atoms: C_146  and  O_147
REMARK   34  A    between atoms: O_147  and  C_148
REMARK   35  A    between atoms: C_150  and  C_151
REMARK                            x       y       z     vdW  Elec       q    Type
REMARK                         _______ _______ _______ _____ _____    ______ ____
ROOT
ATOM      1  C   UNL     1       4.691 -12.618   0.000  0.00  0.00    +0.000 C 
ATOM      2  C   UNL     1       3.882 -12.775   0.000  0.00  0.00    +0.000 C 
ATOM      3  O   UNL     1       3.482 -12.054   0.000  0.00  0.00    +0.000 OA
ATOM      4  C   UNL     1       4.044 -11.451   0.000  0.00  0.00    +0.000 C 
ATOM      5  O   UNL     1       4.165 -12.200   0.000  0.00  0.00    +0.000 OA
ATOM      6  C   UNL     1       4.099 -10.549   0.000  0.00  0.00    +0.000 C 
ATOM      7  N   UNL     1       4.820 -10.149   0.000  0.00  0.00    +0.000 NA
ATOM      8  C   UNL     1       4.834  -9.324   0.000  0.00  0.00    +0.000 C 
ATOM      9  O   UNL     1       4.198  -8.737   0.000  0.00  0.00    +0.000 OA
ATOM     10  C   UNL     1       5.556  -8.924   0.000  0.00  0.00    +0.000 C 
ATOM     11  C   UNL     1       4.904  -8.330   0.000  0.00  0.00    +0.000 C 
ATOM     12  N   UNL     1       5.570  -8.099   0.000  0.00  0.00    +0.000 NA
ATOM     13  C   UNL     1       6.291  -7.699   0.000  0.00  0.00    +0.000 C 
ATOM     14  O   UNL     1       7.081  -7.374   0.000  0.00  0.00    +0.000 OA
ATOM     15  C   UNL     1       6.305  -6.874   0.000  0.00  0.00    +0.000 C 
ATOM     16  N   UNL     1       7.027  -6.474   0.000  0.00  0.00    +0.000 NA
ATOM     17  C   UNL     1       7.041  -5.649   0.000  0.00  0.00    +0.000 C 
ATOM     18  O   UNL     1       6.402  -5.104   0.000  0.00  0.00    +0.000 OA
ATOM     19  C   UNL     1       7.762  -5.249   0.000  0.00  0.00    +0.000 C 
ATOM     20  N   UNL     1       7.776  -4.424   0.000  0.00  0.00    +0.000 NA
ATOM     21  C   UNL     1       8.498  -4.024   0.000  0.00  0.00    +0.000 C 
ATOM     22  O   UNL     1       9.316  -4.142   0.000  0.00  0.00    +0.000 OA
ATOM     23  C   UNL     1       8.512  -3.199   0.000  0.00  0.00    +0.000 C 
ATOM     24  N   UNL     1       9.233  -2.799   0.000  0.00  0.00    +0.000 NA
ATOM     25  C   UNL     1       9.248  -1.974   0.000  0.00  0.00    +0.000 C 
ATOM     26  O   UNL     1       8.514  -1.683   0.000  0.00  0.00    +0.000 OA
ATOM     27  C   UNL     1       9.969  -1.574   0.000  0.00  0.00    +0.000 C 
ATOM     28  N   UNL     1       9.983  -0.749   0.000  0.00  0.00    +0.000 NA
ATOM     29  C   UNL     1      10.704  -0.349   0.000  0.00  0.00    +0.000 C 
ATOM     30  O   UNL     1      11.132  -1.045   0.000  0.00  0.00    +0.000 OA
ATOM     31  C   UNL     1      10.719   0.476   0.000  0.00  0.00    +0.000 C 
ATOM     32  N   UNL     1      11.440   0.876   0.000  0.00  0.00    +0.000 NA
ATOM     33  C   UNL     1      12.147   0.452   0.000  0.00  0.00    +0.000 C 
ATOM     34  O   UNL     1      11.908  -0.321   0.000  0.00  0.00    +0.000 OA
ATOM     35  C   UNL     1      12.869   0.852   0.000  0.00  0.00    +0.000 C 
ATOM     36  N   UNL     1      13.576   0.427   0.000  0.00  0.00    +0.000 NA
ATOM     37  C   UNL     1      13.562  -0.398   0.000  0.00  0.00    +0.000 C 
ATOM     38  O   UNL     1      14.414  -0.320   0.000  0.00  0.00    +0.000 OA
ATOM     39  C   UNL     1      12.841  -0.798   0.000  0.00  0.00    +0.000 C 
ATOM     40  N   UNL     1      12.826  -1.623   0.000  0.00  0.00    +0.000 NA
ATOM     41  C   UNL     1      12.105  -2.023   0.000  0.00  0.00    +0.000 C 
ATOM     42  O   UNL     1      11.268  -2.065   0.000  0.00  0.00    +0.000 OA
ATOM     43  C   UNL     1      12.091  -2.848   0.000  0.00  0.00    +0.000 C 
ATOM     44  N   UNL     1      11.369  -3.248   0.000  0.00  0.00    +0.000 NA
ATOM     45  C   UNL     1      11.355  -4.073   0.000  0.00  0.00    +0.000 C 
ATOM     46  O   UNL     1      12.025  -3.683   0.000  0.00  0.00    +0.000 OA
ATOM     47  C   UNL     1      10.634  -4.473   0.000  0.00  0.00    +0.000 C 
ATOM     48  N   UNL     1      10.620  -5.298   0.000  0.00  0.00    +0.000 NA
ATOM     49  C   UNL     1       9.898  -5.698   0.000  0.00  0.00    +0.000 C 
ATOM     50  O   UNL     1       9.074  -5.588   0.000  0.00  0.00    +0.000 OA
ATOM     51  C   UNL     1       9.884  -6.523   0.000  0.00  0.00    +0.000 C 
ATOM     52  N   UNL     1       9.163  -6.923   0.000  0.00  0.00    +0.000 NA
ATOM     53  C   UNL     1       9.149  -7.748   0.000  0.00  0.00    +0.000 C 
ATOM     54  O   UNL     1       9.869  -8.097   0.000  0.00  0.00    +0.000 OA
ATOM     55  C   UNL     1       8.427  -8.148   0.000  0.00  0.00    +0.000 C 
ATOM     56  N   UNL     1       8.413  -8.973   0.000  0.00  0.00    +0.000 NA
ATOM     57  C   UNL     1       7.692  -9.373   0.000  0.00  0.00    +0.000 C 
ATOM     58  O   UNL     1       7.735  -8.524   0.000  0.00  0.00    +0.000 OA
ATOM     59  C   UNL     1       7.678 -10.198   0.000  0.00  0.00    +0.000 C 
ATOM     60  N   UNL     1       6.956 -10.598   0.000  0.00  0.00    +0.000 NA
ATOM     61  C   UNL     1       6.942 -11.423   0.000  0.00  0.00    +0.000 C 
ATOM     62  O   UNL     1       7.888 -11.342   0.000  0.00  0.00    +0.000 OA
ATOM     63  C   UNL     1       6.221 -11.823   0.000  0.00  0.00    +0.000 C 
ATOM     64  N   UNL     1       6.206 -12.648   0.000  0.00  0.00    +0.000 NA
ATOM     65  C   UNL     1       5.485 -13.049   0.000  0.00  0.00    +0.000 C 
ATOM     66  O   UNL     1       5.500 -13.899   0.000  0.00  0.00    +0.000 OA
ENDROOT
BRANCH   6  67
ATOM     67  C   UNL     1       3.401 -10.110   0.000  0.00  0.00    +0.000 A 
ATOM     68  C   UNL     1       2.671 -10.494   0.000  0.00  0.00    +0.000 A 
ATOM     69  C   UNL     1       1.973 -10.054   0.000  0.00  0.00    +0.000 A 
ATOM     70 CL   UNL     1       1.229 -10.450   0.000  0.00  0.00    +0.000 Cl
ATOM     71  C   UNL     1       2.005  -9.230   0.000  0.00  0.00    +0.000 A 
ATOM     72  O   UNL     1       1.431  -8.610   0.000  0.00  0.00    +0.000 OA
ATOM     73  C   UNL     1       2.735  -8.845   0.000  0.00  0.00    +0.000 A 
ATOM     74  C   UNL     1       3.433  -9.285   0.000  0.00  0.00    +0.000 A 
ENDBRANCH   6  67
BRANCH  51  75
ATOM     75  C   UNL     1      10.591  -6.948   0.000  0.00  0.00    +0.000 A 
ATOM     76  C   UNL     1      11.313  -6.547   0.000  0.00  0.00    +0.000 A 
ATOM     77  C   UNL     1      12.020  -6.972   0.000  0.00  0.00    +0.000 A 
ATOM     78  C   UNL     1      12.006  -7.797   0.000  0.00  0.00    +0.000 A 
ATOM     79  O   UNL     1      12.597  -8.399   0.000  0.00  0.00    +0.000 OA
ATOM     80  C   UNL     1      11.285  -8.197   0.000  0.00  0.00    +0.000 A 
ATOM     81  C   UNL     1      10.577  -7.772   0.000  0.00  0.00    +0.000 A 
ENDBRANCH  51  75
BRANCH  23  82
ATOM     82  C   UNL     1       7.805  -2.774   0.000  0.00  0.00    +0.000 A 
ATOM     83  C   UNL     1       7.083  -3.174   0.000  0.00  0.00    +0.000 A 
ATOM     84  C   UNL     1       6.376  -2.750   0.000  0.00  0.00    +0.000 A 
ATOM     85  C   UNL     1       6.390  -1.925   0.000  0.00  0.00    +0.000 A 
ATOM     86  O   UNL     1       5.768  -1.359   0.000  0.00  0.00    +0.000 OA
ATOM     87  C   UNL     1       7.112  -1.525   0.000  0.00  0.00    +0.000 A 
ATOM     88  C   UNL     1       7.819  -1.949   0.000  0.00  0.00    +0.000 A 
ENDBRANCH  23  82
BRANCH  63  89
ATOM     89  C   UNL     1       6.928 -12.248   0.000  0.00  0.00    +0.000 A 
ATOM     90  C   UNL     1       7.649 -11.848   0.000  0.00  0.00    +0.000 A 
ATOM     91  C   UNL     1       8.357 -12.273   0.000  0.00  0.00    +0.000 A 
ATOM     92  C   UNL     1       8.342 -13.098   0.000  0.00  0.00    +0.000 A 
ATOM     93  O   UNL     1       8.956 -13.673   0.000  0.00  0.00    +0.000 OA
ATOM     94  C   UNL     1       7.621 -13.498   0.000  0.00  0.00    +0.000 A 
ATOM     95  C   UNL     1       6.914 -13.073   0.000  0.00  0.00    +0.000 A 
ENDBRANCH  63  89
BRANCH  47  96
ATOM     96  C   UNL     1      11.341  -4.898   0.000  0.00  0.00    +0.000 A 
ATOM     97  C   UNL     1      12.063  -4.497   0.000  0.00  0.00    +0.000 A 
ATOM     98  C   UNL     1      12.770  -4.922   0.000  0.00  0.00    +0.000 A 
ATOM     99  C   UNL     1      12.756  -5.747   0.000  0.00  0.00    +0.000 A 
ATOM    100  O   UNL     1      13.523  -6.106   0.000  0.00  0.00    +0.000 OA
ATOM    101  C   UNL     1      12.034  -6.147   0.000  0.00  0.00    +0.000 A 
ATOM    102  C   UNL     1      11.327  -5.723   0.000  0.00  0.00    +0.000 A 
ENDBRANCH  47  96
BRANCH  31 103
ATOM    103  C   UNL     1      10.011   0.901   0.000  0.00  0.00    +0.000 A 
ATOM    104  C   UNL     1       9.290   0.501   0.000  0.00  0.00    +0.000 A 
ATOM    105  C   UNL     1       8.583   0.925   0.000  0.00  0.00    +0.000 A 
ATOM    106  C   UNL     1       8.597   1.750   0.000  0.00  0.00    +0.000 A 
ATOM    107  C   UNL     1       9.318   2.151   0.000  0.00  0.00    +0.000 A 
ATOM    108  C   UNL     1      10.025   1.726   0.000  0.00  0.00    +0.000 A 
BRANCH 106 109
ATOM    109  O   UNL     1       7.867   2.160   0.000  0.00  0.00    +0.000 OA
BRANCH 109 110
ATOM    110  C   UNL     1       7.904   3.000   0.000  0.00  0.00    +0.000 C 
ATOM    111  O   UNL     1       8.646   3.360   0.000  0.00  0.00    +0.000 OA
ATOM    112  C   UNL     1       8.706   4.182   0.000  0.00  0.00    +0.000 C 
ATOM    113  C   UNL     1       8.023   4.646   0.000  0.00  0.00    +0.000 C 
ATOM    114  O   UNL     1       8.123   5.487   0.000  0.00  0.00    +0.000 OA
ATOM    115  C   UNL     1       7.281   4.286   0.000  0.00  0.00    +0.000 C 
ATOM    116  O   UNL     1       6.941   5.061   0.000  0.00  0.00    +0.000 OA
ATOM    117  C   UNL     1       7.221   3.463   0.000  0.00  0.00    +0.000 C 
BRANCH 112 118
ATOM    118  C   UNL     1       9.443   4.611   0.000  0.00  0.00    +0.000 C 
ATOM    119  O   UNL     1       9.937   5.284   0.000  0.00  0.00    +0.000 OA
ENDBRANCH 112 118
BRANCH 117 120
ATOM    120  O   UNL     1       6.460   3.112   0.000  0.00  0.00    +0.000 OA
BRANCH 120 121
ATOM    121  C   UNL     1       5.784   3.611   0.000  0.00  0.00    +0.000 C 
ATOM    122  O   UNL     1       5.874   4.431   0.000  0.00  0.00    +0.000 OA
ATOM    123  C   UNL     1       5.209   4.919   0.000  0.00  0.00    +0.000 C 
ATOM    124  C   UNL     1       4.454   4.587   0.000  0.00  0.00    +0.000 C 
ATOM    125  O   UNL     1       3.716   5.000   0.000  0.00  0.00    +0.000 OA
ATOM    126  C   UNL     1       4.364   3.766   0.000  0.00  0.00    +0.000 C 
ATOM    127  O   UNL     1       3.594   3.417   0.000  0.00  0.00    +0.000 OA
ATOM    128  C   UNL     1       5.029   3.279   0.000  0.00  0.00    +0.000 C 
ATOM    129  O   UNL     1       4.937   2.439   0.000  0.00  0.00    +0.000 OA
BRANCH 123 130
ATOM    130  C   UNL     1       5.205   5.770   0.000  0.00  0.00    +0.000 C 
ATOM    131  O   UNL     1       4.756   6.473   0.000  0.00  0.00    +0.000 OA
ENDBRANCH 123 130
ENDBRANCH 120 121
ENDBRANCH 117 120
ENDBRANCH 109 110
ENDBRANCH 106 109
ENDBRANCH  31 103
BRANCH   2 132
ATOM    132  C   UNL     1       3.403 -13.508   0.000  0.00  0.00    +0.000 C 
ATOM    133  N   UNL     1       2.583 -13.687   0.000  0.00  0.00    +0.000 NA
ATOM    134  O   UNL     1       3.555 -14.339   0.000  0.00  0.00    +0.000 OA
ENDBRANCH   2 132
BRANCH  27 135
ATOM    135  C   UNL     1       9.224  -1.065   0.000  0.00  0.00    +0.000 C 
ATOM    136  C   UNL     1       8.395  -0.811   0.000  0.00  0.00    +0.000 C 
ATOM    137  O   UNL     1       8.949  -0.278   0.000  0.00  0.00    +0.000 OA
ENDBRANCH  27 135
BRANCH  55 138
ATOM    138  C   UNL     1       9.168  -8.707   0.000  0.00  0.00    +0.000 C 
ATOM    139  C   UNL     1       9.985  -8.999   0.000  0.00  0.00    +0.000 C 
ATOM    140  O   UNL     1       9.397  -9.526   0.000  0.00  0.00    +0.000 OA
ENDBRANCH  55 138
BRANCH   1 143
ATOM    141  C   UNL     1       5.639 -11.219   0.000  0.00  0.00    +0.000 C 
ATOM    142  O   UNL     1       5.639 -12.075   0.000  0.00  0.00    +0.000 OA
ATOM    143  N   UNL     1       5.080 -11.876   0.000  0.00  0.00    +0.000 NA
BRANCH 141 144
ATOM    144  C   UNL     1       6.109 -10.351   0.000  0.00  0.00    +0.000 C 
BRANCH 144 147
ATOM    145  C   UNL     1       6.240  -8.760   0.000  0.00  0.00    +0.000 C 
ATOM    146  O   UNL     1       6.869  -8.215   0.000  0.00  0.00    +0.000 OA
ATOM    147  N   UNL     1       6.405  -9.518   0.000  0.00  0.00    +0.000 NA
BRANCH 145 149
ATOM    148  C   UNL     1       5.642 -10.508   0.000  0.00  0.00    +0.000 C 
ATOM    149  C   UNL     1       5.809  -9.570   0.000  0.00  0.00    +0.000 C 
BRANCH 148 151
ATOM    150  C   UNL     1       7.329 -10.989   0.000  0.00  0.00    +0.000 C 
ATOM    151  C   UNL     1       6.407 -10.966   0.000  0.00  0.00    +0.000 C 
BRANCH 150 152
ATOM    152  C   UNL     1       8.031 -10.556   0.000  0.00  0.00    +0.000 C 
BRANCH 152 154
ATOM    153  C   UNL     1       6.734  -9.997   0.000  0.00  0.00    +0.000 C 
ATOM    154  C   UNL     1       7.441  -9.803   0.000  0.00  0.00    +0.000 C 
ATOM    155  C   UNL     1       7.101  -9.033   0.000  0.00  0.00    +0.000 C 
ENDBRANCH 152 154
ENDBRANCH 150 152
ENDBRANCH 148 151
ENDBRANCH 145 149
ENDBRANCH 144 147
BRANCH 144 156
ATOM    156  C   UNL     1       5.341  -9.995   0.000  0.00  0.00    +0.000 C 
BRANCH 156 157
ATOM    157  C   UNL     1       4.747 -10.630   0.000  0.00  0.00    +0.000 C 
ATOM    158  N   UNL     1       4.669 -11.389   0.000  0.00  0.00    +0.000 NA
ATOM    159  O   UNL     1       4.212  -9.908   0.000  0.00  0.00    +0.000 OA
ENDBRANCH 156 157
ENDBRANCH 144 156
ENDBRANCH 141 144
ENDBRANCH   1 143
BRANCH  43 160
ATOM    160  C   UNL     1      12.860  -3.152   0.000  0.00  0.00    +0.000 C 
ATOM    161  C   UNL     1      13.033  -4.128   0.000  0.00  0.00    +0.000 C 
ATOM    162  O   UNL     1      13.614  -2.865   0.000  0.00  0.00    +0.000 OA
ENDBRANCH  43 160
BRANCH  15 163
ATOM    163  C   UNL     1       5.511  -6.507   0.000  0.00  0.00    +0.000 C 
BRANCH 163 164
ATOM    164  C   UNL     1       4.673  -6.293   0.000  0.00  0.00    +0.000 C 
ATOM    165  C   UNL     1       3.969  -6.751   0.000  0.00  0.00    +0.000 C 
ATOM    166  C   UNL     1       4.136  -5.640   0.000  0.00  0.00    +0.000 C 
ENDBRANCH 163 164
ENDBRANCH  15 163
BRANCH  59 167
ATOM    167  C   UNL     1       8.634 -10.317   0.000  0.00  0.00    +0.000 C 
BRANCH 167 168
ATOM    168  C   UNL     1       9.372 -10.774   0.000  0.00  0.00    +0.000 C 
BRANCH 168 169
ATOM    169  C   UNL     1      10.090 -11.212   0.000  0.00  0.00    +0.000 C 
ATOM    170  N   UNL     1      10.687 -11.792   0.000  0.00  0.00    +0.000 NA
ENDBRANCH 168 169
ENDBRANCH 167 168
ENDBRANCH  59 167
BRANCH  39 171
ATOM    171  C   UNL     1      13.593  -1.218   0.000  0.00  0.00    +0.000 C 
BRANCH 171 172
ATOM    172  C   UNL     1      13.534  -2.047   0.000  0.00  0.00    +0.000 A 
ATOM    173  C   UNL     1      14.241  -2.472   0.000  0.00  0.00    +0.000 A 
ATOM    174  C   UNL     1      14.227  -3.297   0.000  0.00  0.00    +0.000 A 
ATOM    175  C   UNL     1      13.505  -3.697   0.000  0.00  0.00    +0.000 A 
ATOM    176  C   UNL     1      12.883  -3.612   0.000  0.00  0.00    +0.000 A 
ATOM    177  C   UNL     1      12.812  -2.447   0.000  0.00  0.00    +0.000 A 
ENDBRANCH 171 172
ENDBRANCH  39 171
BRANCH  35 178
ATOM    178  C   UNL     1      13.053   1.684   0.000  0.00  0.00    +0.000 C 
BRANCH 178 179
ATOM    179  C   UNL     1      13.401   2.445   0.000  0.00  0.00    +0.000 C 
BRANCH 179 180
ATOM    180  C   UNL     1      13.880   3.126   0.000  0.00  0.00    +0.000 C 
ATOM    181  N   UNL     1      14.533   3.643   0.000  0.00  0.00    +0.000 NA
ENDBRANCH 179 180
ENDBRANCH 178 179
ENDBRANCH  35 178
TORSDOF 35
