REMARK  Name = 
REMARK  13 active torsions:
REMARK  status: ('A' for Active; 'I' for Inactive)
REMARK    1  A    between atoms: C_2  and  O_3
REMARK    2  A    between atoms: O_3  and  P_4
REMARK    3  A    between atoms: P_4  and  O_6
REMARK    4  A    between atoms: P_4  and  C_9
REMARK    5  A    between atoms: O_6  and  C_7
REMARK    6  A    between atoms: C_9  and  P_26
REMARK    7  A    between atoms: C_10  and  C_11
REMARK    8  A    between atoms: C_13  and  C_22
REMARK    9  A    between atoms: C_16  and  C_18
REMARK   10  A    between atoms: P_26  and  O_28
REMARK   11  A    between atoms: P_26  and  O_31
REMARK   12  A    between atoms: O_28  and  C_29
REMARK   13  A    between atoms: O_31  and  C_32
REMARK                            x       y       z     vdW  Elec       q    Type
REMARK                         _______ _______ _______ _____ _____    ______ ____
ROOT
ATOM      1  C   UNL     1      -1.870   0.872   0.000  0.00  0.00    +0.000 C 
ATOM      2  C   UNL     1      -2.666   1.085   0.000  0.00  0.00    +0.000 C 
ENDROOT
BRANCH   2   3
ATOM      3  C   UNL     1      -2.880   1.882   0.000  0.00  0.00    +0.000 A 
ATOM      4  C   UNL     1      -3.677   2.096   0.000  0.00  0.00    +0.000 A 
ATOM      5  C   UNL     1      -3.890   2.893   0.000  0.00  0.00    +0.000 A 
ATOM      6  C   UNL     1      -3.307   3.476   0.000  0.00  0.00    +0.000 A 
ATOM      7  O   UNL     1      -3.521   4.273   0.000  0.00  0.00    +0.000 OA
ATOM      8  C   UNL     1      -2.510   3.262   0.000  0.00  0.00    +0.000 A 
ATOM      9  C   UNL     1      -2.297   2.466   0.000  0.00  0.00    +0.000 A 
BRANCH   8  10
ATOM     10  C   UNL     1      -1.927   3.846   0.000  0.00  0.00    +0.000 C 
ATOM     11  C   UNL     1      -1.343   4.429   0.000  0.00  0.00    +0.000 C 
ATOM     12  C   UNL     1      -1.343   3.262   0.000  0.00  0.00    +0.000 C 
ATOM     13  C   UNL     1      -2.510   4.429   0.000  0.00  0.00    +0.000 C 
ENDBRANCH   8  10
BRANCH   5  14
ATOM     14  C   UNL     1      -4.687   3.106   0.000  0.00  0.00    +0.000 C 
ATOM     15  C   UNL     1      -5.484   3.320   0.000  0.00  0.00    +0.000 C 
ATOM     16  C   UNL     1      -4.474   3.903   0.000  0.00  0.00    +0.000 C 
ATOM     17  C   UNL     1      -4.901   2.309   0.000  0.00  0.00    +0.000 C 
ENDBRANCH   5  14
ENDBRANCH   2   3
BRANCH   1  18
ATOM     18  P   UNL     1      -1.286   1.455   0.000  0.00  0.00    +0.000 P 
ATOM     19  O   UNL     1      -1.870   2.038   0.000  0.00  0.00    +0.000 OA
BRANCH  18  20
ATOM     20  O   UNL     1      -0.703   2.038   0.000  0.00  0.00    +0.000 OA
BRANCH  20  22
ATOM     21  C   UNL     1       0.677   2.408   0.000  0.00  0.00    +0.000 C 
ATOM     22  C   UNL     1       0.094   1.825   0.000  0.00  0.00    +0.000 C 
ENDBRANCH  20  22
ENDBRANCH  18  20
BRANCH  18  23
ATOM     23  O   UNL     1      -0.703   0.872   0.000  0.00  0.00    +0.000 OA
BRANCH  23  24
ATOM     24  C   UNL     1       0.094   1.085   0.000  0.00  0.00    +0.000 C 
ATOM     25  C   UNL     1       0.677   0.502   0.000  0.00  0.00    +0.000 C 
ENDBRANCH  23  24
ENDBRANCH  18  23
ENDBRANCH   1  18
BRANCH   1  26
ATOM     26  P   UNL     1      -1.656   0.075   0.000  0.00  0.00    +0.000 P 
ATOM     27  O   UNL     1      -0.859   0.288   0.000  0.00  0.00    +0.000 OA
BRANCH  26  28
ATOM     28  O   UNL     1      -2.453  -0.139   0.000  0.00  0.00    +0.000 OA
BRANCH  28  29
ATOM     29  C   UNL     1      -2.666  -0.935   0.000  0.00  0.00    +0.000 C 
ATOM     30  C   UNL     1      -3.463  -1.149   0.000  0.00  0.00    +0.000 C 
ENDBRANCH  28  29
ENDBRANCH  26  28
BRANCH  26  31
ATOM     31  O   UNL     1      -1.442  -0.722   0.000  0.00  0.00    +0.000 OA
BRANCH  31  32
ATOM     32  C   UNL     1      -0.646  -0.935   0.000  0.00  0.00    +0.000 C 
ATOM     33  C   UNL     1      -0.062  -0.352   0.000  0.00  0.00    +0.000 C 
ENDBRANCH  31  32
ENDBRANCH  26  31
ENDBRANCH   1  26
TORSDOF 13
