REMARK  Name = 
REMARK  18 active torsions:
REMARK  status: ('A' for Active; 'I' for Inactive)
REMARK    1  A    between atoms: C_2  and  O_3
REMARK    2  A    between atoms: O_3  and  C_4
REMARK    3  A    between atoms: C_4  and  C_6
REMARK    4  A    between atoms: C_7  and  C_8
REMARK    5  A    between atoms: C_8  and  C_9
REMARK    6  A    between atoms: C_8  and  N_16
REMARK    7  A    between atoms: C_9  and  C_10
REMARK    8  A    between atoms: C_17  and  C_19
REMARK    9  A    between atoms: C_19  and  C_20
REMARK   10  A    between atoms: C_19  and  N_24
REMARK   11  A    between atoms: C_20  and  C_21
REMARK   12  A    between atoms: C_25  and  C_27
REMARK   13  A    between atoms: C_27  and  N_28
REMARK   14  A    between atoms: C_27  and  C_43
REMARK   15  A    between atoms: C_29  and  C_31
REMARK   16  A    between atoms: C_31  and  N_32
REMARK   17  A    between atoms: C_31  and  C_40
REMARK   18  A    between atoms: C_33  and  C_35
REMARK                            x       y       z     vdW  Elec       q    Type
REMARK                         _______ _______ _______ _____ _____    ______ ____
ROOT
ATOM      1  C   UNL     1      10.018  -4.490   0.000  0.00  0.00    +0.000 C 
ENDROOT
BRANCH   1   2
ATOM      2  N   UNL     1      10.659  -5.008   0.000  0.00  0.00    +0.000 NA
ATOM      3  C   UNL     1      11.430  -4.712   0.000  0.00  0.00    +0.000 C 
ATOM      4  O   UNL     1      11.558  -3.897   0.000  0.00  0.00    +0.000 OA
BRANCH   3   5
ATOM      5  C   UNL     1      12.071  -5.231   0.000  0.00  0.00    +0.000 C 
BRANCH   5   6
ATOM      6  N   UNL     1      12.841  -4.934   0.000  0.00  0.00    +0.000 NA
ATOM      7  C   UNL     1      13.483  -5.453   0.000  0.00  0.00    +0.000 C 
ATOM      8  O   UNL     1      13.354  -6.268   0.000  0.00  0.00    +0.000 OA
BRANCH   7   9
ATOM      9  C   UNL     1      14.253  -5.157   0.000  0.00  0.00    +0.000 C 
BRANCH   9  10
ATOM     10  C   UNL     1      14.381  -4.341   0.000  0.00  0.00    +0.000 C 
ATOM     11  C   UNL     1      15.151  -4.045   0.000  0.00  0.00    +0.000 C 
ATOM     12  C   UNL     1      13.739  -3.823   0.000  0.00  0.00    +0.000 C 
ENDBRANCH   9  10
BRANCH   9  13
ATOM     13  N   UNL     1      14.894  -5.675   0.000  0.00  0.00    +0.000 NA
ATOM     14  C   UNL     1      15.664  -5.379   0.000  0.00  0.00    +0.000 C 
ATOM     15  O   UNL     1      15.793  -4.564   0.000  0.00  0.00    +0.000 OA
BRANCH  14  16
ATOM     16  C   UNL     1      16.306  -5.897   0.000  0.00  0.00    +0.000 A 
ATOM     17  C   UNL     1      17.102  -5.683   0.000  0.00  0.00    +0.000 A 
ATOM     18  O   UNL     1      17.552  -6.375   0.000  0.00  0.00    +0.000 OA
ATOM     19  C   UNL     1      17.034  -7.016   0.000  0.00  0.00    +0.000 A 
ATOM     20  C   UNL     1      16.263  -6.721   0.000  0.00  0.00    +0.000 A 
ENDBRANCH  14  16
ENDBRANCH   9  13
ENDBRANCH   7   9
ENDBRANCH   5   6
BRANCH   5  21
ATOM     21  C   UNL     1      11.943  -6.045   0.000  0.00  0.00    +0.000 C 
ATOM     22  C   UNL     1      12.584  -6.564   0.000  0.00  0.00    +0.000 C 
ATOM     23  C   UNL     1      11.173  -6.342   0.000  0.00  0.00    +0.000 C 
ENDBRANCH   5  21
ENDBRANCH   3   5
ENDBRANCH   1   2
BRANCH   1  25
ATOM     24  N   UNL     1       8.606  -4.267   0.000  0.00  0.00    +0.000 NA
ATOM     25  C   UNL     1       9.248  -4.786   0.000  0.00  0.00    +0.000 C 
ATOM     26  O   UNL     1       9.120  -5.601   0.000  0.00  0.00    +0.000 OA
BRANCH  24  27
ATOM     27  C   UNL     1       7.836  -4.564   0.000  0.00  0.00    +0.000 C 
BRANCH  27  29
ATOM     28  C   UNL     1       7.323  -3.230   0.000  0.00  0.00    +0.000 C 
ATOM     29  C   UNL     1       7.195  -4.045   0.000  0.00  0.00    +0.000 C 
BRANCH  28  30
ATOM     30  C   UNL     1       6.681  -2.712   0.000  0.00  0.00    +0.000 C 
ATOM     31  O   UNL     1       5.912  -3.008   0.000  0.00  0.00    +0.000 OA
BRANCH  30  32
ATOM     32  O   UNL     1       6.810  -1.897   0.000  0.00  0.00    +0.000 OA
BRANCH  32  34
ATOM     33  C   UNL     1       6.297  -0.563   0.000  0.00  0.00    +0.000 C 
ATOM     34  C   UNL     1       6.168  -1.378   0.000  0.00  0.00    +0.000 C 
ENDBRANCH  32  34
ENDBRANCH  30  32
ENDBRANCH  28  30
ENDBRANCH  27  29
BRANCH  27  35
ATOM     35  C   UNL     1       7.708  -5.379   0.000  0.00  0.00    +0.000 C 
BRANCH  35  36
ATOM     36  C   UNL     1       6.938  -5.675   0.000  0.00  0.00    +0.000 C 
ATOM     37  C   UNL     1       6.725  -6.472   0.000  0.00  0.00    +0.000 C 
ATOM     38  C   UNL     1       5.902  -6.516   0.000  0.00  0.00    +0.000 C 
ATOM     39  N   UNL     1       5.605  -5.746   0.000  0.00  0.00    +0.000 NA
ATOM     40  C   UNL     1       6.246  -5.226   0.000  0.00  0.00    +0.000 C 
ATOM     41  O   UNL     1       6.202  -4.403   0.000  0.00  0.00    +0.000 OA
ENDBRANCH  35  36
ENDBRANCH  27  35
ENDBRANCH  24  27
ENDBRANCH   1  25
BRANCH   1  42
ATOM     42  C   UNL     1      10.146  -3.675   0.000  0.00  0.00    +0.000 C 
BRANCH  42  43
ATOM     43  C   UNL     1       9.505  -3.156   0.000  0.00  0.00    +0.000 C 
ATOM     44  C   UNL     1       8.735  -3.453   0.000  0.00  0.00    +0.000 C 
ATOM     45  C   UNL     1       9.633  -2.341   0.000  0.00  0.00    +0.000 C 
ENDBRANCH  42  43
ENDBRANCH   1  42
TORSDOF 18
