REMARK  Name = 
REMARK  3 active torsions:
REMARK  status: ('A' for Active; 'I' for Inactive)
REMARK    1  A    between atoms: S_3  and  O_4
REMARK    2  A    between atoms: S_3  and  C_7
REMARK    3  A    between atoms: O_4  and  C_10
REMARK                            x       y       z     vdW  Elec       q    Type
REMARK                         _______ _______ _______ _____ _____    ______ ____
ROOT
ATOM      1  S   UNL     1       2.475   0.412   0.000  0.00  0.00    +0.000 S 
ATOM      2  O   UNL     1       3.300   0.412   0.000  0.00  0.00    +0.000 OA
ATOM      3  O   UNL     1       1.650   0.412   0.000  0.00  0.00    +0.000 OA
ENDROOT
BRANCH   1   5
ATOM      4 CL   UNL     1       2.475  -2.888   0.000  0.00  0.00    +0.000 Cl
ATOM      5  C   UNL     1       2.475  -0.412   0.000  0.00  0.00    +0.000 A 
ATOM      6  C   UNL     1       3.189  -0.825   0.000  0.00  0.00    +0.000 A 
ATOM      7  C   UNL     1       1.761  -0.825   0.000  0.00  0.00    +0.000 A 
ATOM      8  C   UNL     1       3.189  -1.650   0.000  0.00  0.00    +0.000 A 
ATOM      9  C   UNL     1       1.761  -1.650   0.000  0.00  0.00    +0.000 A 
ATOM     10  C   UNL     1       2.475  -2.062   0.000  0.00  0.00    +0.000 A 
ENDBRANCH   1   5
BRANCH   1  11
ATOM     11  O   UNL     1       2.475   1.238   0.000  0.00  0.00    +0.000 OA
BRANCH  11  13
ATOM     12 CL   UNL     1       5.333   2.888   0.000  0.00  0.00    +0.000 Cl
ATOM     13  C   UNL     1       3.189   1.650   0.000  0.00  0.00    +0.000 A 
ATOM     14  C   UNL     1       3.904   1.238   0.000  0.00  0.00    +0.000 A 
ATOM     15  C   UNL     1       3.189   2.475   0.000  0.00  0.00    +0.000 A 
ATOM     16  C   UNL     1       4.619   1.650   0.000  0.00  0.00    +0.000 A 
ATOM     17  C   UNL     1       3.904   2.888   0.000  0.00  0.00    +0.000 A 
ATOM     18  C   UNL     1       4.619   2.475   0.000  0.00  0.00    +0.000 A 
ENDBRANCH  11  13
ENDBRANCH   1  11
TORSDOF 3
