REMARK  Name = 
REMARK  4 active torsions:
REMARK  status: ('A' for Active; 'I' for Inactive)
REMARK    1  A    between atoms: N_2  and  C_5
REMARK    2  A    between atoms: C_5  and  C_6
REMARK    3  A    between atoms: C_6  and  O_7
REMARK    4  A    between atoms: O_7  and  P_8
REMARK                            x       y       z     vdW  Elec       q    Type
REMARK                         _______ _______ _______ _____ _____    ______ ____
ROOT
ATOM      1  C   UNL     1       3.904  -1.429   0.000  0.00  0.00    +0.000 C 
ENDROOT
BRANCH   1   2
ATOM      2  C   UNL     1       3.189  -1.841   0.000  0.00  0.00    +0.000 C 
BRANCH   2   4
ATOM      3  C   UNL     1       1.760  -1.016   0.000  0.00  0.00    +0.000 C 
ATOM      4  N   UNL     1       2.475  -1.429   0.000  0.00  0.00    +0.000 N 
ATOM      5  C   UNL     1       2.062  -2.143   0.000  0.00  0.00    +0.000 C 
ATOM      6  C   UNL     1       2.888  -0.715   0.000  0.00  0.00    +0.000 C 
ENDBRANCH   2   4
ENDBRANCH   1   2
BRANCH   1   7
ATOM      7  O   UNL     1       4.618  -1.841   0.000  0.00  0.00    +0.000 OA
BRANCH   7   8
ATOM      8  P   UNL     1       5.333  -1.429   0.000  0.00  0.00    +0.000 P 
ATOM      9  O   UNL     1       6.047  -1.016   0.000  0.00  0.00    +0.000 OA
ATOM     10  O   UNL     1       5.745  -2.143   0.000  0.00  0.00    +0.000 OA
ATOM     11  O   UNL     1       4.920  -0.715   0.000  0.00  0.00    +0.000 OA
ENDBRANCH   7   8
ENDBRANCH   1   7
TORSDOF 4
