REMARK  Name = 
REMARK  6 active torsions:
REMARK  status: ('A' for Active; 'I' for Inactive)
REMARK    1  A    between atoms: CB_2  and  CA_3
REMARK    2  A    between atoms: CB_2  and  SG_17
REMARK    3  A    between atoms: CA_3  and  C_7
REMARK    4  A    between atoms: C_4  and  CA_6
REMARK    5  A    between atoms: C_5  and  SG_17
REMARK    6  A    between atoms: CA_6  and  C_8
REMARK                            x       y       z     vdW  Elec       q    Type
REMARK                         _______ _______ _______ _____ _____    ______ ____
ROOT
ATOM      1  C   UNL     1       1.648   2.692   0.000  0.00  0.00    +0.000 C 
ATOM      2  C   UNL     1       2.200   3.305   0.000  0.00  0.00    +0.000 C 
ATOM      3  C   UNL     1       0.895   3.028   0.000  0.00  0.00    +0.000 C 
ATOM      4  N   UNL     1       0.981   3.848   0.000  0.00  0.00    +0.000 NA
ATOM      5  O   UNL     1       1.788   4.020   0.000  0.00  0.00    +0.000 OA
ENDROOT
BRANCH   2   6
ATOM      6  CA  UNL     1       3.021   3.219   0.000  0.00  0.00    +0.000 C 
ATOM      7  N   UNL     1       3.506   3.887   0.000  0.00  0.00    +0.000 NA
BRANCH   6   8
ATOM      8  C   UNL     1       3.357   2.466   0.000  0.00  0.00    +0.000 C 
ATOM      9  O   UNL     1       4.177   2.379   0.000  0.00  0.00    +0.000 OA
ATOM     10  OXT UNL     1       2.872   1.798   0.000  0.00  0.00    +0.000 OA
ENDBRANCH   6   8
ENDBRANCH   2   6
BRANCH   3  11
ATOM     11  SG  UNL     1       0.180   2.615   0.000  0.00  0.00    +0.000 S 
BRANCH  11  12
ATOM     12  CB  UNL     1      -0.534   3.028   0.000  0.00  0.00    +0.000 C 
BRANCH  12  13
ATOM     13  CA  UNL     1      -1.249   2.615   0.000  0.00  0.00    +0.000 C 
ATOM     14  N   UNL     1      -1.249   1.790   0.000  0.00  0.00    +0.000 NA
BRANCH  13  15
ATOM     15  C   UNL     1      -1.963   3.028   0.000  0.00  0.00    +0.000 C 
ATOM     16  O   UNL     1      -2.678   2.615   0.000  0.00  0.00    +0.000 OA
ATOM     17  OXT UNL     1      -1.963   3.853   0.000  0.00  0.00    +0.000 OA
ENDBRANCH  13  15
ENDBRANCH  12  13
ENDBRANCH  11  12
ENDBRANCH   3  11
TORSDOF 6
