REMARK  Name = 
REMARK  4 active torsions:
REMARK  status: ('A' for Active; 'I' for Inactive)
REMARK    1  A    between atoms: C_3  and  C_7
REMARK    2  A    between atoms: C_7  and  N_8
REMARK    3  A    between atoms: C_9  and  C_10
REMARK    4  A    between atoms: C_10  and  C_11
REMARK                            x       y       z     vdW  Elec       q    Type
REMARK                         _______ _______ _______ _____ _____    ______ ____
ROOT
ATOM      1  C   UNL     1       0.621   0.566   0.000  0.00  0.00    +0.000 C 
ENDROOT
BRANCH   1   4
ATOM      2  C   UNL     1      -0.808   2.216   0.000  0.00  0.00    +0.000 A 
ATOM      3  C   UNL     1      -0.093   1.803   0.000  0.00  0.00    +0.000 A 
ATOM      4  C   UNL     1      -0.093   0.978   0.000  0.00  0.00    +0.000 A 
ATOM      5  C   UNL     1      -0.808   0.566   0.000  0.00  0.00    +0.000 A 
ATOM      6  C   UNL     1      -1.522   0.978   0.000  0.00  0.00    +0.000 A 
ATOM      7  C   UNL     1      -1.522   1.803   0.000  0.00  0.00    +0.000 A 
ENDBRANCH   1   4
BRANCH   1   8
ATOM      8  N   UNL     1       1.335   0.978   0.000  0.00  0.00    +0.000 NA
ATOM      9  C   UNL     1       2.050   0.566   0.000  0.00  0.00    +0.000 C 
ATOM     10  O   UNL     1       2.050  -0.259   0.000  0.00  0.00    +0.000 OA
BRANCH   9  11
ATOM     11  C   UNL     1       2.764   0.978   0.000  0.00  0.00    +0.000 C 
BRANCH  11  12
ATOM     12  C   UNL     1       3.479   0.566   0.000  0.00  0.00    +0.000 C 
ATOM     13 CL   UNL     1       4.193   0.978   0.000  0.00  0.00    +0.000 Cl
ENDBRANCH  11  12
ENDBRANCH   9  11
ENDBRANCH   1   8
TORSDOF 4
