REMARK  Name = 
REMARK  9 active torsions:
REMARK  status: ('A' for Active; 'I' for Inactive)
REMARK    1  A    between atoms: P_1  and  O_7
REMARK    2  A    between atoms: P_1  and  O_12
REMARK    3  A    between atoms: P_2  and  O_10
REMARK    4  A    between atoms: P_2  and  O_12
REMARK    5  A    between atoms: O_7  and  C_30
REMARK    6  A    between atoms: O_10  and  C_31
REMARK    7  A    between atoms: N_20  and  C_25
REMARK    8  A    between atoms: C_24  and  C_31
REMARK    9  A    between atoms: C_29  and  C_32
REMARK                            x       y       z     vdW  Elec       q    Type
REMARK                         _______ _______ _______ _____ _____    ______ ____
ROOT
ATOM      1  P   UNL     1      15.392 -12.995   0.000  0.00  0.00    +0.000 P 
ATOM      2  O   UNL     1      14.980 -12.280   0.000  0.00  0.00    +0.000 OA
ATOM      3  O   UNL     1      15.805 -13.709   0.000  0.00  0.00    +0.000 OA
ENDROOT
BRANCH   1   4
ATOM      4  O   UNL     1      14.678 -13.407   0.000  0.00  0.00    +0.000 OA
BRANCH   4   5
ATOM      5  P   UNL     1      14.678 -14.232   0.000  0.00  0.00    +0.000 P 
ATOM      6  O   UNL     1      15.503 -14.232   0.000  0.00  0.00    +0.000 OA
ATOM      7  O   UNL     1      13.852 -14.232   0.000  0.00  0.00    +0.000 OA
BRANCH   5   8
ATOM      8  O   UNL     1      14.678 -15.057   0.000  0.00  0.00    +0.000 OA
BRANCH   8  17
ATOM      9  O   UNL     1      13.249 -15.057   0.000  0.00  0.00    +0.000 OA
ATOM     10  O   UNL     1      13.249 -17.532   0.000  0.00  0.00    +0.000 OA
ATOM     11  O   UNL     1      11.820 -16.707   0.000  0.00  0.00    +0.000 OA
ATOM     12  O   UNL     1      14.678 -16.707   0.000  0.00  0.00    +0.000 OA
ATOM     13  C   UNL     1      13.249 -16.707   0.000  0.00  0.00    +0.000 C 
ATOM     14  C   UNL     1      12.534 -16.295   0.000  0.00  0.00    +0.000 C 
ATOM     15  C   UNL     1      13.963 -16.295   0.000  0.00  0.00    +0.000 C 
ATOM     16  C   UNL     1      12.534 -15.470   0.000  0.00  0.00    +0.000 C 
ATOM     17  C   UNL     1      13.963 -15.470   0.000  0.00  0.00    +0.000 C 
BRANCH  16  19
ATOM     18  O   UNL     1      11.820 -14.232   0.000  0.00  0.00    +0.000 OA
ATOM     19  C   UNL     1      11.820 -15.057   0.000  0.00  0.00    +0.000 C 
ENDBRANCH  16  19
ENDBRANCH   8  17
ENDBRANCH   5   8
ENDBRANCH   4   5
ENDBRANCH   1   4
BRANCH   1  20
ATOM     20  O   UNL     1      16.107 -12.582   0.000  0.00  0.00    +0.000 OA
BRANCH  20  21
ATOM     21  C   UNL     1      16.107 -11.757   0.000  0.00  0.00    +0.000 C 
BRANCH  21  27
ATOM     22  O   UNL     1      16.907 -10.524   0.000  0.00  0.00    +0.000 OA
ATOM     23  O   UNL     1      17.746 -12.487   0.000  0.00  0.00    +0.000 OA
ATOM     24  O   UNL     1      18.947 -11.153   0.000  0.00  0.00    +0.000 OA
ATOM     25  C   UNL     1      17.575 -11.680   0.000  0.00  0.00    +0.000 C 
ATOM     26  C   UNL     1      18.127 -11.067   0.000  0.00  0.00    +0.000 C 
ATOM     27  C   UNL     1      16.821 -11.345   0.000  0.00  0.00    +0.000 C 
ATOM     28  C   UNL     1      17.714 -10.353   0.000  0.00  0.00    +0.000 C 
BRANCH  28  31
ATOM     29  O   UNL     1      19.355 -10.180   0.000  0.00  0.00    +0.000 OA
ATOM     30  O   UNL     1      19.056  -7.338   0.000  0.00  0.00    +0.000 OA
ATOM     31  N   UNL     1      18.050  -9.599   0.000  0.00  0.00    +0.000 N 
ATOM     32  N   UNL     1      19.206  -8.759   0.000  0.00  0.00    +0.000 NA
ATOM     33  C   UNL     1      18.870  -9.513   0.000  0.00  0.00    +0.000 A 
ATOM     34  C   UNL     1      17.565  -8.931   0.000  0.00  0.00    +0.000 A 
ATOM     35  C   UNL     1      17.901  -8.178   0.000  0.00  0.00    +0.000 A 
ATOM     36  C   UNL     1      18.721  -8.091   0.000  0.00  0.00    +0.000 A 
ENDBRANCH  28  31
ENDBRANCH  21  27
ENDBRANCH  20  21
ENDBRANCH   1  20
TORSDOF 9
