REMARK  Name = 
REMARK  4 active torsions:
REMARK  status: ('A' for Active; 'I' for Inactive)
REMARK    1  A    between atoms: C_3  and  C_4
REMARK    2  A    between atoms: C_4  and  C_5
REMARK    3  A    between atoms: C_5  and  O_6
REMARK    4  A    between atoms: O_6  and  P_7
REMARK                            x       y       z     vdW  Elec       q    Type
REMARK                         _______ _______ _______ _____ _____    ______ ____
ROOT
ATOM      1  C   UNL     1      -2.136   0.562   0.000  0.00  0.00    +0.000 C 
ENDROOT
BRANCH   1   4
ATOM      2  C   UNL     1      -2.323   2.347   0.000  0.00  0.00    +0.000 C 
ATOM      3  C   UNL     1      -2.936   1.795   0.000  0.00  0.00    +0.000 A 
ATOM      4  C   UNL     1      -2.850   0.974   0.000  0.00  0.00    +0.000 A 
ATOM      5  S   UNL     1      -3.604   0.639   0.000  0.00  0.00    +0.000 S 
ATOM      6  C   UNL     1      -4.156   1.252   0.000  0.00  0.00    +0.000 A 
ATOM      7  N   UNL     1      -3.743   1.966   0.000  0.00  0.00    +0.000 NA
ENDBRANCH   1   4
BRANCH   1   8
ATOM      8  C   UNL     1      -1.421   0.974   0.000  0.00  0.00    +0.000 C 
BRANCH   8   9
ATOM      9  O   UNL     1      -0.707   0.562   0.000  0.00  0.00    +0.000 OA
BRANCH   9  10
ATOM     10  P   UNL     1       0.008   0.974   0.000  0.00  0.00    +0.000 P 
ATOM     11  O   UNL     1       0.722   1.387   0.000  0.00  0.00    +0.000 OA
ATOM     12  O   UNL     1       0.420   0.260   0.000  0.00  0.00    +0.000 OA
ATOM     13  O   UNL     1      -0.405   1.689   0.000  0.00  0.00    +0.000 OA
ENDBRANCH   9  10
ENDBRANCH   8   9
ENDBRANCH   1   8
TORSDOF 4
