REMARK  Name = 
REMARK  10 active torsions:
REMARK  status: ('A' for Active; 'I' for Inactive)
REMARK    1  A    between atoms: C_2  and  C_3
REMARK    2  A    between atoms: C_3  and  C_5
REMARK    3  A    between atoms: C_5  and  C_7
REMARK    4  A    between atoms: C_7  and  C_9
REMARK    5  A    between atoms: C_9  and  N_10
REMARK    6  A    between atoms: N_13  and  C_14
REMARK    7  A    between atoms: C_14  and  C_15
REMARK    8  A    between atoms: C_15  and  C_16
REMARK    9  A    between atoms: C_16  and  O_17
REMARK   10  A    between atoms: O_17  and  P_18
REMARK                            x       y       z     vdW  Elec       q    Type
REMARK                         _______ _______ _______ _____ _____    ______ ____
ROOT
ATOM      1  N   UNL     1      -0.513  -3.237   0.000  0.00  0.00    +0.000 N 
ATOM      2  C   UNL     1       0.294  -3.066   0.000  0.00  0.00    +0.000 A 
ATOM      3  O   UNL     1       0.907  -3.618   0.000  0.00  0.00    +0.000 OA
ATOM      4  N   UNL     1       0.381  -2.245   0.000  0.00  0.00    +0.000 N 
ATOM      5  C   UNL     1      -0.373  -1.909   0.000  0.00  0.00    +0.000 A 
ATOM      6  C   UNL     1      -0.925  -2.523   0.000  0.00  0.00    +0.000 A 
ATOM      7  N   UNL     1      -1.732  -2.351   0.000  0.00  0.00    +0.000 NA
ATOM      8  C   UNL     1      -1.987  -1.567   0.000  0.00  0.00    +0.000 A 
ATOM      9  O   UNL     1      -2.794  -1.395   0.000  0.00  0.00    +0.000 OA
ATOM     10  N   UNL     1      -1.435  -0.953   0.000  0.00  0.00    +0.000 NA
ATOM     11  C   UNL     1      -0.628  -1.125   0.000  0.00  0.00    +0.000 A 
ATOM     12  O   UNL     1      -0.076  -0.512   0.000  0.00  0.00    +0.000 OA
ENDROOT
BRANCH   1  13
ATOM     13  C   UNL     1      -0.848  -3.991   0.000  0.00  0.00    +0.000 C 
BRANCH  13  14
ATOM     14  C   UNL     1      -1.669  -4.077   0.000  0.00  0.00    +0.000 C 
ATOM     15  O   UNL     1      -2.154  -3.409   0.000  0.00  0.00    +0.000 OA
BRANCH  14  16
ATOM     16  C   UNL     1      -2.004  -4.831   0.000  0.00  0.00    +0.000 C 
ATOM     17  O   UNL     1      -1.519  -5.498   0.000  0.00  0.00    +0.000 OA
BRANCH  16  18
ATOM     18  C   UNL     1      -2.825  -4.917   0.000  0.00  0.00    +0.000 C 
ATOM     19  O   UNL     1      -3.310  -4.250   0.000  0.00  0.00    +0.000 OA
BRANCH  18  21
ATOM     20  O   UNL     1      -3.981  -5.757   0.000  0.00  0.00    +0.000 OA
ATOM     21  C   UNL     1      -3.160  -5.671   0.000  0.00  0.00    +0.000 C 
ENDBRANCH  18  21
ENDBRANCH  16  18
ENDBRANCH  14  16
ENDBRANCH  13  14
ENDBRANCH   1  13
BRANCH   4  22
ATOM     22  C   UNL     1       1.095  -1.833   0.000  0.00  0.00    +0.000 C 
BRANCH  22  23
ATOM     23  C   UNL     1       1.809  -2.245   0.000  0.00  0.00    +0.000 C 
BRANCH  23  24
ATOM     24  C   UNL     1       2.524  -1.833   0.000  0.00  0.00    +0.000 C 
BRANCH  24  25
ATOM     25  O   UNL     1       3.238  -2.245   0.000  0.00  0.00    +0.000 OA
BRANCH  25  26
ATOM     26  P   UNL     1       3.953  -1.833   0.000  0.00  0.00    +0.000 P 
ATOM     27  O   UNL     1       4.667  -1.420   0.000  0.00  0.00    +0.000 OA
ATOM     28  O   UNL     1       4.365  -2.547   0.000  0.00  0.00    +0.000 OA
ATOM     29  O   UNL     1       3.540  -1.118   0.000  0.00  0.00    +0.000 OA
ENDBRANCH  25  26
ENDBRANCH  24  25
ENDBRANCH  23  24
ENDBRANCH  22  23
ENDBRANCH   4  22
TORSDOF 10
