REMARK  Name = 
REMARK  8 active torsions:
REMARK  status: ('A' for Active; 'I' for Inactive)
REMARK    1  A    between atoms: C_8  and  C_11
REMARK    2  A    between atoms: C_9  and  O_14
REMARK    3  A    between atoms: C_11  and  C_12
REMARK    4  A    between atoms: C_11  and  C_13
REMARK    5  A    between atoms: C_12  and  C_16
REMARK    6  A    between atoms: C_12  and  C_17
REMARK    7  A    between atoms: C_16  and  C_18
REMARK    8  A    between atoms: C_18  and  N_19
REMARK                            x       y       z     vdW  Elec       q    Type
REMARK                         _______ _______ _______ _____ _____    ______ ____
ROOT
ATOM      1  C   UNL     1      11.810 -12.663   0.000  0.00  0.00    +0.000 C 
ENDROOT
BRANCH   1   9
ATOM      2  C   UNL     1       8.951 -14.314   0.000  0.00  0.00    +0.000 A 
ATOM      3  C   UNL     1       8.951 -15.139   0.000  0.00  0.00    +0.000 A 
ATOM      4  C   UNL     1       9.666 -15.551   0.000  0.00  0.00    +0.000 A 
ATOM      5  C   UNL     1      10.380 -15.139   0.000  0.00  0.00    +0.000 A 
ATOM      6  C   UNL     1      10.380 -14.314   0.000  0.00  0.00    +0.000 A 
ATOM      7  C   UNL     1       9.666 -13.901   0.000  0.00  0.00    +0.000 A 
ATOM      8  C   UNL     1      11.095 -13.901   0.000  0.00  0.00    +0.000 A 
ATOM      9  C   UNL     1      11.095 -13.076   0.000  0.00  0.00    +0.000 A 
ATOM     10  C   UNL     1      10.380 -12.664   0.000  0.00  0.00    +0.000 A 
ATOM     11  N   UNL     1       9.666 -13.076   0.000  0.00  0.00    +0.000 NA
ATOM     12 BR   UNL     1       9.666 -16.376   0.000  0.00  0.00    +0.000 Br
BRANCH  10  13
ATOM     13  O   UNL     1      10.380 -11.839   0.000  0.00  0.00    +0.000 OA
ATOM     14  C   UNL     1       9.677 -11.433   0.000  0.00  0.00    +0.000 C 
ENDBRANCH  10  13
ENDBRANCH   1   9
BRANCH   1  15
ATOM     15  C   UNL     1      11.810 -11.839   0.000  0.00  0.00    +0.000 A 
ATOM     16  C   UNL     1      12.515 -11.432   0.000  0.00  0.00    +0.000 A 
ATOM     17  C   UNL     1      12.515 -10.607   0.000  0.00  0.00    +0.000 A 
ATOM     18  C   UNL     1      11.801 -10.194   0.000  0.00  0.00    +0.000 A 
ATOM     19  C   UNL     1      11.096 -10.601   0.000  0.00  0.00    +0.000 A 
ATOM     20  C   UNL     1      11.096 -11.426   0.000  0.00  0.00    +0.000 A 
ENDBRANCH   1  15
BRANCH   1  21
ATOM     21  C   UNL     1      12.515 -13.070   0.000  0.00  0.00    +0.000 C 
ATOM     22  O   UNL     1      13.230 -13.483   0.000  0.00  0.00    +0.000 OA
BRANCH  21  23
ATOM     23  C   UNL     1      12.515 -13.901   0.000  0.00  0.00    +0.000 A 
ATOM     24  C   UNL     1      11.789 -14.321   0.000  0.00  0.00    +0.000 A 
ATOM     25  C   UNL     1      11.789 -15.146   0.000  0.00  0.00    +0.000 A 
ATOM     26  C   UNL     1      12.503 -15.558   0.000  0.00  0.00    +0.000 A 
ATOM     27  C   UNL     1      13.230 -15.138   0.000  0.00  0.00    +0.000 A 
ATOM     28  C   UNL     1      13.230 -14.313   0.000  0.00  0.00    +0.000 A 
ATOM     29  C   UNL     1      13.945 -15.551   0.000  0.00  0.00    +0.000 A 
ATOM     30  C   UNL     1      14.659 -15.138   0.000  0.00  0.00    +0.000 A 
ATOM     31  C   UNL     1      14.659 -14.313   0.000  0.00  0.00    +0.000 A 
ATOM     32  C   UNL     1      13.944 -13.901   0.000  0.00  0.00    +0.000 A 
ENDBRANCH  21  23
BRANCH  21  33
ATOM     33  C   UNL     1      13.215 -12.666   0.000  0.00  0.00    +0.000 C 
BRANCH  33  34
ATOM     34  C   UNL     1      13.917 -13.072   0.000  0.00  0.00    +0.000 C 
BRANCH  34  35
ATOM     35  N   UNL     1      14.618 -12.667   0.000  0.00  0.00    +0.000 NA
ATOM     36  C   UNL     1      15.319 -13.072   0.000  0.00  0.00    +0.000 C 
ATOM     37  C   UNL     1      14.618 -11.839   0.000  0.00  0.00    +0.000 C 
ENDBRANCH  34  35
ENDBRANCH  33  34
ENDBRANCH  21  33
ENDBRANCH   1  21
TORSDOF 8
