REMARK  Name = 
REMARK  6 active torsions:
REMARK  status: ('A' for Active; 'I' for Inactive)
REMARK    1  A    between atoms: C_2  and  C_3
REMARK    2  A    between atoms: C_3  and  N_4
REMARK    3  A    between atoms: C_5  and  C_30
REMARK    4  A    between atoms: C_7  and  C_8
REMARK    5  A    between atoms: C_16  and  C_17
REMARK    6  A    between atoms: N_22  and  C_23
REMARK                            x       y       z     vdW  Elec       q    Type
REMARK                         _______ _______ _______ _____ _____    ______ ____
ROOT
ATOM      1  N   UNL     1       0.715  -1.238   0.000  0.00  0.00    +0.000 N 
ATOM      2  C   UNL     1       1.382  -1.722   0.000  0.00  0.00    +0.000 A 
ATOM      3  N   UNL     1       1.127  -2.507   0.000  0.00  0.00    +0.000 NA
ATOM      4  C   UNL     1       0.302  -2.507   0.000  0.00  0.00    +0.000 A 
ATOM      5  C   UNL     1       0.047  -1.722   0.000  0.00  0.00    +0.000 A 
ENDROOT
BRANCH   4   6
ATOM      6  C   UNL     1      -0.183  -3.175   0.000  0.00  0.00    +0.000 A 
ATOM      7  C   UNL     1       0.153  -3.928   0.000  0.00  0.00    +0.000 A 
ATOM      8  C   UNL     1      -0.332  -4.596   0.000  0.00  0.00    +0.000 A 
ATOM      9  C   UNL     1      -1.153  -4.509   0.000  0.00  0.00    +0.000 A 
ATOM     10 CL   UNL     1      -1.638  -5.177   0.000  0.00  0.00    +0.000 Cl
ATOM     11  C   UNL     1      -1.488  -3.756   0.000  0.00  0.00    +0.000 A 
ATOM     12 CL   UNL     1      -2.309  -3.670   0.000  0.00  0.00    +0.000 Cl
ATOM     13  C   UNL     1      -1.003  -3.088   0.000  0.00  0.00    +0.000 A 
ENDBRANCH   4   6
BRANCH   5  14
ATOM     14  C   UNL     1      -0.738  -1.468   0.000  0.00  0.00    +0.000 A 
ATOM     15  C   UNL     1      -1.351  -2.019   0.000  0.00  0.00    +0.000 A 
ATOM     16  C   UNL     1      -2.135  -1.765   0.000  0.00  0.00    +0.000 A 
ATOM     17  N   UNL     1      -2.307  -0.958   0.000  0.00  0.00    +0.000 NA
ATOM     18  C   UNL     1      -1.694  -0.406   0.000  0.00  0.00    +0.000 A 
ATOM     19  N   UNL     1      -1.865   0.401   0.000  0.00  0.00    +0.000 NA
ATOM     20  N   UNL     1      -0.909  -0.660   0.000  0.00  0.00    +0.000 NA
BRANCH  19  21
ATOM     21  C   UNL     1      -1.252   0.953   0.000  0.00  0.00    +0.000 C 
ATOM     22  C   UNL     1      -1.424   1.760   0.000  0.00  0.00    +0.000 C 
ATOM     23  C   UNL     1      -0.811   2.312   0.000  0.00  0.00    +0.000 C 
ATOM     24  C   UNL     1      -0.026   2.058   0.000  0.00  0.00    +0.000 C 
ATOM     25  C   UNL     1       0.145   1.250   0.000  0.00  0.00    +0.000 C 
ATOM     26  C   UNL     1      -0.468   0.699   0.000  0.00  0.00    +0.000 C 
ENDBRANCH  19  21
ENDBRANCH   5  14
BRANCH   2  27
ATOM     27  C   UNL     1       2.167  -1.468   0.000  0.00  0.00    +0.000 C 
ATOM     28  C   UNL     1       2.338  -0.660   0.000  0.00  0.00    +0.000 C 
ATOM     29  C   UNL     1       3.123  -0.406   0.000  0.00  0.00    +0.000 C 
ATOM     30  N   UNL     1       3.736  -0.958   0.000  0.00  0.00    +0.000 NA
ATOM     31  C   UNL     1       3.564  -1.765   0.000  0.00  0.00    +0.000 C 
ATOM     32  C   UNL     1       2.780  -2.019   0.000  0.00  0.00    +0.000 C 
ENDBRANCH   2  27
BRANCH   1  33
ATOM     33  C   UNL     1       0.715  -0.412   0.000  0.00  0.00    +0.000 C 
BRANCH  33  35
ATOM     34  C   UNL     1       0.000   0.825   0.000  0.00  0.00    +0.000 C 
ATOM     35  C   UNL     1       0.000   0.000   0.000  0.00  0.00    +0.000 C 
ENDBRANCH  33  35
ENDBRANCH   1  33
TORSDOF 6
