REMARK  Name = 
REMARK  9 active torsions:
REMARK  status: ('A' for Active; 'I' for Inactive)
REMARK    1  A    between atoms: C_8  and  C_11
REMARK    2  A    between atoms: C_11  and  C_12
REMARK    3  A    between atoms: C_12  and  C_13
REMARK    4  A    between atoms: C_14  and  C_15
REMARK    5  A    between atoms: C_15  and  C_16
REMARK    6  A    between atoms: C_16  and  C_17
REMARK    7  A    between atoms: C_18  and  C_19
REMARK    8  A    between atoms: C_19  and  C_20
REMARK    9  A    between atoms: C_20  and  C_21
REMARK                            x       y       z     vdW  Elec       q    Type
REMARK                         _______ _______ _______ _____ _____    ______ ____
ROOT
ATOM      1  C   UNL     1      -1.431  -0.206   0.000  0.00  0.00    +0.000 C 
ENDROOT
BRANCH   1   2
ATOM      2  C   UNL     1      -0.716  -0.618   0.000  0.00  0.00    +0.000 C 
ATOM      3  C   UNL     1      -0.001  -0.206   0.000  0.00  0.00    +0.000 C 
ATOM      4  C   UNL     1      -0.001   0.620   0.000  0.00  0.00    +0.000 C 
BRANCH   3   5
ATOM      5  C   UNL     1       0.713  -0.618   0.000  0.00  0.00    +0.000 C 
BRANCH   5   6
ATOM      6  C   UNL     1       1.428  -0.206   0.000  0.00  0.00    +0.000 C 
BRANCH   6   7
ATOM      7  C   UNL     1       2.143  -0.618   0.000  0.00  0.00    +0.000 C 
ATOM      8  C   UNL     1       2.858  -0.206   0.000  0.00  0.00    +0.000 C 
ATOM      9  C   UNL     1       2.858   0.620   0.000  0.00  0.00    +0.000 C 
BRANCH   8  10
ATOM     10  C   UNL     1       3.573  -0.618   0.000  0.00  0.00    +0.000 C 
BRANCH  10  11
ATOM     11  C   UNL     1       4.287  -0.206   0.000  0.00  0.00    +0.000 C 
BRANCH  11  12
ATOM     12  C   UNL     1       5.002  -0.618   0.000  0.00  0.00    +0.000 C 
ATOM     13  C   UNL     1       5.717  -0.206   0.000  0.00  0.00    +0.000 C 
ATOM     14  C   UNL     1       6.432  -0.618   0.000  0.00  0.00    +0.000 C 
ATOM     15  C   UNL     1       5.717   0.620   0.000  0.00  0.00    +0.000 C 
ENDBRANCH  11  12
ENDBRANCH  10  11
ENDBRANCH   8  10
ENDBRANCH   6   7
ENDBRANCH   5   6
ENDBRANCH   3   5
ENDBRANCH   1   2
BRANCH   1  16
ATOM     16  C   UNL     1      -2.146  -0.618   0.000  0.00  0.00    +0.000 C 
BRANCH  16  24
ATOM     17  C   UNL     1      -5.717   0.620   0.000  0.00  0.00    +0.000 A 
ATOM     18  C   UNL     1      -5.717  -0.206   0.000  0.00  0.00    +0.000 A 
ATOM     19  C   UNL     1      -5.002  -0.620   0.000  0.00  0.00    +0.000 A 
ATOM     20  C   UNL     1      -4.289  -0.206   0.000  0.00  0.00    +0.000 A 
ATOM     21  C   UNL     1      -4.289   0.620   0.000  0.00  0.00    +0.000 A 
ATOM     22  C   UNL     1      -5.002   1.032   0.000  0.00  0.00    +0.000 A 
ATOM     23  O   UNL     1      -3.574  -0.620   0.000  0.00  0.00    +0.000 OA
ATOM     24  C   UNL     1      -2.860  -0.206   0.000  0.00  0.00    +0.000 C 
ATOM     25  C   UNL     1      -2.860   0.620   0.000  0.00  0.00    +0.000 C 
ATOM     26  C   UNL     1      -3.574   1.032   0.000  0.00  0.00    +0.000 C 
ATOM     27  C   UNL     1      -2.860  -1.033   0.000  0.00  0.00    +0.000 C 
ATOM     28  O   UNL     1      -6.432   1.033   0.000  0.00  0.00    +0.000 OA
ENDBRANCH  16  24
ENDBRANCH   1  16
TORSDOF 9
