REMARK  Name = 
REMARK  2 active torsions:
REMARK  status: ('A' for Active; 'I' for Inactive)
REMARK    1  A    between atoms: O_2  and  C_3
REMARK    2  A    between atoms: C_23  and  O_24
REMARK                            x       y       z     vdW  Elec       q    Type
REMARK                         _______ _______ _______ _____ _____    ______ ____
ROOT
ATOM      1  C   UNL     1      -0.825  -3.312   0.000  0.00  0.00    +0.000 A 
ATOM      2  C   UNL     1      -0.423  -2.592   0.000  0.00  0.00    +0.000 A 
ATOM      3  C   UNL     1       0.402  -2.579   0.000  0.00  0.00    +0.000 A 
ATOM      4  C   UNL     1       0.825  -3.288   0.000  0.00  0.00    +0.000 A 
ATOM      5  C   UNL     1       1.650  -3.275   0.000  0.00  0.00    +0.000 A 
ATOM      6  C   UNL     1       2.073  -3.983   0.000  0.00  0.00    +0.000 A 
ATOM      7  C   UNL     1       2.898  -3.970   0.000  0.00  0.00    +0.000 A 
ATOM      8  C   UNL     1       3.300  -3.250   0.000  0.00  0.00    +0.000 A 
ATOM      9  C   UNL     1       4.125  -3.237   0.000  0.00  0.00    +0.000 A 
ATOM     10  C   UNL     1       4.548  -3.945   0.000  0.00  0.00    +0.000 A 
ATOM     11  O   UNL     1       5.352  -3.762   0.000  0.00  0.00    +0.000 OA
ATOM     12  C   UNL     1       5.426  -2.940   0.000  0.00  0.00    +0.000 C 
ATOM     13  O   UNL     1       4.667  -2.616   0.000  0.00  0.00    +0.000 OA
ATOM     14  C   UNL     1       4.146  -4.666   0.000  0.00  0.00    +0.000 A 
ATOM     15  C   UNL     1       3.321  -4.679   0.000  0.00  0.00    +0.000 A 
ATOM     16  C   UNL     1       2.920  -5.399   0.000  0.00  0.00    +0.000 C 
ATOM     17  C   UNL     1       2.095  -5.412   0.000  0.00  0.00    +0.000 C 
ATOM     18  N   UNL     1       1.671  -4.704   0.000  0.00  0.00    +0.000 N 
ATOM     19  C   UNL     1       0.847  -4.716   0.000  0.00  0.00    +0.000 A 
ATOM     20  C   UNL     1       0.423  -4.008   0.000  0.00  0.00    +0.000 A 
ATOM     21  C   UNL     1      -0.402  -4.021   0.000  0.00  0.00    +0.000 A 
ENDROOT
BRANCH   1  23
ATOM     22  C   UNL     1      -2.051  -4.046   0.000  0.00  0.00    +0.000 C 
ATOM     23  O   UNL     1      -1.650  -3.325   0.000  0.00  0.00    +0.000 OA
ENDBRANCH   1  23
BRANCH  21  24
ATOM     24  O   UNL     1      -0.803  -4.741   0.000  0.00  0.00    +0.000 OA
ATOM     25  C   UNL     1      -1.628  -4.754   0.000  0.00  0.00    +0.000 C 
ENDBRANCH  21  24
TORSDOF 2
