REMARK  Name = 
REMARK  6 active torsions:
REMARK  status: ('A' for Active; 'I' for Inactive)
REMARK    1  A    between atoms: C_2  and  C_5
REMARK    2  A    between atoms: C_8  and  C_11
REMARK    3  A    between atoms: N_14  and  C_15
REMARK    4  A    between atoms: C_18  and  C_19
REMARK    5  A    between atoms: C_19  and  C_20
REMARK    6  A    between atoms: C_20  and  N_21
REMARK                            x       y       z     vdW  Elec       q    Type
REMARK                         _______ _______ _______ _____ _____    ______ ____
ROOT
ATOM      1  C   UNL     1       2.858  -9.900   0.000  0.00  0.00    +0.000 A 
ATOM      2  N   UNL     1       3.572 -10.312   0.000  0.00  0.00    +0.000 NA
ATOM      3  C   UNL     1       3.572 -11.137   0.000  0.00  0.00    +0.000 A 
ATOM      4  N   UNL     1       4.287 -11.550   0.000  0.00  0.00    +0.000 NA
ATOM      5  N   UNL     1       2.858 -11.550   0.000  0.00  0.00    +0.000 NA
ATOM      6  C   UNL     1       2.143 -11.137   0.000  0.00  0.00    +0.000 A 
ATOM      7  C   UNL     1       2.143 -10.312   0.000  0.00  0.00    +0.000 A 
ATOM      8 CL   UNL     1       1.429  -9.900   0.000  0.00  0.00    +0.000 Cl
ENDROOT
BRANCH   1  12
ATOM      9  C   UNL     1       2.858  -7.425   0.000  0.00  0.00    +0.000 A 
ATOM     10  C   UNL     1       3.572  -7.838   0.000  0.00  0.00    +0.000 A 
ATOM     11  C   UNL     1       3.572  -8.662   0.000  0.00  0.00    +0.000 A 
ATOM     12  C   UNL     1       2.858  -9.075   0.000  0.00  0.00    +0.000 A 
ATOM     13  C   UNL     1       2.143  -8.662   0.000  0.00  0.00    +0.000 A 
ATOM     14  C   UNL     1       2.143  -7.838   0.000  0.00  0.00    +0.000 A 
BRANCH   9  16
ATOM     15  C   UNL     1       2.858  -5.775   0.000  0.00  0.00    +0.000 C 
ATOM     16  C   UNL     1       2.858  -6.600   0.000  0.00  0.00    +0.000 C 
ATOM     17  C   UNL     1       2.033  -6.600   0.000  0.00  0.00    +0.000 C 
ATOM     18  N   UNL     1       3.683  -6.600   0.000  0.00  0.00    +0.000 NA
ENDBRANCH   9  16
ENDBRANCH   1  12
BRANCH   4  19
ATOM     19  C   UNL     1       4.287 -12.375   0.000  0.00  0.00    +0.000 A 
ATOM     20  C   UNL     1       5.001 -12.787   0.000  0.00  0.00    +0.000 A 
ATOM     21  C   UNL     1       5.001 -13.613   0.000  0.00  0.00    +0.000 A 
ATOM     22  C   UNL     1       4.287 -14.025   0.000  0.00  0.00    +0.000 A 
ATOM     23  C   UNL     1       3.572 -13.613   0.000  0.00  0.00    +0.000 A 
ATOM     24  C   UNL     1       3.572 -12.787   0.000  0.00  0.00    +0.000 A 
BRANCH  22  25
ATOM     25  C   UNL     1       4.287 -14.850   0.000  0.00  0.00    +0.000 C 
BRANCH  25  26
ATOM     26  C   UNL     1       5.001 -15.262   0.000  0.00  0.00    +0.000 C 
BRANCH  26  27
ATOM     27  N   UNL     1       5.001 -16.087   0.000  0.00  0.00    +0.000 NA
ATOM     28  C   UNL     1       5.716 -16.500   0.000  0.00  0.00    +0.000 C 
ATOM     29  C   UNL     1       5.716 -17.325   0.000  0.00  0.00    +0.000 C 
ATOM     30  O   UNL     1       5.001 -17.738   0.000  0.00  0.00    +0.000 OA
ATOM     31  C   UNL     1       4.287 -17.325   0.000  0.00  0.00    +0.000 C 
ATOM     32  C   UNL     1       4.287 -16.500   0.000  0.00  0.00    +0.000 C 
ENDBRANCH  26  27
ENDBRANCH  25  26
ENDBRANCH  22  25
ENDBRANCH   4  19
TORSDOF 6
