REMARK  Name = 
REMARK  11 active torsions:
REMARK  status: ('A' for Active; 'I' for Inactive)
REMARK    1  A    between atoms: C_4  and  C_9
REMARK    2  A    between atoms: C_5  and  C_11
REMARK    3  A    between atoms: C_6  and  C_12
REMARK    4  A    between atoms: C_10  and  N_32
REMARK    5  A    between atoms: C_13  and  N_32
REMARK    6  A    between atoms: C_25  and  O_52
REMARK    7  A    between atoms: C_26  and  O_54
REMARK    8  A    between atoms: C_27  and  O_53
REMARK    9  A    between atoms: C_29  and  O_53
REMARK   10  A    between atoms: C_30  and  O_52
REMARK   11  A    between atoms: C_31  and  O_54
REMARK                            x       y       z     vdW  Elec       q    Type
REMARK                         _______ _______ _______ _____ _____    ______ ____
ROOT
ATOM      1  C   UNL     1      -2.143  -2.888   0.000  0.00  0.00    +0.000 C 
ATOM      2  C   UNL     1      -2.143  -3.712   0.000  0.00  0.00    +0.000 C 
ATOM      3  C   UNL     1      -2.858  -4.125   0.000  0.00  0.00    +0.000 C 
ATOM      4  C   UNL     1      -2.858  -4.950   0.000  0.00  0.00    +0.000 C 
ATOM      5  C   UNL     1      -2.143  -5.362   0.000  0.00  0.00    +0.000 C 
ATOM      6  C   UNL     1      -1.429  -4.950   0.000  0.00  0.00    +0.000 C 
ATOM      7  O   UNL     1      -3.572  -5.362   0.000  0.00  0.00    +0.000 OA
ATOM      8  O   UNL     1      -2.143  -6.188   0.000  0.00  0.00    +0.000 OA
ATOM      9  O   UNL     1      -1.429  -4.125   0.000  0.00  0.00    +0.000 OA
ENDROOT
BRANCH   3  10
ATOM     10  N   UNL     1      -3.572  -3.712   0.000  0.00  0.00    +0.000 NA
BRANCH  10  13
ATOM     11  C   UNL     1      -2.858  -2.475   0.000  0.00  0.00    +0.000 C 
ATOM     12  C   UNL     1      -2.858  -1.650   0.000  0.00  0.00    +0.000 C 
ATOM     13  C   UNL     1      -3.572  -2.888   0.000  0.00  0.00    +0.000 C 
ATOM     14  C   UNL     1      -4.287  -2.475   0.000  0.00  0.00    +0.000 C 
ATOM     15  C   UNL     1      -4.287  -1.650   0.000  0.00  0.00    +0.000 C 
ATOM     16  C   UNL     1      -3.572  -1.238   0.000  0.00  0.00    +0.000 C 
ATOM     17  O   UNL     1      -5.001  -2.888   0.000  0.00  0.00    +0.000 OA
ATOM     18  O   UNL     1      -5.001  -1.238   0.000  0.00  0.00    +0.000 OA
BRANCH  12  19
ATOM     19  C   UNL     1      -2.143  -1.238   0.000  0.00  0.00    +0.000 C 
ATOM     20  O   UNL     1      -2.143  -0.412   0.000  0.00  0.00    +0.000 OA
ENDBRANCH  12  19
BRANCH  16  21
ATOM     21  O   UNL     1      -3.572  -0.412   0.000  0.00  0.00    +0.000 OA
BRANCH  21  27
ATOM     22  C   UNL     1      -6.430  -0.412   0.000  0.00  0.00    +0.000 C 
ATOM     23  C   UNL     1      -5.716   0.000   0.000  0.00  0.00    +0.000 C 
ATOM     24  C   UNL     1      -5.716   0.825   0.000  0.00  0.00    +0.000 C 
ATOM     25  C   UNL     1      -5.001   1.238   0.000  0.00  0.00    +0.000 C 
ATOM     26  C   UNL     1      -4.287   0.825   0.000  0.00  0.00    +0.000 C 
ATOM     27  C   UNL     1      -4.287   0.000   0.000  0.00  0.00    +0.000 C 
ATOM     28  O   UNL     1      -6.430   1.238   0.000  0.00  0.00    +0.000 OA
ATOM     29  O   UNL     1      -5.001   2.062   0.000  0.00  0.00    +0.000 OA
ATOM     30  O   UNL     1      -3.572   1.238   0.000  0.00  0.00    +0.000 OA
ATOM     31  O   UNL     1      -5.001  -0.412   0.000  0.00  0.00    +0.000 OA
ENDBRANCH  21  27
ENDBRANCH  16  21
ENDBRANCH  10  13
ENDBRANCH   3  10
BRANCH   6  32
ATOM     32  O   UNL     1      -0.715  -5.362   0.000  0.00  0.00    +0.000 OA
BRANCH  32  36
ATOM     33  C   UNL     1       0.000  -4.125   0.000  0.00  0.00    +0.000 C 
ATOM     34  C   UNL     1       0.715  -5.362   0.000  0.00  0.00    +0.000 C 
ATOM     35  C   UNL     1       1.429  -4.950   0.000  0.00  0.00    +0.000 C 
ATOM     36  C   UNL     1       0.000  -4.950   0.000  0.00  0.00    +0.000 C 
ATOM     37  C   UNL     1       1.429  -4.125   0.000  0.00  0.00    +0.000 C 
ATOM     38  O   UNL     1       0.715  -6.188   0.000  0.00  0.00    +0.000 OA
ATOM     39  O   UNL     1       2.143  -5.362   0.000  0.00  0.00    +0.000 OA
ATOM     40  O   UNL     1       0.715  -3.712   0.000  0.00  0.00    +0.000 OA
BRANCH  33  41
ATOM     41  C   UNL     1      -0.715  -3.712   0.000  0.00  0.00    +0.000 C 
ATOM     42  O   UNL     1      -0.715  -2.888   0.000  0.00  0.00    +0.000 OA
ENDBRANCH  33  41
BRANCH  37  43
ATOM     43  O   UNL     1       2.143  -3.712   0.000  0.00  0.00    +0.000 OA
BRANCH  43  47
ATOM     44  C   UNL     1       1.429  -2.475   0.000  0.00  0.00    +0.000 C 
ATOM     45  C   UNL     1       2.858  -2.475   0.000  0.00  0.00    +0.000 C 
ATOM     46  C   UNL     1       2.858  -1.650   0.000  0.00  0.00    +0.000 C 
ATOM     47  C   UNL     1       2.143  -2.888   0.000  0.00  0.00    +0.000 C 
ATOM     48  C   UNL     1       2.143  -1.238   0.000  0.00  0.00    +0.000 C 
ATOM     49  O   UNL     1       3.572  -2.888   0.000  0.00  0.00    +0.000 OA
ATOM     50  O   UNL     1       3.572  -1.238   0.000  0.00  0.00    +0.000 OA
ATOM     51  O   UNL     1       2.143  -0.412   0.000  0.00  0.00    +0.000 OA
ATOM     52  O   UNL     1       1.429  -1.650   0.000  0.00  0.00    +0.000 OA
BRANCH  44  53
ATOM     53  C   UNL     1       0.715  -2.888   0.000  0.00  0.00    +0.000 C 
ATOM     54  O   UNL     1       0.000  -2.475   0.000  0.00  0.00    +0.000 OA
ENDBRANCH  44  53
ENDBRANCH  43  47
ENDBRANCH  37  43
ENDBRANCH  32  36
ENDBRANCH   6  32
TORSDOF 11
