REMARK  Name = 
REMARK  2 active torsions:
REMARK  status: ('A' for Active; 'I' for Inactive)
REMARK    1  A    between atoms: C_11  and  N_15
REMARK    2  A    between atoms: C_17  and  C_22
REMARK                            x       y       z     vdW  Elec       q    Type
REMARK                         _______ _______ _______ _____ _____    ______ ____
ROOT
ATOM      1  C   UNL     1      -1.429  -0.340   0.000  0.00  0.00    +0.000 A 
ATOM      2  C   UNL     1      -1.429   0.485   0.000  0.00  0.00    +0.000 A 
ATOM      3  C   UNL     1       1.429  -0.340   0.000  0.00  0.00    +0.000 C 
ATOM      4  C   UNL     1       1.429   0.485   0.000  0.00  0.00    +0.000 C 
ATOM      5  C   UNL     1       0.715  -0.752   0.000  0.00  0.00    +0.000 C 
ATOM      6  C   UNL     1       0.715   0.898   0.000  0.00  0.00    +0.000 C 
ATOM      7  C   UNL     1       0.000  -0.340   0.000  0.00  0.00    +0.000 C 
ATOM      8  C   UNL     1       0.000   0.485   0.000  0.00  0.00    +0.000 C 
ATOM      9  C   UNL     1      -0.715   0.898   0.000  0.00  0.00    +0.000 C 
ATOM     10  C   UNL     1      -0.715  -0.752   0.000  0.00  0.00    +0.000 C 
ATOM     11  C   UNL     1       2.143  -0.752   0.000  0.00  0.00    +0.000 C 
ATOM     12  C   UNL     1       2.143   0.898   0.000  0.00  0.00    +0.000 C 
ATOM     13  O   UNL     1       1.429   1.310   0.000  0.00  0.00    +0.000 OA
ATOM     14  C   UNL     1       2.858  -0.340   0.000  0.00  0.00    +0.000 C 
ATOM     15  O   UNL     1       0.715   1.723   0.000  0.00  0.00    +0.000 OA
ATOM     16  C   UNL     1       2.858   0.485   0.000  0.00  0.00    +0.000 C 
ATOM     17  O   UNL     1       2.143   1.723   0.000  0.00  0.00    +0.000 OA
ATOM     18  O   UNL     1       3.572  -0.752   0.000  0.00  0.00    +0.000 OA
ATOM     19  O   UNL     1      -0.715   1.723   0.000  0.00  0.00    +0.000 OA
ATOM     20  C   UNL     1      -2.143  -0.752   0.000  0.00  0.00    +0.000 A 
ATOM     21  C   UNL     1      -2.143   0.898   0.000  0.00  0.00    +0.000 A 
ATOM     22  C   UNL     1      -2.858  -0.340   0.000  0.00  0.00    +0.000 A 
ATOM     23  C   UNL     1      -2.858   0.485   0.000  0.00  0.00    +0.000 A 
ATOM     24  O   UNL     1      -2.143   1.723   0.000  0.00  0.00    +0.000 OA
ATOM     25  O   UNL     1      -1.429  -1.165   0.000  0.00  0.00    +0.000 OA
ATOM     26  C   UNL     1      -0.715  -1.577   0.000  0.00  0.00    +0.000 C 
ENDROOT
BRANCH  11  27
ATOM     27  N   UNL     1       2.143  -1.577   0.000  0.00  0.00    +0.000 NA
ATOM     28  C   UNL     1       2.858  -1.990   0.000  0.00  0.00    +0.000 C 
ATOM     29  C   UNL     1       1.429  -1.990   0.000  0.00  0.00    +0.000 C 
ENDBRANCH  11  27
BRANCH  16  30
ATOM     30  C   UNL     1       3.572   0.898   0.000  0.00  0.00    +0.000 C 
ATOM     31  N   UNL     1       4.287   0.485   0.000  0.00  0.00    +0.000 NA
ATOM     32  O   UNL     1       3.572   1.723   0.000  0.00  0.00    +0.000 OA
ENDBRANCH  16  30
TORSDOF 2
