REMARK  Name = 
REMARK  9 active torsions:
REMARK  status: ('A' for Active; 'I' for Inactive)
REMARK    1  A    between atoms: C_3  and  C_11
REMARK    2  A    between atoms: C_4  and  C_18
REMARK    3  A    between atoms: C_5  and  C_8
REMARK    4  A    between atoms: N_7  and  S_31
REMARK    5  A    between atoms: C_19  and  C_20
REMARK    6  A    between atoms: C_20  and  C_21
REMARK    7  A    between atoms: C_21  and  C_22
REMARK    8  A    between atoms: C_22  and  C_23
REMARK    9  A    between atoms: C_23  and  C_24
REMARK                            x       y       z     vdW  Elec       q    Type
REMARK                         _______ _______ _______ _____ _____    ______ ____
ROOT
ATOM      1  N   UNL     1      -0.715   0.412   0.000  0.00  0.00    +0.000 NA
ATOM      2  C   UNL     1      -0.715  -0.412   0.000  0.00  0.00    +0.000 A 
ATOM      3  C   UNL     1       0.000   0.825   0.000  0.00  0.00    +0.000 A 
ATOM      4  C   UNL     1       0.715   0.412   0.000  0.00  0.00    +0.000 A 
ATOM      5  C   UNL     1       0.715  -0.412   0.000  0.00  0.00    +0.000 A 
ATOM      6  N   UNL     1       0.000  -0.825   0.000  0.00  0.00    +0.000 NA
ATOM      7  N   UNL     1      -1.429  -0.825   0.000  0.00  0.00    +0.000 N 
ATOM      8  C   UNL     1      -2.143  -0.412   0.000  0.00  0.00    +0.000 C 
ENDROOT
BRANCH   3   9
ATOM      9  C   UNL     1       0.000   1.650   0.000  0.00  0.00    +0.000 A 
ATOM     10  C   UNL     1      -0.715   2.062   0.000  0.00  0.00    +0.000 A 
ATOM     11  C   UNL     1      -0.715   2.888   0.000  0.00  0.00    +0.000 A 
ATOM     12  C   UNL     1       0.000   3.300   0.000  0.00  0.00    +0.000 A 
ATOM     13  C   UNL     1       0.715   2.888   0.000  0.00  0.00    +0.000 A 
ATOM     14  C   UNL     1       0.715   2.062   0.000  0.00  0.00    +0.000 A 
ATOM     15  F   UNL     1       0.000   4.125   0.000  0.00  0.00    +0.000 F 
ENDBRANCH   3   9
BRANCH   7  18
ATOM     16  C   UNL     1      -1.429  -2.475   0.000  0.00  0.00    +0.000 C 
ATOM     17  O   UNL     1      -0.604  -1.650   0.000  0.00  0.00    +0.000 OA
ATOM     18  S   UNL     1      -1.429  -1.650   0.000  0.00  0.00    +0.000 S 
ATOM     19  O   UNL     1      -2.254  -1.650   0.000  0.00  0.00    +0.000 OA
ENDBRANCH   7  18
BRANCH   5  20
ATOM     20  C   UNL     1       1.429  -0.825   0.000  0.00  0.00    +0.000 C 
ATOM     21  C   UNL     1       1.429  -1.650   0.000  0.00  0.00    +0.000 C 
ATOM     22  C   UNL     1       2.143  -0.412   0.000  0.00  0.00    +0.000 C 
ENDBRANCH   5  20
BRANCH   4  23
ATOM     23  C   UNL     1       1.429   0.825   0.000  0.00  0.00    +0.000 C 
ATOM     24  C   UNL     1       2.147   0.419   0.000  0.00  0.00    +0.000 C 
BRANCH  24  25
ATOM     25  C   UNL     1       2.858   0.839   0.000  0.00  0.00    +0.000 C 
ATOM     26  O   UNL     1       2.850   1.663   0.000  0.00  0.00    +0.000 OA
BRANCH  25  27
ATOM     27  C   UNL     1       3.576   0.433   0.000  0.00  0.00    +0.000 C 
BRANCH  27  28
ATOM     28  C   UNL     1       4.287   0.852   0.000  0.00  0.00    +0.000 C 
ATOM     29  O   UNL     1       4.279   1.677   0.000  0.00  0.00    +0.000 OA
BRANCH  28  30
ATOM     30  C   UNL     1       5.005   0.446   0.000  0.00  0.00    +0.000 C 
BRANCH  30  31
ATOM     31  C   UNL     1       5.716   0.866   0.000  0.00  0.00    +0.000 C 
ATOM     32  O   UNL     1       5.708   1.691   0.000  0.00  0.00    +0.000 OA
ATOM     33  O   UNL     1       6.434   0.460   0.000  0.00  0.00    +0.000 OA
ENDBRANCH  30  31
ENDBRANCH  28  30
ENDBRANCH  27  28
ENDBRANCH  25  27
ENDBRANCH  24  25
ENDBRANCH   4  23
TORSDOF 9
