REMARK  Name = 
REMARK  6 active torsions:
REMARK  status: ('A' for Active; 'I' for Inactive)
REMARK    1  A    between atoms: C_17  and  C_20
REMARK    2  A    between atoms: C_17  and  C_26
REMARK    3  A    between atoms: C_18  and  C_21
REMARK    4  A    between atoms: C_18  and  C_30
REMARK    5  A    between atoms: C_23  and  C_27
REMARK    6  A    between atoms: C_30  and  O_37
REMARK                            x       y       z     vdW  Elec       q    Type
REMARK                         _______ _______ _______ _____ _____    ______ ____
ROOT
ATOM      1  C   UNL     1       0.098   1.759   0.000  0.00  0.00    +0.000 C 
ATOM      2  C   UNL     1       0.098   3.409   0.000  0.00  0.00    +0.000 C 
ATOM      3  C   UNL     1       0.813   2.171   0.000  0.00  0.00    +0.000 C 
ATOM      4  C   UNL     1      -0.616   2.997   0.000  0.00  0.00    +0.000 C 
ATOM      5  C   UNL     1      -1.401   1.917   0.000  0.00  0.00    +0.000 C 
ATOM      6  C   UNL     1      -1.886   2.584   0.000  0.00  0.00    +0.000 C 
ATOM      7  N   UNL     1       0.813   2.997   0.000  0.00  0.00    +0.000 NA
ATOM      8  N   UNL     1      -1.401   3.252   0.000  0.00  0.00    +0.000 NA
ATOM      9  N   UNL     1      -0.616   2.171   0.000  0.00  0.00    +0.000 N 
ATOM     10  O   UNL     1      -1.656   1.132   0.000  0.00  0.00    +0.000 OA
ENDROOT
BRANCH   3  15
ATOM     11  C   UNL     1       1.527   0.934   0.000  0.00  0.00    +0.000 A 
ATOM     12  C   UNL     1       2.242   2.171   0.000  0.00  0.00    +0.000 A 
ATOM     13  C   UNL     1       2.242   0.521   0.000  0.00  0.00    +0.000 A 
ATOM     14  C   UNL     1       2.956   1.759   0.000  0.00  0.00    +0.000 A 
ATOM     15  C   UNL     1       1.527   1.759   0.000  0.00  0.00    +0.000 A 
ATOM     16  C   UNL     1       2.956   0.934   0.000  0.00  0.00    +0.000 A 
ATOM     17  O   UNL     1       3.671   0.521   0.000  0.00  0.00    +0.000 OA
ENDBRANCH   3  15
BRANCH   6  19
ATOM     18  O   UNL     1      -2.327   1.225   0.000  0.00  0.00    +0.000 OA
ATOM     19  O   UNL     1      -2.499   2.032   0.000  0.00  0.00    +0.000 OA
ENDBRANCH   6  19
BRANCH   6  20
ATOM     20  C   UNL     1      -2.499   3.136   0.000  0.00  0.00    +0.000 C 
BRANCH  20  28
ATOM     21  C   UNL     1      -5.809   1.309   0.000  0.00  0.00    +0.000 A 
ATOM     22  C   UNL     1      -5.196   0.757   0.000  0.00  0.00    +0.000 A 
ATOM     23  C   UNL     1      -5.637   2.116   0.000  0.00  0.00    +0.000 A 
ATOM     24  C   UNL     1      -4.411   1.012   0.000  0.00  0.00    +0.000 A 
ATOM     25  C   UNL     1      -3.897   3.433   0.000  0.00  0.00    +0.000 A 
ATOM     26  C   UNL     1      -4.681   3.178   0.000  0.00  0.00    +0.000 A 
ATOM     27  C   UNL     1      -3.455   2.074   0.000  0.00  0.00    +0.000 A 
ATOM     28  C   UNL     1      -3.284   2.881   0.000  0.00  0.00    +0.000 A 
ATOM     29  C   UNL     1      -4.853   2.371   0.000  0.00  0.00    +0.000 A 
ATOM     30  C   UNL     1      -4.240   1.819   0.000  0.00  0.00    +0.000 A 
ENDBRANCH  20  28
ENDBRANCH   6  20
BRANCH   2  31
ATOM     31  C   UNL     1       0.098   4.234   0.000  0.00  0.00    +0.000 C 
BRANCH  31  37
ATOM     32  C   UNL     1       2.242   5.471   0.000  0.00  0.00    +0.000 A 
ATOM     33  C   UNL     1       1.527   5.884   0.000  0.00  0.00    +0.000 A 
ATOM     34  C   UNL     1       2.242   4.646   0.000  0.00  0.00    +0.000 A 
ATOM     35  C   UNL     1       0.813   5.471   0.000  0.00  0.00    +0.000 A 
ATOM     36  C   UNL     1       1.527   4.234   0.000  0.00  0.00    +0.000 A 
ATOM     37  C   UNL     1       0.813   4.646   0.000  0.00  0.00    +0.000 A 
ENDBRANCH  31  37
ENDBRANCH   2  31
TORSDOF 6
