REMARK  Name = 
REMARK  11 active torsions:
REMARK  status: ('A' for Active; 'I' for Inactive)
REMARK    1  A    between atoms: C_1  and  O_4
REMARK    2  A    between atoms: C_1  and  C_5
REMARK    3  A    between atoms: O_4  and  P_8
REMARK    4  A    between atoms: C_6  and  C_32
REMARK    5  A    between atoms: P_8  and  O_13
REMARK    6  A    between atoms: C_11  and  N_36
REMARK    7  A    between atoms: O_13  and  C_16
REMARK    8  A    between atoms: C_16  and  C_17
REMARK    9  A    between atoms: C_20  and  N_23
REMARK   10  A    between atoms: C_32  and  C_33
REMARK   11  A    between atoms: C_33  and  C_34
REMARK                            x       y       z     vdW  Elec       q    Type
REMARK                         _______ _______ _______ _____ _____    ______ ____
ROOT
ATOM      1  O   UNL     1      11.850 -11.023   0.000  0.00  0.00    +0.000 OA
ENDROOT
BRANCH   1   2
ATOM      2  C   UNL     1      10.541 -10.040   0.000  0.00  0.00    +0.000 C 
ATOM      3  O   UNL     1       9.828  -9.627   0.000  0.00  0.00    +0.000 OA
ATOM      4  C   UNL     1      10.541 -10.860   0.000  0.00  0.00    +0.000 C 
ATOM      5  C   UNL     1       9.116 -10.040   0.000  0.00  0.00    +0.000 C 
ATOM      6  C   UNL     1       9.828 -11.284   0.000  0.00  0.00    +0.000 C 
ATOM      7  C   UNL     1       9.116 -10.860   0.000  0.00  0.00    +0.000 C 
ATOM      8  O   UNL     1       9.831 -12.097   0.000  0.00  0.00    +0.000 OA
BRANCH   7   9
ATOM      9  N   UNL     1       8.365 -11.287   0.000  0.00  0.00    +0.000 NA
ATOM     10  C   UNL     1       8.365 -12.147   0.000  0.00  0.00    +0.000 C 
ATOM     11  O   UNL     1       9.110 -12.576   0.000  0.00  0.00    +0.000 OA
ATOM     12  C   UNL     1       7.621 -12.576   0.000  0.00  0.00    +0.000 C 
ENDBRANCH   7   9
BRANCH   2  13
ATOM     13  C   UNL     1      11.246  -9.627   0.000  0.00  0.00    +0.000 C 
ATOM     14  O   UNL     1      11.271  -8.810   0.000  0.00  0.00    +0.000 OA
ATOM     15  O   UNL     1      11.951 -10.040   0.000  0.00  0.00    +0.000 OA
ENDBRANCH   2  13
BRANCH   5  16
ATOM     16  C   UNL     1       8.367  -9.595   0.000  0.00  0.00    +0.000 C 
ATOM     17  O   UNL     1       7.617 -10.020   0.000  0.00  0.00    +0.000 OA
BRANCH  16  18
ATOM     18  C   UNL     1       8.370  -8.735   0.000  0.00  0.00    +0.000 C 
ATOM     19  O   UNL     1       9.110  -8.308   0.000  0.00  0.00    +0.000 OA
BRANCH  18  20
ATOM     20  C   UNL     1       7.628  -8.303   0.000  0.00  0.00    +0.000 C 
ATOM     21  O   UNL     1       7.630  -7.443   0.000  0.00  0.00    +0.000 OA
ENDBRANCH  18  20
ENDBRANCH  16  18
ENDBRANCH   5  16
ENDBRANCH   1   2
BRANCH   1  22
ATOM     22  P   UNL     1      12.675 -11.023   0.000  0.00  0.00    +0.000 P 
ATOM     23  O   UNL     1      12.675 -11.841   0.000  0.00  0.00    +0.000 OA
ATOM     24  O   UNL     1      12.675 -10.202   0.000  0.00  0.00    +0.000 OA
BRANCH  22  25
ATOM     25  O   UNL     1      13.488 -11.023   0.000  0.00  0.00    +0.000 OA
BRANCH  25  26
ATOM     26  C   UNL     1      14.309 -11.023   0.000  0.00  0.00    +0.000 C 
BRANCH  26  27
ATOM     27  C   UNL     1      15.087 -11.266   0.000  0.00  0.00    +0.000 C 
ATOM     28  O   UNL     1      15.749 -10.784   0.000  0.00  0.00    +0.000 OA
ATOM     29  C   UNL     1      15.348 -12.043   0.000  0.00  0.00    +0.000 C 
ATOM     30  C   UNL     1      16.422 -11.277   0.000  0.00  0.00    +0.000 C 
ATOM     31  C   UNL     1      16.180 -12.043   0.000  0.00  0.00    +0.000 C 
ATOM     32  O   UNL     1      14.877 -12.709   0.000  0.00  0.00    +0.000 OA
ATOM     33  O   UNL     1      16.661 -12.702   0.000  0.00  0.00    +0.000 OA
BRANCH  30  34
ATOM     34  N   UNL     1      16.943  -9.905   0.000  0.00  0.00    +0.000 N 
ATOM     35  C   UNL     1      16.226  -9.489   0.000  0.00  0.00    +0.000 A 
ATOM     36  C   UNL     1      17.659  -9.504   0.000  0.00  0.00    +0.000 A 
ATOM     37  N   UNL     1      16.201  -8.668   0.000  0.00  0.00    +0.000 NA
ATOM     38  O   UNL     1      15.521  -9.894   0.000  0.00  0.00    +0.000 OA
ATOM     39  C   UNL     1      17.659  -8.672   0.000  0.00  0.00    +0.000 A 
ATOM     40  C   UNL     1      16.946  -8.256   0.000  0.00  0.00    +0.000 A 
ATOM     41  N   UNL     1      16.946  -7.438   0.000  0.00  0.00    +0.000 NA
ENDBRANCH  30  34
ENDBRANCH  26  27
ENDBRANCH  25  26
ENDBRANCH  22  25
ENDBRANCH   1  22
TORSDOF 11
