REMARK  Name = 
REMARK  4 active torsions:
REMARK  status: ('A' for Active; 'I' for Inactive)
REMARK    1  A    between atoms: C_18  and  C_26
REMARK    2  A    between atoms: C_19  and  C_27
REMARK    3  A    between atoms: C_20  and  N_32
REMARK    4  A    between atoms: C_21  and  N_34
REMARK                            x       y       z     vdW  Elec       q    Type
REMARK                         _______ _______ _______ _____ _____    ______ ____
ROOT
ATOM      1  C   UNL     1       0.057   1.127   0.000  0.00  0.00    +0.000 A 
ATOM      2  C   UNL     1      -0.768   1.127   0.000  0.00  0.00    +0.000 A 
ATOM      3  C   UNL     1       0.057  -0.302   0.000  0.00  0.00    +0.000 A 
ATOM      4  C   UNL     1       0.470   0.412   0.000  0.00  0.00    +0.000 A 
ATOM      5  C   UNL     1      -1.180   0.412   0.000  0.00  0.00    +0.000 A 
ATOM      6  C   UNL     1      -0.768  -0.302   0.000  0.00  0.00    +0.000 A 
ATOM      7  C   UNL     1      -2.073  -0.580   0.000  0.00  0.00    +0.000 A 
ATOM      8  N   UNL     1      -1.987   0.241   0.000  0.00  0.00    +0.000 NA
ATOM      9  N   UNL     1      -1.320  -0.915   0.000  0.00  0.00    +0.000 NA
ENDROOT
BRANCH   4  16
ATOM     10  C   UNL     1       3.993   0.825   0.000  0.00  0.00    +0.000 A 
ATOM     11  C   UNL     1       3.279   1.238   0.000  0.00  0.00    +0.000 A 
ATOM     12  C   UNL     1       3.279  -0.412   0.000  0.00  0.00    +0.000 A 
ATOM     13  C   UNL     1       3.993   0.000   0.000  0.00  0.00    +0.000 A 
ATOM     14  C   UNL     1       2.564   0.825   0.000  0.00  0.00    +0.000 A 
ATOM     15  C   UNL     1       2.564   0.000   0.000  0.00  0.00    +0.000 A 
ATOM     16  C   UNL     1       1.295   0.412   0.000  0.00  0.00    +0.000 A 
ATOM     17  N   UNL     1       1.780   1.080   0.000  0.00  0.00    +0.000 NA
ATOM     18  N   UNL     1       1.780  -0.255   0.000  0.00  0.00    +0.000 NA
BRANCH  13  25
ATOM     19  C   UNL     1       6.851  -1.650   0.000  0.00  0.00    +0.000 C 
ATOM     20  C   UNL     1       6.137  -0.412   0.000  0.00  0.00    +0.000 C 
ATOM     21  C   UNL     1       5.422  -1.650   0.000  0.00  0.00    +0.000 C 
ATOM     22  C   UNL     1       5.422   0.000   0.000  0.00  0.00    +0.000 C 
ATOM     23  C   UNL     1       4.708  -1.238   0.000  0.00  0.00    +0.000 C 
ATOM     24  N   UNL     1       6.137  -1.238   0.000  0.00  0.00    +0.000 NA
ATOM     25  N   UNL     1       4.708  -0.412   0.000  0.00  0.00    +0.000 N 
ENDBRANCH  13  25
ENDBRANCH   4  16
BRANCH   7  30
ATOM     26  C   UNL     1      -3.502  -0.580   0.000  0.00  0.00    +0.000 A 
ATOM     27  C   UNL     1      -2.788  -1.817   0.000  0.00  0.00    +0.000 A 
ATOM     28  C   UNL     1      -4.217  -0.992   0.000  0.00  0.00    +0.000 A 
ATOM     29  C   UNL     1      -3.502  -2.229   0.000  0.00  0.00    +0.000 A 
ATOM     30  C   UNL     1      -2.788  -0.992   0.000  0.00  0.00    +0.000 A 
ATOM     31  C   UNL     1      -4.217  -1.817   0.000  0.00  0.00    +0.000 A 
BRANCH  31  34
ATOM     32  C   UNL     1      -4.931  -3.054   0.000  0.00  0.00    +0.000 C 
ATOM     33  C   UNL     1      -5.646  -1.817   0.000  0.00  0.00    +0.000 C 
ATOM     34  N   UNL     1      -4.931  -2.229   0.000  0.00  0.00    +0.000 N 
ENDBRANCH  31  34
ENDBRANCH   7  30
TORSDOF 4
