REMARK  Name = 
REMARK  6 active torsions:
REMARK  status: ('A' for Active; 'I' for Inactive)
REMARK    1  A    between atoms: C_2  and  C_4
REMARK    2  A    between atoms: C_3  and  C_5
REMARK    3  A    between atoms: C_4  and  C_6
REMARK    4  A    between atoms: C_5  and  C_7
REMARK    5  A    between atoms: C_6  and  C_7
REMARK    6  A    between atoms: C_7  and  O_13
REMARK                            x       y       z     vdW  Elec       q    Type
REMARK                         _______ _______ _______ _____ _____    ______ ____
ROOT
ATOM      1  C   UNL     1       2.666   0.715   0.000  0.00  0.00    +0.000 C 
ENDROOT
BRANCH   1   3
ATOM      2  C   UNL     1       1.952  -0.523   0.000  0.00  0.00    +0.000 C 
ATOM      3  O   UNL     1       2.666  -0.111   0.000  0.00  0.00    +0.000 OA
ENDBRANCH   1   3
BRANCH   1   4
ATOM      4  C   UNL     1       3.381   1.127   0.000  0.00  0.00    +0.000 C 
ATOM      5  O   UNL     1       3.381   1.952   0.000  0.00  0.00    +0.000 OA
BRANCH   4   6
ATOM      6  C   UNL     1       4.095   0.715   0.000  0.00  0.00    +0.000 C 
ATOM      7  O   UNL     1       4.810   1.127   0.000  0.00  0.00    +0.000 OA
ENDBRANCH   4   6
ENDBRANCH   1   4
BRANCH   1   8
ATOM      8  C   UNL     1       1.952   1.127   0.000  0.00  0.00    +0.000 C 
ATOM      9  O   UNL     1       1.952   1.952   0.000  0.00  0.00    +0.000 OA
BRANCH   8  10
ATOM     10  C   UNL     1       1.238   0.715   0.000  0.00  0.00    +0.000 C 
ATOM     11  O   UNL     1       1.238  -0.111   0.000  0.00  0.00    +0.000 OA
BRANCH  10  12
ATOM     12  C   UNL     1       0.523   1.127   0.000  0.00  0.00    +0.000 C 
ATOM     13  O   UNL     1      -0.191   0.715   0.000  0.00  0.00    +0.000 OA
ENDBRANCH  10  12
ENDBRANCH   8  10
ENDBRANCH   1   8
TORSDOF 6
