REMARK  Name = 
REMARK  4 active torsions:
REMARK  status: ('A' for Active; 'I' for Inactive)
REMARK    1  A    between atoms: C_17  and  C_18
REMARK    2  A    between atoms: C_18  and  C_19
REMARK    3  A    between atoms: C_19  and  C_21
REMARK    4  A    between atoms: C_21  and  C_22
REMARK                            x       y       z     vdW  Elec       q    Type
REMARK                         _______ _______ _______ _____ _____    ______ ____
ROOT
ATOM      1  C   UNL     1       9.631 -19.489   0.000  0.00  0.00    +0.000 C 
ATOM      2  C   UNL     1       9.631 -20.314   0.000  0.00  0.00    +0.000 C 
ATOM      3  C   UNL     1      10.346 -20.727   0.000  0.00  0.00    +0.000 C 
ATOM      4  C   UNL     1      11.060 -20.314   0.000  0.00  0.00    +0.000 C 
ATOM      5  C   UNL     1      11.060 -19.489   0.000  0.00  0.00    +0.000 C 
ATOM      6  C   UNL     1      10.346 -19.077   0.000  0.00  0.00    +0.000 C 
ATOM      7  C   UNL     1      11.775 -20.727   0.000  0.00  0.00    +0.000 C 
ATOM      8  C   UNL     1      12.489 -20.314   0.000  0.00  0.00    +0.000 C 
ATOM      9  C   UNL     1      12.489 -19.489   0.000  0.00  0.00    +0.000 C 
ATOM     10  C   UNL     1      11.775 -19.077   0.000  0.00  0.00    +0.000 C 
ATOM     11  C   UNL     1      13.204 -19.077   0.000  0.00  0.00    +0.000 C 
ATOM     12  C   UNL     1      13.204 -18.252   0.000  0.00  0.00    +0.000 C 
ATOM     13  C   UNL     1      12.489 -17.839   0.000  0.00  0.00    +0.000 C 
ATOM     14  C   UNL     1      11.775 -18.252   0.000  0.00  0.00    +0.000 C 
ATOM     15  C   UNL     1      13.989 -19.332   0.000  0.00  0.00    +0.000 C 
ATOM     16  C   UNL     1      14.473 -18.664   0.000  0.00  0.00    +0.000 C 
ATOM     17  C   UNL     1      13.989 -17.997   0.000  0.00  0.00    +0.000 C 
ATOM     18  C   UNL     1      13.290 -17.434   0.000  0.00  0.00    +0.000 C 
ATOM     19  C   UNL     1      11.060 -18.667   0.000  0.00  0.00    +0.000 C 
ATOM     20  C   UNL     1      13.290 -19.895   0.000  0.00  0.00    +0.000 C 
ATOM     21  O   UNL     1       8.919 -20.726   0.000  0.00  0.00    +0.000 OA
ATOM     22  C   UNL     1      10.346 -21.549   0.000  0.00  0.00    +0.000 C 
ATOM     23  C   UNL     1       9.634 -21.138   0.000  0.00  0.00    +0.000 C 
ENDROOT
BRANCH  17  24
ATOM     24  C   UNL     1      14.242 -17.215   0.000  0.00  0.00    +0.000 C 
ATOM     25  C   UNL     1      13.692 -16.604   0.000  0.00  0.00    +0.000 C 
BRANCH  24  26
ATOM     26  C   UNL     1      15.047 -17.044   0.000  0.00  0.00    +0.000 C 
BRANCH  26  27
ATOM     27  C   UNL     1      15.597 -17.655   0.000  0.00  0.00    +0.000 C 
BRANCH  27  28
ATOM     28  C   UNL     1      16.401 -17.484   0.000  0.00  0.00    +0.000 C 
ATOM     29  C   UNL     1      16.951 -18.095   0.000  0.00  0.00    +0.000 C 
ATOM     30  C   UNL     1      16.697 -18.877   0.000  0.00  0.00    +0.000 C 
ATOM     31  C   UNL     1      17.756 -17.924   0.000  0.00  0.00    +0.000 C 
ENDBRANCH  27  28
ENDBRANCH  26  27
ENDBRANCH  24  26
ENDBRANCH  17  24
TORSDOF 4
