REMARK  Name = 
REMARK  3 active torsions:
REMARK  status: ('A' for Active; 'I' for Inactive)
REMARK    1  A    between atoms: C_1  and  N_19
REMARK    2  A    between atoms: C_15  and  N_20
REMARK    3  A    between atoms: C_17  and  C_33
REMARK                            x       y       z     vdW  Elec       q    Type
REMARK                         _______ _______ _______ _____ _____    ______ ____
ROOT
ATOM      1  C   UNL     1      11.161  -9.551   0.000  0.00  0.00    +0.000 A 
ATOM      2  C   UNL     1      10.447  -9.963   0.000  0.00  0.00    +0.000 A 
ATOM      3  C   UNL     1      10.447 -10.788   0.000  0.00  0.00    +0.000 A 
ATOM      4  C   UNL     1      11.161 -11.201   0.000  0.00  0.00    +0.000 A 
ATOM      5  C   UNL     1      11.876 -10.788   0.000  0.00  0.00    +0.000 A 
ATOM      6  C   UNL     1      11.876  -9.963   0.000  0.00  0.00    +0.000 A 
ATOM      7  C   UNL     1      12.590  -9.551   0.000  0.00  0.00    +0.000 C 
ATOM      8  C   UNL     1      12.590 -11.201   0.000  0.00  0.00    +0.000 C 
ATOM      9  C   UNL     1      13.305 -10.788   0.000  0.00  0.00    +0.000 C 
ATOM     10  C   UNL     1      13.305  -9.963   0.000  0.00  0.00    +0.000 C 
ATOM     11  C   UNL     1      14.019  -9.551   0.000  0.00  0.00    +0.000 C 
ATOM     12  C   UNL     1      14.019 -11.201   0.000  0.00  0.00    +0.000 C 
ATOM     13  C   UNL     1      14.734 -10.788   0.000  0.00  0.00    +0.000 C 
ATOM     14  C   UNL     1      14.734  -9.963   0.000  0.00  0.00    +0.000 C 
ATOM     15  C   UNL     1      15.448  -9.551   0.000  0.00  0.00    +0.000 C 
ATOM     16  C   UNL     1      15.448 -11.201   0.000  0.00  0.00    +0.000 C 
ATOM     17  C   UNL     1      16.163 -10.788   0.000  0.00  0.00    +0.000 C 
ATOM     18  C   UNL     1      16.163  -9.963   0.000  0.00  0.00    +0.000 C 
ATOM     19  O   UNL     1      14.734 -11.613   0.000  0.00  0.00    +0.000 OA
ATOM     20  O   UNL     1      16.877  -9.551   0.000  0.00  0.00    +0.000 OA
ATOM     21  O   UNL     1      11.161 -12.026   0.000  0.00  0.00    +0.000 OA
ATOM     22  O   UNL     1      12.590 -12.026   0.000  0.00  0.00    +0.000 OA
ATOM     23  O   UNL     1      14.019 -12.026   0.000  0.00  0.00    +0.000 OA
ATOM     24  O   UNL     1      15.448 -12.026   0.000  0.00  0.00    +0.000 OA
ENDROOT
BRANCH   1  25
ATOM     25  N   UNL     1      11.161  -8.726   0.000  0.00  0.00    +0.000 N 
ATOM     26  C   UNL     1      11.876  -8.313   0.000  0.00  0.00    +0.000 C 
ATOM     27  C   UNL     1      10.447  -8.313   0.000  0.00  0.00    +0.000 C 
ENDBRANCH   1  25
BRANCH  15  28
ATOM     28  N   UNL     1      15.448  -8.726   0.000  0.00  0.00    +0.000 NA
ATOM     29  C   UNL     1      16.163  -8.313   0.000  0.00  0.00    +0.000 C 
ATOM     30  C   UNL     1      14.734  -8.313   0.000  0.00  0.00    +0.000 C 
ENDBRANCH  15  28
BRANCH  17  31
ATOM     31  C   UNL     1      16.877 -11.201   0.000  0.00  0.00    +0.000 C 
ATOM     32  O   UNL     1      16.877 -12.026   0.000  0.00  0.00    +0.000 OA
ATOM     33  N   UNL     1      17.591 -10.788   0.000  0.00  0.00    +0.000 NA
ENDBRANCH  17  31
TORSDOF 3
