REMARK  Name = 
REMARK  10 active torsions:
REMARK  status: ('A' for Active; 'I' for Inactive)
REMARK    1  A    between atoms: N_7  and  C_22
REMARK    2  A    between atoms: N_8  and  C_20
REMARK    3  A    between atoms: N_9  and  C_34
REMARK    4  A    between atoms: C_14  and  C_18
REMARK    5  A    between atoms: C_19  and  C_20
REMARK    6  A    between atoms: C_20  and  C_21
REMARK    7  A    between atoms: C_22  and  C_23
REMARK    8  A    between atoms: C_22  and  C_28
REMARK    9  A    between atoms: C_23  and  C_24
REMARK   10  A    between atoms: C_28  and  C_33
REMARK                            x       y       z     vdW  Elec       q    Type
REMARK                         _______ _______ _______ _____ _____    ______ ____
ROOT
ATOM      1  O   UNL     1       4.840  -0.314   0.000  0.00  0.00    +0.000 OA
ATOM      2  N   UNL     1       6.077  -1.029   0.000  0.00  0.00    +0.000 N 
ATOM      3  C   UNL     1       7.347  -0.616   0.000  0.00  0.00    +0.000 C 
ATOM      4  C   UNL     1       8.062  -1.029   0.000  0.00  0.00    +0.000 C 
ATOM      5  C   UNL     1       7.347  -1.441   0.000  0.00  0.00    +0.000 C 
ATOM      6  C   UNL     1       6.562  -0.361   0.000  0.00  0.00    +0.000 C 
ATOM      7  C   UNL     1       6.562  -1.696   0.000  0.00  0.00    +0.000 C 
ATOM      8  C   UNL     1       8.474  -1.743   0.000  0.00  0.00    +0.000 C 
ATOM      9  C   UNL     1       8.474  -0.314   0.000  0.00  0.00    +0.000 C 
ATOM     10  C   UNL     1       5.252  -1.029   0.000  0.00  0.00    +0.000 C 
ENDROOT
BRANCH   6  13
ATOM     11  O   UNL     1       5.500   0.595   0.000  0.00  0.00    +0.000 OA
ATOM     12  N   UNL     1       6.859   1.036   0.000  0.00  0.00    +0.000 NA
ATOM     13  C   UNL     1       6.307   0.423   0.000  0.00  0.00    +0.000 C 
BRANCH  12  14
ATOM     14  C   UNL     1       6.604   1.821   0.000  0.00  0.00    +0.000 C 
BRANCH  14  16
ATOM     15  O   UNL     1       6.901   3.219   0.000  0.00  0.00    +0.000 OA
ATOM     16  C   UNL     1       7.156   2.434   0.000  0.00  0.00    +0.000 C 
BRANCH  16  19
ATOM     17  O   UNL     1       8.218   1.478   0.000  0.00  0.00    +0.000 OA
ATOM     18  N   UNL     1       8.515   2.876   0.000  0.00  0.00    +0.000 NA
ATOM     19  C   UNL     1       7.963   2.263   0.000  0.00  0.00    +0.000 C 
ENDBRANCH  16  19
ENDBRANCH  14  16
BRANCH  14  20
ATOM     20  C   UNL     1       5.797   1.992   0.000  0.00  0.00    +0.000 C 
BRANCH  20  21
ATOM     21  C   UNL     1       5.542   2.777   0.000  0.00  0.00    +0.000 C 
ATOM     22  C   UNL     1       5.917   3.512   0.000  0.00  0.00    +0.000 C 
ATOM     23  C   UNL     1       4.807   3.152   0.000  0.00  0.00    +0.000 C 
ATOM     24  C   UNL     1       5.182   3.887   0.000  0.00  0.00    +0.000 C 
ENDBRANCH  20  21
ENDBRANCH  14  20
ENDBRANCH  12  14
ENDBRANCH   6  13
BRANCH  10  25
ATOM     25  C   UNL     1       4.840  -1.743   0.000  0.00  0.00    +0.000 C 
BRANCH  25  27
ATOM     26  O   UNL     1       4.014  -3.172   0.000  0.00  0.00    +0.000 OA
ATOM     27  N   UNL     1       4.014  -1.743   0.000  0.00  0.00    +0.000 NA
ATOM     28  N   UNL     1       2.777  -2.458   0.000  0.00  0.00    +0.000 NA
ATOM     29  C   UNL     1       3.602  -2.458   0.000  0.00  0.00    +0.000 C 
BRANCH  28  30
ATOM     30  C   UNL     1       2.365  -3.172   0.000  0.00  0.00    +0.000 C 
ATOM     31  C   UNL     1       1.952  -3.887   0.000  0.00  0.00    +0.000 C 
ATOM     32  C   UNL     1       1.650  -2.760   0.000  0.00  0.00    +0.000 C 
ATOM     33  C   UNL     1       3.079  -3.585   0.000  0.00  0.00    +0.000 C 
ENDBRANCH  28  30
ENDBRANCH  25  27
BRANCH  25  34
ATOM     34  C   UNL     1       5.252  -2.458   0.000  0.00  0.00    +0.000 C 
ATOM     35  C   UNL     1       5.665  -3.172   0.000  0.00  0.00    +0.000 C 
ATOM     36  C   UNL     1       4.538  -2.870   0.000  0.00  0.00    +0.000 C 
ATOM     37  C   UNL     1       5.967  -2.045   0.000  0.00  0.00    +0.000 C 
ENDBRANCH  25  34
ENDBRANCH  10  25
TORSDOF 10
