REMARK  Name = 
REMARK  4 active torsions:
REMARK  status: ('A' for Active; 'I' for Inactive)
REMARK    1  A    between atoms: C_2  and  C_3
REMARK    2  A    between atoms: C_2  and  C_7
REMARK    3  A    between atoms: C_3  and  C_4
REMARK    4  A    between atoms: C_7  and  C_8
REMARK                            x       y       z     vdW  Elec       q    Type
REMARK                         _______ _______ _______ _____ _____    ______ ____
ROOT
ATOM      1  O   UNL     1       3.904   0.604   0.000  0.00  0.00    +0.000 OA
ATOM      2  C   UNL     1       3.904   1.429   0.000  0.00  0.00    +0.000 C 
ENDROOT
BRANCH   2   3
ATOM      3  C   UNL     1       3.189   1.841   0.000  0.00  0.00    +0.000 C 
BRANCH   3   4
ATOM      4  C   UNL     1       2.475   1.429   0.000  0.00  0.00    +0.000 C 
ATOM      5  O   UNL     1       1.760   1.841   0.000  0.00  0.00    +0.000 OA
ATOM      6  O   UNL     1       2.475   0.604   0.000  0.00  0.00    +0.000 OA
ENDBRANCH   3   4
ENDBRANCH   2   3
BRANCH   2   7
ATOM      7  C   UNL     1       4.618   1.841   0.000  0.00  0.00    +0.000 C 
BRANCH   7   8
ATOM      8  C   UNL     1       5.333   1.429   0.000  0.00  0.00    +0.000 C 
ATOM      9  O   UNL     1       6.047   1.841   0.000  0.00  0.00    +0.000 OA
ATOM     10  O   UNL     1       5.333   0.604   0.000  0.00  0.00    +0.000 OA
ENDBRANCH   7   8
ENDBRANCH   2   7
TORSDOF 4
