REMARK  Name = 
REMARK  12 active torsions:
REMARK  status: ('A' for Active; 'I' for Inactive)
REMARK    1  A    between atoms: C_4  and  C_5
REMARK    2  A    between atoms: C_4  and  C_6
REMARK    3  A    between atoms: C_5  and  C_7
REMARK    4  A    between atoms: C_6  and  C_13
REMARK    5  A    between atoms: C_7  and  C_17
REMARK    6  A    between atoms: C_8  and  C_13
REMARK    7  A    between atoms: C_8  and  C_14
REMARK    8  A    between atoms: C_9  and  C_15
REMARK    9  A    between atoms: C_10  and  C_18
REMARK   10  A    between atoms: C_11  and  C_16
REMARK   11  A    between atoms: C_12  and  C_16
REMARK   12  A    between atoms: C_16  and  C_17
REMARK                            x       y       z     vdW  Elec       q    Type
REMARK                         _______ _______ _______ _____ _____    ______ ____
ROOT
ATOM      1  C   UNL     1       5.399   0.315   0.000  0.00  0.00    +0.000 C 
ATOM      2  C   UNL     1       5.597  -0.486   0.000  0.00  0.00    +0.000 C 
ENDROOT
BRANCH   2   3
ATOM      3  C   UNL     1       6.390  -0.715   0.000  0.00  0.00    +0.000 C 
BRANCH   3   6
ATOM      4  C   UNL     1       6.786   0.658   0.000  0.00  0.00    +0.000 C 
ATOM      5  C   UNL     1       7.777  -0.371   0.000  0.00  0.00    +0.000 C 
ATOM      6  C   UNL     1       6.984  -0.142   0.000  0.00  0.00    +0.000 C 
BRANCH   5   9
ATOM      7  C   UNL     1       8.173   1.002   0.000  0.00  0.00    +0.000 C 
ATOM      8  C   UNL     1       9.164  -0.028   0.000  0.00  0.00    +0.000 C 
ATOM      9  C   UNL     1       8.371   0.201   0.000  0.00  0.00    +0.000 C 
BRANCH   8  10
ATOM     10  C   UNL     1       9.758   0.544   0.000  0.00  0.00    +0.000 C 
ATOM     11  O   UNL     1       9.560   1.345   0.000  0.00  0.00    +0.000 OA
ATOM     12  O   UNL     1      10.551   0.315   0.000  0.00  0.00    +0.000 OA
ENDBRANCH   8  10
ENDBRANCH   5   9
ENDBRANCH   3   6
ENDBRANCH   2   3
BRANCH   2  13
ATOM     13  C   UNL     1       5.003  -1.058   0.000  0.00  0.00    +0.000 C 
BRANCH  13  14
ATOM     14  C   UNL     1       4.210  -0.829   0.000  0.00  0.00    +0.000 C 
BRANCH  14  15
ATOM     15  C   UNL     1       3.615  -1.401   0.000  0.00  0.00    +0.000 C 
BRANCH  15  16
ATOM     16  C   UNL     1       2.823  -1.172   0.000  0.00  0.00    +0.000 C 
BRANCH  16  17
ATOM     17  C   UNL     1       2.228  -1.744   0.000  0.00  0.00    +0.000 C 
ATOM     18  O   UNL     1       2.426  -2.545   0.000  0.00  0.00    +0.000 OA
BRANCH  17  19
ATOM     19  C   UNL     1       1.436  -1.515   0.000  0.00  0.00    +0.000 C 
BRANCH  19  20
ATOM     20  C   UNL     1       0.841  -2.087   0.000  0.00  0.00    +0.000 C 
ATOM     21  O   UNL     1       0.049  -1.859   0.000  0.00  0.00    +0.000 OA
ENDBRANCH  19  20
BRANCH  19  22
ATOM     22  C   UNL     1       1.238  -0.715   0.000  0.00  0.00    +0.000 C 
ATOM     23  O   UNL     1       1.832  -0.142   0.000  0.00  0.00    +0.000 OA
ENDBRANCH  19  22
ENDBRANCH  17  19
ENDBRANCH  16  17
ENDBRANCH  15  16
ENDBRANCH  14  15
ENDBRANCH  13  14
ENDBRANCH   2  13
TORSDOF 12
