REMARK  Name = 
REMARK  18 active torsions:
REMARK  status: ('A' for Active; 'I' for Inactive)
REMARK    1  A    between atoms: C_6  and  C_20
REMARK    2  A    between atoms: C_7  and  C_33
REMARK    3  A    between atoms: C_9  and  C_57
REMARK    4  A    between atoms: S_15  and  O_34
REMARK    5  A    between atoms: C_20  and  C_36
REMARK    6  A    between atoms: C_23  and  C_48
REMARK    7  A    between atoms: C_24  and  C_51
REMARK    8  A    between atoms: C_27  and  N_32
REMARK    9  A    between atoms: C_28  and  O_34
REMARK   10  A    between atoms: C_29  and  C_49
REMARK   11  A    between atoms: C_33  and  C_35
REMARK   12  A    between atoms: C_35  and  C_43
REMARK   13  A    between atoms: C_36  and  C_37
REMARK   14  A    between atoms: C_75  and  O_83
REMARK   15  A    between atoms: O_83  and  C_85
REMARK   16  A    between atoms: C_85  and  C_86
REMARK   17  A    between atoms: C_86  and  C_88
REMARK   18  A    between atoms: C_87  and  C_88
REMARK                            x       y       z     vdW  Elec       q    Type
REMARK                         _______ _______ _______ _____ _____    ______ ____
ROOT
ATOM      1  N   UNL     1       0.866  -1.434   0.000  0.00  0.00    +0.000 N 
ATOM      2  N   UNL     1       4.076  -4.017   0.000  0.00  0.00    +0.000 N 
ATOM      3  C   UNL     1       1.236  -0.698   0.000  0.00  0.00    +0.000 C 
ATOM      4  C   UNL     1       1.239  -2.166   0.000  0.00  0.00    +0.000 C 
ATOM      5  C   UNL     1       4.081  -3.187   0.000  0.00  0.00    +0.000 C 
ATOM      6  C   UNL     1       1.105  -5.025   0.000  0.00  0.00    +0.000 C 
ATOM      7  C   UNL     1       0.792  -2.856   0.000  0.00  0.00    +0.000 C 
ATOM      8  C   UNL     1       1.952  -0.289   0.000  0.00  0.00    +0.000 C 
ATOM      9  C   UNL     1       4.796  -2.782   0.000  0.00  0.00    +0.000 C 
ATOM     10  N   UNL     1       1.172  -3.598   0.000  0.00  0.00    +0.000 NA
ATOM     11  N   UNL     1       2.010  -4.788   0.000  0.00  0.00    +0.000 NA
ATOM     12  N   UNL     1       4.801  -1.952   0.000  0.00  0.00    +0.000 NA
ATOM     13  C   UNL     1       0.725  -4.288   0.000  0.00  0.00    +0.000 C 
ATOM     14  N   UNL     1       2.664  -0.702   0.000  0.00  0.00    +0.000 NA
ATOM     15  C   UNL     1       2.625  -4.237   0.000  0.00  0.00    +0.000 C 
ATOM     16  C   UNL     1       3.408  -4.496   0.000  0.00  0.00    +0.000 C 
ATOM     17  C   UNL     1       5.521  -1.544   0.000  0.00  0.00    +0.000 C 
ATOM     18  C   UNL     1       0.041  -1.397   0.000  0.00  0.00    +0.000 C 
ATOM     19  C   UNL     1       0.650  -0.115   0.000  0.00  0.00    +0.000 C 
ATOM     20  C   UNL     1       5.520  -0.721   0.000  0.00  0.00    +0.000 C 
ATOM     21  C   UNL     1       3.385  -0.293   0.000  0.00  0.00    +0.000 C 
ATOM     22  C   UNL     1      -0.087  -0.496   0.000  0.00  0.00    +0.000 C 
ATOM     23  C   UNL     1       4.812  -0.305   0.000  0.00  0.00    +0.000 C 
ATOM     24  C   UNL     1       4.739  -4.506   0.000  0.00  0.00    +0.000 C 
ATOM     25  C   UNL     1       3.659  -5.281   0.000  0.00  0.00    +0.000 C 
ATOM     26  C   UNL     1       4.092  -0.714   0.000  0.00  0.00    +0.000 C 
ATOM     27  O   UNL     1       3.369  -2.770   0.000  0.00  0.00    +0.000 OA
ATOM     28  O   UNL     1       2.068  -2.204   0.000  0.00  0.00    +0.000 OA
ATOM     29  O   UNL     1       1.956   0.537   0.000  0.00  0.00    +0.000 OA
ATOM     30  O   UNL     1      -0.096  -4.251   0.000  0.00  0.00    +0.000 OA
ATOM     31  O   UNL     1       2.458  -3.428   0.000  0.00  0.00    +0.000 OA
ATOM     32  O   UNL     1       6.228  -1.964   0.000  0.00  0.00    +0.000 OA
ATOM     33  C   UNL     1       4.480  -5.289   0.000  0.00  0.00    +0.000 C 
ATOM     34  O   UNL     1       0.775   0.701   0.000  0.00  0.00    +0.000 OA
ATOM     35  O   UNL     1       3.384   0.529   0.000  0.00  0.00    +0.000 OA
ATOM     36  O   UNL     1       4.088  -1.539   0.000  0.00  0.00    +0.000 OA
ATOM     37  O   UNL     1       4.959  -5.961   0.000  0.00  0.00    +0.000 OA
ATOM     38  C   UNL     1      -0.818  -0.118   0.000  0.00  0.00    +0.000 C 
ENDROOT
BRANCH  20  40
ATOM     39  C   UNL     1       6.948  -0.733   0.000  0.00  0.00    +0.000 C 
ATOM     40  N   UNL     1       6.241  -0.313   0.000  0.00  0.00    +0.000 NA
ATOM     41  O   UNL     1       6.948  -1.560   0.000  0.00  0.00    +0.000 OA
BRANCH  39  42
ATOM     42  C   UNL     1       7.668  -0.325   0.000  0.00  0.00    +0.000 A 
ATOM     43  C   UNL     1       9.096   0.490   0.000  0.00  0.00    +0.000 A 
ATOM     44  C   UNL     1       7.667   0.498   0.000  0.00  0.00    +0.000 A 
ATOM     45  C   UNL     1       8.376  -0.741   0.000  0.00  0.00    +0.000 A 
ATOM     46  C   UNL     1       9.096  -0.332   0.000  0.00  0.00    +0.000 A 
ATOM     47  C   UNL     1       8.384   0.907   0.000  0.00  0.00    +0.000 A 
BRANCH  43  51
ATOM     48  N   UNL     1       9.904   1.720   0.000  0.00  0.00    +0.000 NA
ATOM     49  C   UNL     1      10.569   0.556   0.000  0.00  0.00    +0.000 A 
ATOM     50  C   UNL     1      11.122   1.167   0.000  0.00  0.00    +0.000 A 
ATOM     51  C   UNL     1       9.816   0.898   0.000  0.00  0.00    +0.000 A 
ATOM     52  O   UNL     1      10.713   1.887   0.000  0.00  0.00    +0.000 OA
BRANCH  50  53
ATOM     53  C   UNL     1      11.939   1.079   0.000  0.00  0.00    +0.000 A 
ATOM     54  C   UNL     1      12.424   1.739   0.000  0.00  0.00    +0.000 A 
ATOM     55  C   UNL     1      12.270   0.321   0.000  0.00  0.00    +0.000 A 
ATOM     56  C   UNL     1      13.580   0.892   0.000  0.00  0.00    +0.000 A 
ATOM     57  C   UNL     1      13.245   1.651   0.000  0.00  0.00    +0.000 A 
ATOM     58  C   UNL     1      13.090   0.225   0.000  0.00  0.00    +0.000 A 
BRANCH  56  59
ATOM     59  O   UNL     1      14.402   0.804   0.000  0.00  0.00    +0.000 OA
BRANCH  59  60
ATOM     60  C   UNL     1      14.733   0.049   0.000  0.00  0.00    +0.000 C 
BRANCH  60  61
ATOM     61  C   UNL     1      14.248  -0.615   0.000  0.00  0.00    +0.000 C 
BRANCH  61  62
ATOM     62  C   UNL     1      14.579  -1.373   0.000  0.00  0.00    +0.000 C 
BRANCH  62  63
ATOM     63  C   UNL     1      14.093  -2.041   0.000  0.00  0.00    +0.000 C 
ATOM     64  C   UNL     1      14.425  -2.792   0.000  0.00  0.00    +0.000 C 
ENDBRANCH  62  63
ENDBRANCH  61  62
ENDBRANCH  60  61
ENDBRANCH  59  60
ENDBRANCH  56  59
ENDBRANCH  50  53
ENDBRANCH  43  51
ENDBRANCH  39  42
ENDBRANCH  20  40
BRANCH   9  65
ATOM     65  C   UNL     1       5.508  -3.199   0.000  0.00  0.00    +0.000 C 
ATOM     66  O   UNL     1       6.224  -2.790   0.000  0.00  0.00    +0.000 OA
ATOM     67  C   UNL     1       5.505  -4.020   0.000  0.00  0.00    +0.000 C 
ENDBRANCH   9  65
BRANCH   6  68
ATOM     68  C   UNL     1       0.771  -5.775   0.000  0.00  0.00    +0.000 C 
ATOM     69  O   UNL     1       1.255  -6.444   0.000  0.00  0.00    +0.000 OA
BRANCH  68  70
ATOM     70  C   UNL     1      -0.048  -5.865   0.000  0.00  0.00    +0.000 C 
ATOM     71  O   UNL     1      -0.532  -5.197   0.000  0.00  0.00    +0.000 OA
BRANCH  70  73
ATOM     72  C   UNL     1      -1.543  -7.454   0.000  0.00  0.00    +0.000 A 
ATOM     73  C   UNL     1      -0.391  -6.618   0.000  0.00  0.00    +0.000 A 
ATOM     74  C   UNL     1      -1.205  -6.700   0.000  0.00  0.00    +0.000 A 
ATOM     75  C   UNL     1      -1.055  -8.123   0.000  0.00  0.00    +0.000 A 
ATOM     76  C   UNL     1       0.102  -7.279   0.000  0.00  0.00    +0.000 A 
ATOM     77  C   UNL     1      -0.232  -8.034   0.000  0.00  0.00    +0.000 A 
ATOM     78  O   UNL     1      -1.394  -8.872   0.000  0.00  0.00    +0.000 OA
BRANCH  72  79
ATOM     79  O   UNL     1      -2.365  -7.534   0.000  0.00  0.00    +0.000 OA
BRANCH  79  80
ATOM     80  S   UNL     1      -2.696  -8.293   0.000  0.00  0.00    +0.000 S 
ATOM     81  O   UNL     1      -1.943  -8.632   0.000  0.00  0.00    +0.000 OA
ATOM     82  O   UNL     1      -3.455  -7.962   0.000  0.00  0.00    +0.000 OA
ATOM     83  O   UNL     1      -3.038  -9.038   0.000  0.00  0.00    +0.000 OA
ENDBRANCH  79  80
ENDBRANCH  72  79
ENDBRANCH  70  73
ENDBRANCH  68  70
ENDBRANCH   6  68
BRANCH   7  84
ATOM     84  C   UNL     1      -0.029  -2.820   0.000  0.00  0.00    +0.000 C 
ATOM     85  O   UNL     1      -0.473  -3.519   0.000  0.00  0.00    +0.000 OA
BRANCH  84  86
ATOM     86  C   UNL     1      -0.407  -2.091   0.000  0.00  0.00    +0.000 C 
BRANCH  86  87
ATOM     87  C   UNL     1      -1.236  -2.053   0.000  0.00  0.00    +0.000 C 
ATOM     88  O   UNL     1      -1.675  -2.745   0.000  0.00  0.00    +0.000 OA
ATOM     89  N   UNL     1      -1.613  -1.321   0.000  0.00  0.00    +0.000 NA
ENDBRANCH  86  87
ENDBRANCH  84  86
ENDBRANCH   7  84
TORSDOF 18
