REMARK  Name = 
REMARK  3 active torsions:
REMARK  status: ('A' for Active; 'I' for Inactive)
REMARK    1  A    between atoms: C_1  and  C_3
REMARK    2  A    between atoms: C_2  and  C_3
REMARK    3  A    between atoms: C_3  and  C_4
REMARK                            x       y       z     vdW  Elec       q    Type
REMARK                         _______ _______ _______ _____ _____    ______ ____
ROOT
ATOM      1  C   UNL     1       1.238  -0.715   0.000  0.00  0.00    +0.000 C 
ENDROOT
BRANCH   1   2
ATOM      2  C   UNL     1       0.825   0.000   0.000  0.00  0.00    +0.000 C 
ATOM      3  O   UNL     1       1.238   0.715   0.000  0.00  0.00    +0.000 OA
ATOM      4  O   UNL     1       0.000   0.000   0.000  0.00  0.00    +0.000 OA
ENDBRANCH   1   2
BRANCH   1   5
ATOM      5  C   UNL     1       0.825  -1.429   0.000  0.00  0.00    +0.000 C 
ATOM      6  N   UNL     1       0.000  -1.429   0.000  0.00  0.00    +0.000 NA
ENDBRANCH   1   5
BRANCH   1   7
ATOM      7  C   UNL     1       2.062  -0.715   0.000  0.00  0.00    +0.000 C 
ATOM      8  O   UNL     1       2.475   0.000   0.000  0.00  0.00    +0.000 OA
ENDBRANCH   1   7
TORSDOF 3
