REMARK  Name = 
REMARK  4 active torsions:
REMARK  status: ('A' for Active; 'I' for Inactive)
REMARK    1  A    between atoms: C_16  and  C_17
REMARK    2  A    between atoms: C_17  and  C_18
REMARK    3  A    between atoms: C_18  and  C_19
REMARK    4  A    between atoms: C_19  and  C_20
REMARK                            x       y       z     vdW  Elec       q    Type
REMARK                         _______ _______ _______ _____ _____    ______ ____
ROOT
ATOM      1  C   UNL     1       7.696  -5.814   0.000  0.00  0.00    +0.000 C 
ATOM      2  C   UNL     1       8.404  -6.224   0.000  0.00  0.00    +0.000 A 
ATOM      3  C   UNL     1       6.980  -6.224   0.000  0.00  0.00    +0.000 C 
ATOM      4  C   UNL     1       7.699  -4.992   0.000  0.00  0.00    +0.000 C 
ATOM      5  C   UNL     1       8.404  -7.052   0.000  0.00  0.00    +0.000 A 
ATOM      6  C   UNL     1       9.120  -5.814   0.000  0.00  0.00    +0.000 A 
ATOM      7  C   UNL     1       6.980  -7.052   0.000  0.00  0.00    +0.000 C 
ATOM      8  C   UNL     1       6.267  -5.810   0.000  0.00  0.00    +0.000 C 
ATOM      9  C   UNL     1       6.983  -4.579   0.000  0.00  0.00    +0.000 C 
ATOM     10  O   UNL     1       7.696  -7.463   0.000  0.00  0.00    +0.000 OA
ATOM     11  C   UNL     1       9.120  -7.463   0.000  0.00  0.00    +0.000 A 
ATOM     12  C   UNL     1       9.829  -6.224   0.000  0.00  0.00    +0.000 A 
ATOM     13  O   UNL     1       9.120  -4.989   0.000  0.00  0.00    +0.000 OA
ATOM     14  C   UNL     1       6.267  -4.989   0.000  0.00  0.00    +0.000 C 
ATOM     15  C   UNL     1       6.987  -3.757   0.000  0.00  0.00    +0.000 C 
ATOM     16  C   UNL     1       9.829  -7.052   0.000  0.00  0.00    +0.000 A 
ATOM     17  C   UNL     1       6.980  -7.877   0.000  0.00  0.00    +0.000 C 
ATOM     18  C   UNL     1       6.265  -7.465   0.000  0.00  0.00    +0.000 C 
ENDROOT
BRANCH  16  19
ATOM     19  C   UNL     1      10.541  -7.463   0.000  0.00  0.00    +0.000 C 
BRANCH  19  20
ATOM     20  C   UNL     1      11.257  -7.049   0.000  0.00  0.00    +0.000 C 
BRANCH  20  21
ATOM     21  C   UNL     1      11.966  -7.459   0.000  0.00  0.00    +0.000 C 
BRANCH  21  22
ATOM     22  C   UNL     1      12.681  -7.049   0.000  0.00  0.00    +0.000 C 
ATOM     23  C   UNL     1      13.390  -7.459   0.000  0.00  0.00    +0.000 C 
ENDBRANCH  21  22
ENDBRANCH  20  21
ENDBRANCH  19  20
ENDBRANCH  16  19
TORSDOF 4
