REMARK  Name = 
REMARK  4 active torsions:
REMARK  status: ('A' for Active; 'I' for Inactive)
REMARK    1  A    between atoms: CA_6  and  CB_7
REMARK    2  A    between atoms: CA_6  and  C_9
REMARK    3  A    between atoms: CB_7  and  CG_8
REMARK    4  A    between atoms: CG_8  and  CD_10
REMARK                            x       y       z     vdW  Elec       q    Type
REMARK                         _______ _______ _______ _____ _____    ______ ____
ROOT
ATOM      1  N   GLN A   1      24.719 -12.329   0.000  0.00  0.00    +0.000 NA
ATOM      2  CA  GLN A   1      25.433 -12.741   0.000  0.00  0.00    +0.000 C 
ENDROOT
BRANCH   2   5
ATOM      3  O   GLN A   1      26.862 -12.741   0.000  0.00  0.00    +0.000 OA
ATOM      4  OXT GLN A   1      26.148 -11.504   0.000  0.00  0.00    +0.000 OA
ATOM      5  C   GLN A   1      26.148 -12.329   0.000  0.00  0.00    +0.000 C 
ENDBRANCH   2   5
BRANCH   2   6
ATOM      6  CB  GLN A   1      25.433 -13.566   0.000  0.00  0.00    +0.000 C 
BRANCH   6   7
ATOM      7  CG  GLN A   1      24.719 -13.979   0.000  0.00  0.00    +0.000 C 
BRANCH   7  10
ATOM      8  OE1 GLN A   1      25.433 -15.216   0.000  0.00  0.00    +0.000 OA
ATOM      9  NE2 GLN A   1      24.004 -15.216   0.000  0.00  0.00    +0.000 NA
ATOM     10  CD  GLN A   1      24.719 -14.804   0.000  0.00  0.00    +0.000 C 
ENDBRANCH   7  10
ENDBRANCH   6   7
ENDBRANCH   2   6
TORSDOF 4
