REMARK  Name = 
REMARK  0 active torsions:
REMARK  status: ('A' for Active; 'I' for Inactive)
REMARK                            x       y       z     vdW  Elec       q    Type
REMARK                         _______ _______ _______ _____ _____    ______ ____
ROOT
ATOM      1  C   UNL     1      13.772  -7.852   0.000  0.00  0.00    +0.000 A 
ATOM      2  C   UNL     1      13.772  -7.027   0.000  0.00  0.00    +0.000 A 
ATOM      3  C   UNL     1      13.057  -8.265   0.000  0.00  0.00    +0.000 A 
ATOM      4  C   UNL     1      13.057  -6.615   0.000  0.00  0.00    +0.000 A 
ATOM      5  C   UNL     1      12.343  -7.852   0.000  0.00  0.00    +0.000 A 
ATOM      6  C   UNL     1      12.343  -7.027   0.000  0.00  0.00    +0.000 A 
ATOM      7  N   UNL     1      15.201  -7.027   0.000  0.00  0.00    +0.000 NA
ATOM      8  C   UNL     1      15.201  -7.852   0.000  0.00  0.00    +0.000 A 
ATOM      9  N   UNL     1      14.486  -8.265   0.000  0.00  0.00    +0.000 NA
ATOM     10  C   UNL     1      11.620  -6.610   0.000  0.00  0.00    +0.000 C 
ATOM     11  C   UNL     1      11.620  -8.270   0.000  0.00  0.00    +0.000 C 
ENDROOT
TORSDOF 0
