REMARK  Name = 
REMARK  2 active torsions:
REMARK  status: ('A' for Active; 'I' for Inactive)
REMARK    1  A    between atoms: N_11  and  S_12
REMARK    2  A    between atoms: S_12  and  C_13
REMARK                            x       y       z     vdW  Elec       q    Type
REMARK                         _______ _______ _______ _____ _____    ______ ____
ROOT
ATOM      1  N   UNL     1      -1.886  -5.245   0.000  0.00  0.00    +0.000 NA
ATOM      2  C   UNL     1      -2.600  -5.657   0.000  0.00  0.00    +0.000 A 
ATOM      3  C   UNL     1      -2.600  -6.482   0.000  0.00  0.00    +0.000 A 
ATOM      4  N   UNL     1      -1.886  -6.895   0.000  0.00  0.00    +0.000 NA
ATOM      5  C   UNL     1      -1.171  -6.482   0.000  0.00  0.00    +0.000 A 
ATOM      6  C   UNL     1      -1.171  -5.657   0.000  0.00  0.00    +0.000 A 
ATOM      7  C   UNL     1      -0.457  -5.245   0.000  0.00  0.00    +0.000 A 
ATOM      8  C   UNL     1      -0.457  -6.895   0.000  0.00  0.00    +0.000 A 
ATOM      9  C   UNL     1       0.258  -6.482   0.000  0.00  0.00    +0.000 A 
ATOM     10  C   UNL     1       0.258  -5.657   0.000  0.00  0.00    +0.000 A 
ATOM     11  N   UNL     1      -3.315  -6.895   0.000  0.00  0.00    +0.000 NA
ENDROOT
BRANCH  11  12
ATOM     12  S   UNL     1      -4.029  -6.482   0.000  0.00  0.00    +0.000 S 
ATOM     13  O   UNL     1      -3.617  -5.768   0.000  0.00  0.00    +0.000 OA
ATOM     14  O   UNL     1      -4.442  -7.197   0.000  0.00  0.00    +0.000 OA
BRANCH  12  15
ATOM     15  C   UNL     1      -4.744  -6.070   0.000  0.00  0.00    +0.000 A 
ATOM     16  C   UNL     1      -5.458  -4.832   0.000  0.00  0.00    +0.000 A 
ATOM     17  C   UNL     1      -6.173  -5.245   0.000  0.00  0.00    +0.000 A 
ATOM     18  C   UNL     1      -6.173  -6.070   0.000  0.00  0.00    +0.000 A 
ATOM     19  C   UNL     1      -5.458  -6.482   0.000  0.00  0.00    +0.000 A 
ATOM     20  C   UNL     1      -4.744  -5.245   0.000  0.00  0.00    +0.000 A 
ATOM     21  N   UNL     1      -6.887  -4.832   0.000  0.00  0.00    +0.000 NA
ENDBRANCH  12  15
ENDBRANCH  11  12
TORSDOF 2
