REMARK  Name = 
REMARK  1 active torsions:
REMARK  status: ('A' for Active; 'I' for Inactive)
REMARK    1  A    between atoms: C_10  and  C_13
REMARK                            x       y       z     vdW  Elec       q    Type
REMARK                         _______ _______ _______ _____ _____    ______ ____
ROOT
ATOM      1  C   UNL     1       2.203   0.070   0.000  0.00  0.00    +0.000 C 
ATOM      2  C   UNL     1       0.702   3.253   0.000  0.00  0.00    +0.000 C 
ATOM      3  C   UNL     1       3.191   1.058   0.000  0.00  0.00    +0.000 A 
ATOM      4  C   UNL     1       0.472   1.801   0.000  0.00  0.00    +0.000 A 
ATOM      5  C   UNL     1       3.549   1.801   0.000  0.00  0.00    +0.000 A 
ATOM      6  C   UNL     1       0.957   1.134   0.000  0.00  0.00    +0.000 A 
ATOM      7  C   UNL     1       2.386   2.728   0.000  0.00  0.00    +0.000 A 
ATOM      8  C   UNL     1       2.386   0.874   0.000  0.00  0.00    +0.000 A 
ATOM      9  C   UNL     1       0.957   2.469   0.000  0.00  0.00    +0.000 A 
ATOM     10  C   UNL     1       3.191   2.544   0.000  0.00  0.00    +0.000 A 
ATOM     11  C   UNL     1       1.741   1.389   0.000  0.00  0.00    +0.000 A 
ATOM     12  C   UNL     1       1.741   2.214   0.000  0.00  0.00    +0.000 A 
ENDROOT
BRANCH  10  15
ATOM     13  C   UNL     1       3.404   3.957   0.000  0.00  0.00    +0.000 C 
ATOM     14  C   UNL     1       4.521   3.067   0.000  0.00  0.00    +0.000 C 
ATOM     15  C   UNL     1       3.705   3.189   0.000  0.00  0.00    +0.000 C 
ENDBRANCH  10  15
TORSDOF 1
