REMARK  Name = 
REMARK  6 active torsions:
REMARK  status: ('A' for Active; 'I' for Inactive)
REMARK    1  A    between atoms: C_7  and  C_22
REMARK    2  A    between atoms: C_9  and  C_10
REMARK    3  A    between atoms: C_10  and  N_13
REMARK    4  A    between atoms: C_14  and  C_16
REMARK    5  A    between atoms: N_24  and  C_25
REMARK    6  A    between atoms: C_25  and  C_26
REMARK                            x       y       z     vdW  Elec       q    Type
REMARK                         _______ _______ _______ _____ _____    ______ ____
ROOT
ATOM      1  C   UNL     1      -3.572  -2.888   0.000  0.00  0.00    +0.000 C 
ATOM      2  N   UNL     1      -2.858  -2.475   0.000  0.00  0.00    +0.000 N 
ATOM      3  C   UNL     1      -2.858  -1.650   0.000  0.00  0.00    +0.000 A 
ATOM      4  O   UNL     1      -3.572  -1.237   0.000  0.00  0.00    +0.000 OA
ATOM      5  C   UNL     1      -2.143  -1.237   0.000  0.00  0.00    +0.000 A 
ATOM      6  O   UNL     1      -2.143  -0.412   0.000  0.00  0.00    +0.000 OA
ATOM      7  C   UNL     1      -1.429  -1.650   0.000  0.00  0.00    +0.000 A 
ATOM      8  N   UNL     1      -1.429  -2.475   0.000  0.00  0.00    +0.000 NA
ATOM      9  C   UNL     1      -2.143  -2.888   0.000  0.00  0.00    +0.000 A 
ENDROOT
BRANCH   9  10
ATOM     10  C   UNL     1      -2.143  -3.712   0.000  0.00  0.00    +0.000 C 
ATOM     11  C   UNL     1      -1.318  -3.712   0.000  0.00  0.00    +0.000 C 
ATOM     12  C   UNL     1      -2.968  -3.712   0.000  0.00  0.00    +0.000 C 
BRANCH  10  13
ATOM     13  N   UNL     1      -2.143  -4.537   0.000  0.00  0.00    +0.000 NA
ATOM     14  C   UNL     1      -2.858  -4.950   0.000  0.00  0.00    +0.000 C 
ATOM     15  O   UNL     1      -3.572  -4.537   0.000  0.00  0.00    +0.000 OA
BRANCH  14  16
ATOM     16  C   UNL     1      -2.858  -5.775   0.000  0.00  0.00    +0.000 A 
ATOM     17  N   UNL     1      -2.190  -6.260   0.000  0.00  0.00    +0.000 NA
ATOM     18  N   UNL     1      -2.445  -7.045   0.000  0.00  0.00    +0.000 NA
ATOM     19  C   UNL     1      -3.270  -7.045   0.000  0.00  0.00    +0.000 A 
ATOM     20  C   UNL     1      -3.755  -7.712   0.000  0.00  0.00    +0.000 C 
ATOM     21  O   UNL     1      -3.525  -6.260   0.000  0.00  0.00    +0.000 OA
ENDBRANCH  14  16
ENDBRANCH  10  13
ENDBRANCH   9  10
BRANCH   7  22
ATOM     22  C   UNL     1      -0.715  -1.237   0.000  0.00  0.00    +0.000 C 
ATOM     23  O   UNL     1      -0.715  -0.412   0.000  0.00  0.00    +0.000 OA
ATOM     24  N   UNL     1       0.000  -1.650   0.000  0.00  0.00    +0.000 NA
BRANCH  24  25
ATOM     25  C   UNL     1       0.715  -1.237   0.000  0.00  0.00    +0.000 C 
BRANCH  25  26
ATOM     26  C   UNL     1       0.715  -0.412   0.000  0.00  0.00    +0.000 A 
ATOM     27  C   UNL     1       0.000   0.000   0.000  0.00  0.00    +0.000 A 
ATOM     28  C   UNL     1       0.000   0.825   0.000  0.00  0.00    +0.000 A 
ATOM     29  C   UNL     1       0.715   1.237   0.000  0.00  0.00    +0.000 A 
ATOM     30  F   UNL     1       0.715   2.062   0.000  0.00  0.00    +0.000 F 
ATOM     31  C   UNL     1       1.429   0.825   0.000  0.00  0.00    +0.000 A 
ATOM     32  C   UNL     1       1.429   0.000   0.000  0.00  0.00    +0.000 A 
ENDBRANCH  25  26
ENDBRANCH  24  25
ENDBRANCH   7  22
TORSDOF 6
