REMARK  Name = 
REMARK  2 active torsions:
REMARK  status: ('A' for Active; 'I' for Inactive)
REMARK    1  A    between atoms: C_11  and  C_24
REMARK    2  A    between atoms: C_24  and  O_26
REMARK                            x       y       z     vdW  Elec       q    Type
REMARK                         _______ _______ _______ _____ _____    ______ ____
ROOT
ATOM      1  C   UNL     1       9.380  -5.187   0.000  0.00  0.00    +0.000 C 
ATOM      2  C   UNL     1       9.376  -6.013   0.000  0.00  0.00    +0.000 C 
ATOM      3  O   UNL     1      10.093  -5.599   0.000  0.00  0.00    +0.000 OA
ATOM      4  C   UNL     1       7.230  -6.418   0.000  0.00  0.00    +0.000 C 
ATOM      5  C   UNL     1       7.230  -7.244   0.000  0.00  0.00    +0.000 C 
ATOM      6  C   UNL     1       7.947  -7.656   0.000  0.00  0.00    +0.000 C 
ATOM      7  C   UNL     1       7.947  -6.006   0.000  0.00  0.00    +0.000 C 
ATOM      8  C   UNL     1       8.659  -6.418   0.000  0.00  0.00    +0.000 C 
ATOM      9  C   UNL     1       8.655  -7.244   0.000  0.00  0.00    +0.000 C 
ATOM     10  C   UNL     1       9.368  -7.659   0.000  0.00  0.00    +0.000 C 
ATOM     11  C   UNL     1      10.084  -7.250   0.000  0.00  0.00    +0.000 C 
ATOM     12  C   UNL     1      10.084  -6.426   0.000  0.00  0.00    +0.000 C 
ATOM     13  C   UNL     1      10.098  -4.780   0.000  0.00  0.00    +0.000 C 
ATOM     14  C   UNL     1      10.807  -5.198   0.000  0.00  0.00    +0.000 C 
ATOM     15  C   UNL     1      10.801  -6.024   0.000  0.00  0.00    +0.000 C 
ATOM     16  C   UNL     1      11.585  -6.284   0.000  0.00  0.00    +0.000 C 
ATOM     17  C   UNL     1      12.075  -5.619   0.000  0.00  0.00    +0.000 C 
ATOM     18  C   UNL     1      11.594  -4.947   0.000  0.00  0.00    +0.000 C 
ATOM     19  O   UNL     1      12.418  -4.948   0.000  0.00  0.00    +0.000 OA
ATOM     20  C   UNL     1      12.674  -4.164   0.000  0.00  0.00    +0.000 C 
ATOM     21  C   UNL     1      12.007  -3.679   0.000  0.00  0.00    +0.000 C 
ATOM     22  C   UNL     1      11.340  -4.162   0.000  0.00  0.00    +0.000 C 
ATOM     23  O   UNL     1      13.459  -3.910   0.000  0.00  0.00    +0.000 OA
ATOM     24  O   UNL     1       6.516  -7.656   0.000  0.00  0.00    +0.000 OA
ATOM     25  C   UNL     1       8.651  -5.593   0.000  0.00  0.00    +0.000 C 
ATOM     26  C   UNL     1      10.801  -4.373   0.000  0.00  0.00    +0.000 C 
ENDROOT
BRANCH  11  27
ATOM     27  C   UNL     1      10.798  -7.664   0.000  0.00  0.00    +0.000 C 
ATOM     28  O   UNL     1      10.796  -8.489   0.000  0.00  0.00    +0.000 OA
BRANCH  27  29
ATOM     29  O   UNL     1      11.513  -7.253   0.000  0.00  0.00    +0.000 OA
ATOM     30  C   UNL     1      12.227  -7.667   0.000  0.00  0.00    +0.000 C 
ENDBRANCH  27  29
ENDBRANCH  11  27
TORSDOF 2
