REMARK  Name = 
REMARK  0 active torsions:
REMARK  status: ('A' for Active; 'I' for Inactive)
REMARK                            x       y       z     vdW  Elec       q    Type
REMARK                         _______ _______ _______ _____ _____    ______ ____
ROOT
ATOM      1  C   UNL     1      20.738 -13.936   0.000  0.00  0.00    +0.000 A 
ATOM      2  N   UNL     1      20.219 -14.578   0.000  0.00  0.00    +0.000 NA
ATOM      3  N   UNL     1      20.668 -15.269   0.000  0.00  0.00    +0.000 NA
ATOM      4  C   UNL     1      21.465 -15.056   0.000  0.00  0.00    +0.000 A 
ATOM      5  C   UNL     1      21.508 -14.232   0.000  0.00  0.00    +0.000 A 
ATOM      6  C   UNL     1      22.223 -13.820   0.000  0.00  0.00    +0.000 C 
ATOM      7  C   UNL     1      22.223 -15.470   0.000  0.00  0.00    +0.000 C 
ATOM      8  C   UNL     1      22.937 -15.057   0.000  0.00  0.00    +0.000 C 
ATOM      9  C   UNL     1      22.937 -14.232   0.000  0.00  0.00    +0.000 C 
ATOM     10  C   UNL     1      23.652 -13.820   0.000  0.00  0.00    +0.000 C 
ATOM     11  C   UNL     1      23.652 -15.470   0.000  0.00  0.00    +0.000 C 
ATOM     12  C   UNL     1      24.366 -15.057   0.000  0.00  0.00    +0.000 C 
ATOM     13  C   UNL     1      24.366 -14.232   0.000  0.00  0.00    +0.000 C 
ATOM     14  C   UNL     1      24.366 -12.582   0.000  0.00  0.00    +0.000 C 
ATOM     15  C   UNL     1      23.652 -12.995   0.000  0.00  0.00    +0.000 C 
ATOM     16  C   UNL     1      25.081 -13.820   0.000  0.00  0.00    +0.000 C 
ATOM     17  C   UNL     1      25.808 -12.700   0.000  0.00  0.00    +0.000 C 
ATOM     18  C   UNL     1      25.081 -12.995   0.000  0.00  0.00    +0.000 C 
ATOM     19  C   UNL     1      25.877 -14.033   0.000  0.00  0.00    +0.000 C 
ATOM     20  C   UNL     1      26.327 -13.341   0.000  0.00  0.00    +0.000 C 
ATOM     21  C   UNL     1      22.937 -13.407   0.000  0.00  0.00    +0.000 C 
ATOM     22  C   UNL     1      25.081 -12.170   0.000  0.00  0.00    +0.000 C 
ATOM     23  O   UNL     1      25.808 -11.875   0.000  0.00  0.00    +0.000 OA
ATOM     24  C   UNL     1      26.522 -12.288   0.000  0.00  0.00    +0.000 C 
ENDROOT
TORSDOF 0
