REMARK  Name = 
REMARK  2 active torsions:
REMARK  status: ('A' for Active; 'I' for Inactive)
REMARK    1  A    between atoms: N_2  and  C_23
REMARK    2  A    between atoms: C_23  and  C_24
REMARK                            x       y       z     vdW  Elec       q    Type
REMARK                         _______ _______ _______ _____ _____    ______ ____
ROOT
ATOM      1  C   UNL     1      -0.765   1.271   0.000  0.00  0.00    +0.000 C 
ATOM      2  N   UNL     1      -0.705   0.456   0.000  0.00  0.00    +0.000 N 
ATOM      3  C   UNL     1      -0.944  -0.363   0.000  0.00  0.00    +0.000 C 
ATOM      4  C   UNL     1      -0.147  -0.891   0.000  0.00  0.00    +0.000 C 
ATOM      5  C   UNL     1       0.710  -0.672   0.000  0.00  0.00    +0.000 C 
ATOM      6  C   UNL     1       0.715  -1.502   0.000  0.00  0.00    +0.000 C 
ATOM      7  O   UNL     1       1.537  -1.683   0.000  0.00  0.00    +0.000 OA
ATOM      8  C   UNL     1       1.987  -0.973   0.000  0.00  0.00    +0.000 A 
ATOM      9  C   UNL     1       2.776  -0.736   0.000  0.00  0.00    +0.000 A 
ATOM     10  O   UNL     1       3.360  -1.307   0.000  0.00  0.00    +0.000 OA
ATOM     11  C   UNL     1       2.997   0.061   0.000  0.00  0.00    +0.000 A 
ATOM     12  C   UNL     1       2.418   0.649   0.000  0.00  0.00    +0.000 A 
ATOM     13  C   UNL     1       1.613   0.477   0.000  0.00  0.00    +0.000 A 
ATOM     14  C   UNL     1       0.925   0.993   0.000  0.00  0.00    +0.000 C 
ATOM     15  C   UNL     1       0.138   0.673   0.000  0.00  0.00    +0.000 C 
ATOM     16  C   UNL     1       0.376  -0.078   0.000  0.00  0.00    +0.000 C 
ATOM     17  O   UNL     1       1.125   0.247   0.000  0.00  0.00    +0.000 OA
ATOM     18  C   UNL     1      -0.400  -0.337   0.000  0.00  0.00    +0.000 C 
ATOM     19  C   UNL     1      -0.733  -1.179   0.000  0.00  0.00    +0.000 C 
ATOM     20  C   UNL     1      -0.105  -1.742   0.000  0.00  0.00    +0.000 C 
ATOM     21  O   UNL     1      -0.286  -2.538   0.000  0.00  0.00    +0.000 OA
ATOM     22  C   UNL     1       1.458  -0.353   0.000  0.00  0.00    +0.000 A 
ENDROOT
BRANCH   2  23
ATOM     23  C   UNL     1      -1.518   0.542   0.000  0.00  0.00    +0.000 C 
BRANCH  23  24
ATOM     24  C   UNL     1      -1.850   1.288   0.000  0.00  0.00    +0.000 C 
ATOM     25  C   UNL     1      -2.662   1.374   0.000  0.00  0.00    +0.000 C 
ENDBRANCH  23  24
ENDBRANCH   2  23
TORSDOF 2
