REMARK  Name = 
REMARK  6 active torsions:
REMARK  status: ('A' for Active; 'I' for Inactive)
REMARK    1  A    between atoms: C_2  and  C_4
REMARK    2  A    between atoms: C_9  and  C_10
REMARK    3  A    between atoms: C_10  and  N_11
REMARK    4  A    between atoms: C_14  and  N_15
REMARK    5  A    between atoms: N_15  and  S_16
REMARK    6  A    between atoms: S_16  and  C_19
REMARK                            x       y       z     vdW  Elec       q    Type
REMARK                         _______ _______ _______ _____ _____    ______ ____
ROOT
ATOM      1  N   UNL     1      -2.969  -2.718   0.000  0.00  0.00    +0.000 N 
ATOM      2  C   UNL     1      -3.683  -2.306   0.000  0.00  0.00    +0.000 C 
ATOM      3  C   UNL     1      -3.511  -1.499   0.000  0.00  0.00    +0.000 C 
ATOM      4  C   UNL     1      -2.691  -1.412   0.000  0.00  0.00    +0.000 C 
ATOM      5  C   UNL     1      -2.355  -2.166   0.000  0.00  0.00    +0.000 C 
ATOM      6  O   UNL     1      -1.548  -2.338   0.000  0.00  0.00    +0.000 OA
ENDROOT
BRANCH   1   7
ATOM      7  C   UNL     1      -2.882  -3.539   0.000  0.00  0.00    +0.000 C 
BRANCH   7  13
ATOM      8  C   UNL     1      -4.131  -5.329   0.000  0.00  0.00    +0.000 A 
ATOM      9  C   UNL     1      -4.885  -4.993   0.000  0.00  0.00    +0.000 A 
ATOM     10  C   UNL     1      -4.971  -4.173   0.000  0.00  0.00    +0.000 A 
ATOM     11  C   UNL     1      -4.303  -3.688   0.000  0.00  0.00    +0.000 A 
ATOM     12  O   UNL     1      -4.390  -2.868   0.000  0.00  0.00    +0.000 OA
ATOM     13  C   UNL     1      -3.550  -4.024   0.000  0.00  0.00    +0.000 A 
ATOM     14  C   UNL     1      -3.463  -4.844   0.000  0.00  0.00    +0.000 A 
BRANCH   8  16
ATOM     15  N   UNL     1      -4.712  -6.634   0.000  0.00  0.00    +0.000 NA
ATOM     16  C   UNL     1      -4.045  -6.149   0.000  0.00  0.00    +0.000 C 
ATOM     17  N   UNL     1      -3.291  -6.485   0.000  0.00  0.00    +0.000 NA
ENDBRANCH   8  16
ENDBRANCH   7  13
ENDBRANCH   1   7
BRANCH   4  18
ATOM     18  N   UNL     1      -2.278  -0.698   0.000  0.00  0.00    +0.000 NA
BRANCH  18  19
ATOM     19  S   UNL     1      -1.453  -0.698   0.000  0.00  0.00    +0.000 S 
ATOM     20  O   UNL     1      -1.453  -1.523   0.000  0.00  0.00    +0.000 OA
ATOM     21  O   UNL     1      -1.453   0.127   0.000  0.00  0.00    +0.000 OA
BRANCH  19  22
ATOM     22  C   UNL     1      -0.628  -0.698   0.000  0.00  0.00    +0.000 A 
ATOM     23  C   UNL     1      -0.143  -1.365   0.000  0.00  0.00    +0.000 A 
ATOM     24  C   UNL     1       0.641  -1.110   0.000  0.00  0.00    +0.000 A 
ATOM     25  C   UNL     1       0.641  -0.285   0.000  0.00  0.00    +0.000 A 
ATOM     26  S   UNL     1      -0.143  -0.030   0.000  0.00  0.00    +0.000 S 
ATOM     27  C   UNL     1       1.356   0.127   0.000  0.00  0.00    +0.000 A 
ATOM     28  C   UNL     1       2.070  -0.285   0.000  0.00  0.00    +0.000 A 
ATOM     29  C   UNL     1       2.070  -1.110   0.000  0.00  0.00    +0.000 A 
ATOM     30  N   UNL     1       1.356  -1.523   0.000  0.00  0.00    +0.000 NA
ENDBRANCH  19  22
ENDBRANCH  18  19
ENDBRANCH   4  18
TORSDOF 6
