REMARK  Name = 
REMARK  3 active torsions:
REMARK  status: ('A' for Active; 'I' for Inactive)
REMARK    1  A    between atoms: C_3  and  C_5
REMARK    2  A    between atoms: C_3  and  CA_6
REMARK    3  A    between atoms: CA_6  and  C_9
REMARK                            x       y       z     vdW  Elec       q    Type
REMARK                         _______ _______ _______ _____ _____    ______ ____
ROOT
ATOM      1  C   UNL     1       1.429   0.000   0.000  0.00  0.00    +0.000 A 
ATOM      2  C   UNL     1       1.429   0.825   0.000  0.00  0.00    +0.000 A 
ATOM      3  C   UNL     1       0.000   0.000   0.000  0.00  0.00    +0.000 A 
ATOM      4  C   UNL     1       0.715  -0.412   0.000  0.00  0.00    +0.000 A 
ATOM      5  C   UNL     1       0.715   1.238   0.000  0.00  0.00    +0.000 A 
ATOM      6  C   UNL     1       0.000   0.825   0.000  0.00  0.00    +0.000 A 
ATOM      7  O   UNL     1       0.715   2.062   0.000  0.00  0.00    +0.000 OA
ATOM      8  O   UNL     1      -0.715   1.238   0.000  0.00  0.00    +0.000 OA
ENDROOT
BRANCH   4   9
ATOM      9  C   UNL     1       0.715  -1.238   0.000  0.00  0.00    +0.000 C 
BRANCH   9  10
ATOM     10  CA  UNL     1       1.429  -1.650   0.000  0.00  0.00    +0.000 C 
ATOM     11  N   UNL     1       2.143  -1.238   0.000  0.00  0.00    +0.000 NA
ATOM     12  H   UNL     1       2.143  -0.412   0.000  0.00  0.00    +0.000 HD
BRANCH  10  13
ATOM     13  C   UNL     1       1.429  -2.475   0.000  0.00  0.00    +0.000 C 
ATOM     14  O   UNL     1       2.143  -2.888   0.000  0.00  0.00    +0.000 OA
ATOM     15  OXT UNL     1       0.715  -2.888   0.000  0.00  0.00    +0.000 OA
ENDBRANCH  10  13
ENDBRANCH   9  10
ENDBRANCH   4   9
TORSDOF 3
