REMARK  Name = 
REMARK  2 active torsions:
REMARK  status: ('A' for Active; 'I' for Inactive)
REMARK    1  A    between atoms: C_7  and  S_27
REMARK    2  A    between atoms: C_8  and  S_28
REMARK                            x       y       z     vdW  Elec       q    Type
REMARK                         _______ _______ _______ _____ _____    ______ ____
ROOT
ATOM      1  C   UNL     1      -2.229   0.000   0.000  0.00  0.00    +0.000 A 
ATOM      2  C   UNL     1       3.993   0.825   0.000  0.00  0.00    +0.000 A 
ATOM      3  C   UNL     1      -1.514  -0.412   0.000  0.00  0.00    +0.000 A 
ATOM      4  C   UNL     1       3.279   1.238   0.000  0.00  0.00    +0.000 A 
ATOM      5  C   UNL     1      -1.514   1.238   0.000  0.00  0.00    +0.000 A 
ATOM      6  C   UNL     1       3.279  -0.412   0.000  0.00  0.00    +0.000 A 
ATOM      7  C   UNL     1      -2.229   0.825   0.000  0.00  0.00    +0.000 A 
ATOM      8  C   UNL     1       3.993   0.000   0.000  0.00  0.00    +0.000 A 
ATOM      9  C   UNL     1      -0.800   0.825   0.000  0.00  0.00    +0.000 A 
ATOM     10  C   UNL     1       2.564   0.000   0.000  0.00  0.00    +0.000 A 
ATOM     11  C   UNL     1      -0.800   0.000   0.000  0.00  0.00    +0.000 A 
ATOM     12  C   UNL     1       2.564   0.825   0.000  0.00  0.00    +0.000 A 
ATOM     13  C   UNL     1       0.470   0.412   0.000  0.00  0.00    +0.000 C 
ATOM     14  C   UNL     1       1.295   0.412   0.000  0.00  0.00    +0.000 C 
ATOM     15  C   UNL     1      -0.015   1.080   0.000  0.00  0.00    +0.000 C 
ATOM     16  C   UNL     1       1.780  -0.255   0.000  0.00  0.00    +0.000 C 
ATOM     17  N   UNL     1      -0.015  -0.255   0.000  0.00  0.00    +0.000 NA
ATOM     18  N   UNL     1       1.780   1.080   0.000  0.00  0.00    +0.000 NA
ATOM     19  O   UNL     1       0.240   1.865   0.000  0.00  0.00    +0.000 OA
ATOM     20  O   UNL     1       1.525  -1.040   0.000  0.00  0.00    +0.000 OA
ENDROOT
BRANCH   7  24
ATOM     21  O   UNL     1      -3.658   1.650   0.000  0.00  0.00    +0.000 OA
ATOM     22  O   UNL     1      -3.356   0.523   0.000  0.00  0.00    +0.000 OA
ATOM     23  O   UNL     1      -2.530   1.952   0.000  0.00  0.00    +0.000 OA
ATOM     24  S   UNL     1      -2.943   1.238   0.000  0.00  0.00    +0.000 S 
ENDBRANCH   7  24
BRANCH   8  28
ATOM     25  O   UNL     1       5.422  -0.825   0.000  0.00  0.00    +0.000 OA
ATOM     26  O   UNL     1       4.295  -1.127   0.000  0.00  0.00    +0.000 OA
ATOM     27  O   UNL     1       5.120   0.302   0.000  0.00  0.00    +0.000 OA
ATOM     28  S   UNL     1       4.708  -0.412   0.000  0.00  0.00    +0.000 S 
ENDBRANCH   8  28
TORSDOF 2
