REMARK  Name = 
REMARK  10 active torsions:
REMARK  status: ('A' for Active; 'I' for Inactive)
REMARK    1  A    between atoms: C_17  and  C_24
REMARK    2  A    between atoms: C_17  and  C_28
REMARK    3  A    between atoms: C_20  and  C_25
REMARK    4  A    between atoms: C_20  and  N_35
REMARK    5  A    between atoms: C_21  and  C_26
REMARK    6  A    between atoms: C_21  and  N_36
REMARK    7  A    between atoms: C_22  and  C_27
REMARK    8  A    between atoms: C_22  and  N_37
REMARK    9  A    between atoms: C_32  and  O_42
REMARK   10  A    between atoms: C_33  and  O_43
REMARK                            x       y       z     vdW  Elec       q    Type
REMARK                         _______ _______ _______ _____ _____    ______ ____
ROOT
ATOM      1  C   UNL     1      -0.824  -0.671   0.000  0.00  0.00    +0.000 C 
ATOM      2  C   UNL     1       0.646  -0.449   0.000  0.00  0.00    +0.000 C 
ATOM      3  C   UNL     1      -0.035  -0.914   0.000  0.00  0.00    +0.000 C 
ATOM      4  C   UNL     1       0.103   0.935   0.000  0.00  0.00    +0.000 C 
ATOM      5  N   UNL     1      -1.125   0.097   0.000  0.00  0.00    +0.000 NA
ATOM      6  N   UNL     1       0.708   0.373   0.000  0.00  0.00    +0.000 N 
ATOM      7  N   UNL     1      -0.713   0.812   0.000  0.00  0.00    +0.000 N 
ATOM      8  O   UNL     1       0.088  -1.730   0.000  0.00  0.00    +0.000 OA
ATOM      9  O   UNL     1       0.346   1.723   0.000  0.00  0.00    +0.000 OA
ENDROOT
BRANCH   5  10
ATOM     10  C   UNL     1      -1.948   0.159   0.000  0.00  0.00    +0.000 C 
BRANCH  10  16
ATOM     11  C   UNL     1      -3.022   2.389   0.000  0.00  0.00    +0.000 A 
ATOM     12  C   UNL     1      -3.486   1.707   0.000  0.00  0.00    +0.000 A 
ATOM     13  C   UNL     1      -2.199   2.327   0.000  0.00  0.00    +0.000 A 
ATOM     14  C   UNL     1      -3.128   0.964   0.000  0.00  0.00    +0.000 A 
ATOM     15  C   UNL     1      -1.841   1.584   0.000  0.00  0.00    +0.000 A 
ATOM     16  C   UNL     1      -2.306   0.902   0.000  0.00  0.00    +0.000 A 
ENDBRANCH  10  16
ENDBRANCH   5  10
BRANCH   6  17
ATOM     17  C   UNL     1       1.476   0.675   0.000  0.00  0.00    +0.000 C 
BRANCH  17  21
ATOM     18  C   UNL     1       1.998  -0.655   0.000  0.00  0.00    +0.000 A 
ATOM     19  C   UNL     1       2.643  -1.170   0.000  0.00  0.00    +0.000 A 
ATOM     20  C   UNL     1       2.889   0.462   0.000  0.00  0.00    +0.000 A 
ATOM     21  C   UNL     1       2.121   0.161   0.000  0.00  0.00    +0.000 A 
ATOM     22  C   UNL     1       3.411  -0.868   0.000  0.00  0.00    +0.000 A 
ATOM     23  C   UNL     1       3.534  -0.052   0.000  0.00  0.00    +0.000 A 
ATOM     24  O   UNL     1       4.056  -1.383   0.000  0.00  0.00    +0.000 OA
BRANCH  23  26
ATOM     25  C   UNL     1       4.947  -0.266   0.000  0.00  0.00    +0.000 C 
ATOM     26  O   UNL     1       4.302   0.249   0.000  0.00  0.00    +0.000 OA
ENDBRANCH  23  26
ENDBRANCH  17  21
ENDBRANCH   6  17
BRANCH   7  27
ATOM     27  C   UNL     1      -1.177   1.493   0.000  0.00  0.00    +0.000 C 
BRANCH  27  31
ATOM     28  C   UNL     1       0.003   2.298   0.000  0.00  0.00    +0.000 A 
ATOM     29  C   UNL     1       0.361   3.042   0.000  0.00  0.00    +0.000 A 
ATOM     30  C   UNL     1      -1.284   2.918   0.000  0.00  0.00    +0.000 A 
ATOM     31  C   UNL     1      -0.819   2.237   0.000  0.00  0.00    +0.000 A 
ATOM     32  C   UNL     1      -0.103   3.723   0.000  0.00  0.00    +0.000 A 
ATOM     33  C   UNL     1      -0.926   3.662   0.000  0.00  0.00    +0.000 A 
ATOM     34  O   UNL     1       0.255   4.466   0.000  0.00  0.00    +0.000 OA
BRANCH  33  36
ATOM     35  C   UNL     1      -2.213   4.282   0.000  0.00  0.00    +0.000 C 
ATOM     36  O   UNL     1      -1.391   4.343   0.000  0.00  0.00    +0.000 OA
ENDBRANCH  33  36
ENDBRANCH  27  31
ENDBRANCH   7  27
BRANCH   2  37
ATOM     37  C   UNL     1       1.361  -0.862   0.000  0.00  0.00    +0.000 C 
BRANCH  37  43
ATOM     38  C   UNL     1       1.361  -3.337   0.000  0.00  0.00    +0.000 A 
ATOM     39  C   UNL     1       2.075  -2.924   0.000  0.00  0.00    +0.000 A 
ATOM     40  C   UNL     1       0.646  -2.924   0.000  0.00  0.00    +0.000 A 
ATOM     41  C   UNL     1       2.075  -2.099   0.000  0.00  0.00    +0.000 A 
ATOM     42  C   UNL     1       0.646  -2.099   0.000  0.00  0.00    +0.000 A 
ATOM     43  C   UNL     1       1.361  -1.687   0.000  0.00  0.00    +0.000 A 
ENDBRANCH  37  43
ENDBRANCH   2  37
TORSDOF 10
