REMARK  Name = 
REMARK  2 active torsions:
REMARK  status: ('A' for Active; 'I' for Inactive)
REMARK    1  A    between atoms: N_2  and  C_3
REMARK    2  A    between atoms: C_4  and  N_11
REMARK                            x       y       z     vdW  Elec       q    Type
REMARK                         _______ _______ _______ _____ _____    ______ ____
ROOT
ATOM      1  C   UNL     1       1.429   0.000   0.000  0.00  0.00    +0.000 A 
ATOM      2  C   UNL     1       0.715  -0.412   0.000  0.00  0.00    +0.000 A 
ATOM      3  C   UNL     1       0.000   0.000   0.000  0.00  0.00    +0.000 A 
ATOM      4  O   UNL     1      -0.715  -0.412   0.000  0.00  0.00    +0.000 OA
ATOM      5  N   UNL     1       0.000   0.825   0.000  0.00  0.00    +0.000 NA
ATOM      6  C   UNL     1       0.715   1.238   0.000  0.00  0.00    +0.000 A 
ATOM      7  N   UNL     1       0.715   2.062   0.000  0.00  0.00    +0.000 NA
ATOM      8  N   UNL     1       1.429   0.825   0.000  0.00  0.00    +0.000 NA
ENDROOT
BRANCH   2   9
ATOM      9  N   UNL     1       0.715  -1.238   0.000  0.00  0.00    +0.000 N 
ATOM     10  O   UNL     1       1.429  -1.650   0.000  0.00  0.00    +0.000 OA
ATOM     11  O   UNL     1       0.000  -1.650   0.000  0.00  0.00    +0.000 OA
ENDBRANCH   2   9
BRANCH   1  13
ATOM     12  C   UNL     1       2.858   0.000   0.000  0.00  0.00    +0.000 C 
ATOM     13  N   UNL     1       2.143  -0.412   0.000  0.00  0.00    +0.000 NA
ENDBRANCH   1  13
TORSDOF 2
