REMARK  Name = 
REMARK  5 active torsions:
REMARK  status: ('A' for Active; 'I' for Inactive)
REMARK    1  A    between atoms: O_2  and  P_3
REMARK    2  A    between atoms: P_3  and  O_5
REMARK    3  A    between atoms: P_3  and  O_7
REMARK    4  A    between atoms: O_7  and  C_8
REMARK    5  A    between atoms: C_11  and  S_12
REMARK                            x       y       z     vdW  Elec       q    Type
REMARK                         _______ _______ _______ _____ _____    ______ ____
ROOT
ATOM      1  C   UNL     1       1.429   0.000   0.000  0.00  0.00    +0.000 A 
ATOM      2  C   UNL     1       0.715  -0.412   0.000  0.00  0.00    +0.000 A 
ATOM      3  C   UNL     1       0.000   0.000   0.000  0.00  0.00    +0.000 A 
ATOM      4  C   UNL     1       0.000   0.825   0.000  0.00  0.00    +0.000 A 
ATOM      5  C   UNL     1       0.715   1.238   0.000  0.00  0.00    +0.000 A 
ATOM      6  C   UNL     1       0.715   2.062   0.000  0.00  0.00    +0.000 C 
ATOM      7  C   UNL     1       1.429   0.825   0.000  0.00  0.00    +0.000 A 
ENDROOT
BRANCH   4   8
ATOM      8  S   UNL     1      -0.715   1.238   0.000  0.00  0.00    +0.000 S 
ATOM      9  C   UNL     1      -1.429   0.825   0.000  0.00  0.00    +0.000 C 
ENDBRANCH   4   8
BRANCH   1  10
ATOM     10  O   UNL     1       2.143  -0.412   0.000  0.00  0.00    +0.000 OA
BRANCH  10  11
ATOM     11  P   UNL     1       2.858   0.000   0.000  0.00  0.00    +0.000 P 
ATOM     12  S   UNL     1       2.445   0.715   0.000  0.00  0.00    +0.000 S 
BRANCH  11  14
ATOM     13  C   UNL     1       4.287   0.000   0.000  0.00  0.00    +0.000 C 
ATOM     14  O   UNL     1       3.572   0.412   0.000  0.00  0.00    +0.000 OA
ENDBRANCH  11  14
BRANCH  11  15
ATOM     15  O   UNL     1       3.270  -0.715   0.000  0.00  0.00    +0.000 OA
ATOM     16  C   UNL     1       2.858  -1.429   0.000  0.00  0.00    +0.000 C 
ENDBRANCH  11  15
ENDBRANCH  10  11
ENDBRANCH   1  10
TORSDOF 5
