REMARK  Name = 
REMARK  3 active torsions:
REMARK  status: ('A' for Active; 'I' for Inactive)
REMARK    1  A    between atoms: C_2  and  C_10
REMARK    2  A    between atoms: C_10  and  N_21
REMARK    3  A    between atoms: C_13  and  C_18
REMARK                            x       y       z     vdW  Elec       q    Type
REMARK                         _______ _______ _______ _____ _____    ______ ____
ROOT
ATOM      1  C   UNL     1       1.558   1.507   0.000  0.00  0.00    +0.000 A 
ATOM      2  C   UNL     1       2.272   1.919   0.000  0.00  0.00    +0.000 A 
ATOM      3  C   UNL     1       2.272   0.269   0.000  0.00  0.00    +0.000 A 
ATOM      4  C   UNL     1       4.794   1.094   0.000  0.00  0.00    +0.000 C 
ATOM      5  C   UNL     1       1.558   0.682   0.000  0.00  0.00    +0.000 A 
ATOM      6  C   UNL     1       2.986   0.682   0.000  0.00  0.00    +0.000 A 
ATOM      7  C   UNL     1       2.986   1.507   0.000  0.00  0.00    +0.000 A 
ATOM      8  C   UNL     1       4.436   1.837   0.000  0.00  0.00    +0.000 C 
ATOM      9  C   UNL     1       3.631   0.167   0.000  0.00  0.00    +0.000 C 
ATOM     10 CL   UNL     1       0.843   0.269   0.000  0.00  0.00    +0.000 Cl
ATOM     11  N   UNL     1       4.436   0.351   0.000  0.00  0.00    +0.000 NA
ATOM     12  N   UNL     1       3.631   2.021   0.000  0.00  0.00    +0.000 N 
ATOM     13  O   UNL     1       4.950   2.482   0.000  0.00  0.00    +0.000 OA
ENDROOT
BRANCH   9  19
ATOM     14  C   UNL     1       3.081  -2.246   0.000  0.00  0.00    +0.000 A 
ATOM     15  C   UNL     1       3.869  -2.002   0.000  0.00  0.00    +0.000 A 
ATOM     16  C   UNL     1       2.476  -1.685   0.000  0.00  0.00    +0.000 A 
ATOM     17  C   UNL     1       4.053  -1.198   0.000  0.00  0.00    +0.000 A 
ATOM     18  C   UNL     1       2.660  -0.880   0.000  0.00  0.00    +0.000 A 
ATOM     19  C   UNL     1       3.448  -0.637   0.000  0.00  0.00    +0.000 A 
ENDBRANCH   9  19
BRANCH  12  20
ATOM     20  C   UNL     1       3.448   2.825   0.000  0.00  0.00    +0.000 C 
BRANCH  20  22
ATOM     21  C   UNL     1       4.657   3.948   0.000  0.00  0.00    +0.000 C 
ATOM     22  C   UNL     1       4.053   3.386   0.000  0.00  0.00    +0.000 C 
ENDBRANCH  20  22
ENDBRANCH  12  20
TORSDOF 3
