REMARK  Name = 
REMARK  2 active torsions:
REMARK  status: ('A' for Active; 'I' for Inactive)
REMARK    1  A    between atoms: CA_1  and  N_15
REMARK    2  A    between atoms: CA_5  and  C_11
REMARK                            x       y       z     vdW  Elec       q    Type
REMARK                         _______ _______ _______ _____ _____    ______ ____
ROOT
ATOM      1  CA  UNL     1      -0.825   0.825   0.000  0.00  0.00    +0.000 C 
ATOM      2  N   UNL     1       0.000   0.000   0.000  0.00  0.00    +0.000 N 
ATOM      3  C   UNL     1       0.000   0.825   0.000  0.00  0.00    +0.000 C 
ATOM      4  C   UNL     1      -0.825   0.000   0.000  0.00  0.00    +0.000 C 
ATOM      5  CA  UNL     1       0.785  -0.255   0.000  0.00  0.00    +0.000 C 
ATOM      6  C   UNL     1       1.270   0.412   0.000  0.00  0.00    +0.000 C 
ATOM      7  S   UNL     1       0.785   1.080   0.000  0.00  0.00    +0.000 S 
ATOM      8  C   UNL     1       1.988   0.008   0.000  0.00  0.00    +0.000 C 
ATOM      9  C   UNL     1       1.988   0.818   0.000  0.00  0.00    +0.000 C 
ATOM     10  O   UNL     1      -1.408  -0.583   0.000  0.00  0.00    +0.000 OA
ENDROOT
BRANCH   1  11
ATOM     11  N   UNL     1      -1.540   1.238   0.000  0.00  0.00    +0.000 NA
ATOM     12  C   UNL     1      -2.254   0.825   0.000  0.00  0.00    +0.000 C 
ATOM     13  N   UNL     1      -2.968   1.238   0.000  0.00  0.00    +0.000 N 
ATOM     14  C   UNL     1      -3.650   0.773   0.000  0.00  0.00    +0.000 C 
ATOM     15  C   UNL     1      -2.907   2.060   0.000  0.00  0.00    +0.000 C 
ATOM     16  C   UNL     1      -3.512   2.621   0.000  0.00  0.00    +0.000 C 
ATOM     17  C   UNL     1      -4.438   1.016   0.000  0.00  0.00    +0.000 C 
ATOM     18  C   UNL     1      -4.327   2.498   0.000  0.00  0.00    +0.000 C 
ATOM     19  C   UNL     1      -4.740   1.784   0.000  0.00  0.00    +0.000 C 
ENDBRANCH   1  11
BRANCH   5  20
ATOM     20  C   UNL     1       1.040  -1.040   0.000  0.00  0.00    +0.000 C 
ATOM     21  O   UNL     1       1.847  -1.211   0.000  0.00  0.00    +0.000 OA
ATOM     22  OXT UNL     1       0.487  -1.653   0.000  0.00  0.00    +0.000 OA
ENDBRANCH   5  20
TORSDOF 2
