REMARK  Name = 
REMARK  1 active torsions:
REMARK  status: ('A' for Active; 'I' for Inactive)
REMARK    1  A    between atoms: C_3  and  C_7
REMARK                            x       y       z     vdW  Elec       q    Type
REMARK                         _______ _______ _______ _____ _____    ______ ____
ROOT
ATOM      1  C   UNL     1      24.614 -15.540   0.000  0.00  0.00    +0.000 C 
ATOM      2  C   UNL     1      24.614 -13.064   0.000  0.00  0.00    +0.000 C 
ATOM      3  C   UNL     1      23.899 -13.477   0.000  0.00  0.00    +0.000 C 
ATOM      4  C   UNL     1      23.899 -14.302   0.000  0.00  0.00    +0.000 C 
ATOM      5  C   UNL     1      25.328 -13.477   0.000  0.00  0.00    +0.000 C 
ATOM      6  C   UNL     1      24.614 -14.714   0.000  0.00  0.00    +0.000 C 
ATOM      7  C   UNL     1      25.328 -14.302   0.000  0.00  0.00    +0.000 C 
ENDROOT
BRANCH   2   9
ATOM      8  C   UNL     1      25.328 -11.827   0.000  0.00  0.00    +0.000 C 
ATOM      9  C   UNL     1      24.614 -12.239   0.000  0.00  0.00    +0.000 C 
ATOM     10  C   UNL     1      23.899 -11.827   0.000  0.00  0.00    +0.000 C 
ENDBRANCH   2   9
TORSDOF 1
