REMARK  Name = 
REMARK  6 active torsions:
REMARK  status: ('A' for Active; 'I' for Inactive)
REMARK    1  A    between atoms: C_8  and  C_9
REMARK    2  A    between atoms: C_8  and  C_25
REMARK    3  A    between atoms: C_9  and  C_26
REMARK    4  A    between atoms: C_24  and  O_41
REMARK    5  A    between atoms: C_26  and  O_41
REMARK    6  A    between atoms: C_28  and  C_31
REMARK                            x       y       z     vdW  Elec       q    Type
REMARK                         _______ _______ _______ _____ _____    ______ ____
ROOT
ATOM      1  C   UNL     1       0.445   4.414   0.000  0.00  0.00    +0.000 C 
ATOM      2  C   UNL     1      -0.473   3.884   0.000  0.00  0.00    +0.000 C 
ATOM      3  C   UNL     1       5.665   4.316   0.000  0.00  0.00    +0.000 C 
ATOM      4  C   UNL     1       5.934   1.361   0.000  0.00  0.00    +0.000 C 
ATOM      5  C   UNL     1       1.952   2.173   0.000  0.00  0.00    +0.000 C 
ATOM      6  C   UNL     1       3.189   4.316   0.000  0.00  0.00    +0.000 C 
ATOM      7  C   UNL     1       2.691   4.423   0.000  0.00  0.00    +0.000 C 
ATOM      8  C   UNL     1       1.540   4.316   0.000  0.00  0.00    +0.000 C 
ATOM      9  C   UNL     1       0.302   2.173   0.000  0.00  0.00    +0.000 C 
ATOM     10  C   UNL     1       1.127   2.173   0.000  0.00  0.00    +0.000 C 
ATOM     11  C   UNL     1       2.365   4.316   0.000  0.00  0.00    +0.000 C 
ATOM     12  C   UNL     1       6.077   3.602   0.000  0.00  0.00    +0.000 C 
ATOM     13  C   UNL     1       6.489   2.888   0.000  0.00  0.00    +0.000 C 
ATOM     14  C   UNL     1       4.840   4.316   0.000  0.00  0.00    +0.000 C 
ATOM     15  C   UNL     1       4.014   4.316   0.000  0.00  0.00    +0.000 C 
ATOM     16  C   UNL     1       3.602   2.173   0.000  0.00  0.00    +0.000 C 
ATOM     17  C   UNL     1       5.252   2.173   0.000  0.00  0.00    +0.000 C 
ATOM     18  C   UNL     1       4.014   2.888   0.000  0.00  0.00    +0.000 C 
ATOM     19  C   UNL     1       4.840   2.888   0.000  0.00  0.00    +0.000 C 
ATOM     20  C   UNL     1       2.777   2.173   0.000  0.00  0.00    +0.000 C 
ATOM     21  C   UNL     1       1.127   3.602   0.000  0.00  0.00    +0.000 C 
ATOM     22  C   UNL     1      -0.111   2.888   0.000  0.00  0.00    +0.000 C 
ATOM     23  C   UNL     1       2.365   2.888   0.000  0.00  0.00    +0.000 C 
ATOM     24  C   UNL     1       0.302   3.602   0.000  0.00  0.00    +0.000 C 
ATOM     25  C   UNL     1       5.252   3.602   0.000  0.00  0.00    +0.000 C 
ATOM     26  C   UNL     1       6.077   2.173   0.000  0.00  0.00    +0.000 C 
ATOM     27  C   UNL     1       1.540   2.888   0.000  0.00  0.00    +0.000 C 
ATOM     28  C   UNL     1       3.602   3.602   0.000  0.00  0.00    +0.000 C 
ATOM     29  C   UNL     1       2.777   3.602   0.000  0.00  0.00    +0.000 C 
ATOM     30  O   UNL     1       2.365   1.459   0.000  0.00  0.00    +0.000 OA
ENDROOT
BRANCH  26  31
ATOM     31  C   UNL     1       6.852   1.891   0.000  0.00  0.00    +0.000 C 
ATOM     32  O   UNL     1       7.484   2.421   0.000  0.00  0.00    +0.000 OA
ATOM     33  O   UNL     1       6.995   1.078   0.000  0.00  0.00    +0.000 OA
ENDBRANCH  26  31
BRANCH  22  34
ATOM     34  O   UNL     1      -0.935   2.888   0.000  0.00  0.00    +0.000 OA
BRANCH  34  35
ATOM     35  C   UNL     1      -1.348   3.602   0.000  0.00  0.00    +0.000 C 
ATOM     36  O   UNL     1      -0.935   4.316   0.000  0.00  0.00    +0.000 OA
BRANCH  35  37
ATOM     37  C   UNL     1      -2.173   3.602   0.000  0.00  0.00    +0.000 C 
BRANCH  37  38
ATOM     38  C   UNL     1      -2.586   4.316   0.000  0.00  0.00    +0.000 C 
BRANCH  38  39
ATOM     39  C   UNL     1      -3.410   4.316   0.000  0.00  0.00    +0.000 C 
ATOM     40  O   UNL     1      -3.823   5.031   0.000  0.00  0.00    +0.000 OA
ATOM     41  O   UNL     1      -3.823   3.602   0.000  0.00  0.00    +0.000 OA
ENDBRANCH  38  39
ENDBRANCH  37  38
ENDBRANCH  35  37
ENDBRANCH  34  35
ENDBRANCH  22  34
TORSDOF 6
