REMARK  Name = 
REMARK  11 active torsions:
REMARK  status: ('A' for Active; 'I' for Inactive)
REMARK    1  A    between atoms: S_1  and  N_7
REMARK    2  A    between atoms: S_1  and  C_19
REMARK    3  A    between atoms: O_4  and  C_25
REMARK    4  A    between atoms: O_4  and  C_33
REMARK    5  A    between atoms: N_7  and  C_17
REMARK    6  A    between atoms: C_12  and  C_16
REMARK    7  A    between atoms: C_16  and  C_17
REMARK    8  A    between atoms: C_21  and  C_24
REMARK    9  A    between atoms: C_26  and  C_29
REMARK   10  A    between atoms: C_29  and  C_31
REMARK   11  A    between atoms: C_33  and  C_35
REMARK                            x       y       z     vdW  Elec       q    Type
REMARK                         _______ _______ _______ _____ _____    ______ ____
ROOT
ATOM      1  C   UNL     1       6.528  -0.412   0.000  0.00  0.00    +0.000 A 
ATOM      2  C   UNL     1       7.243  -0.825   0.000  0.00  0.00    +0.000 A 
ATOM      3  C   UNL     1       7.957  -0.412   0.000  0.00  0.00    +0.000 A 
ATOM      4  C   UNL     1       6.528   0.412   0.000  0.00  0.00    +0.000 A 
ATOM      5  C   UNL     1       7.957   0.412   0.000  0.00  0.00    +0.000 A 
ATOM      6  C   UNL     1       7.243   0.825   0.000  0.00  0.00    +0.000 A 
ENDROOT
BRANCH   3  13
ATOM      7  O   UNL     1       9.386  -2.888   0.000  0.00  0.00    +0.000 OA
ATOM      8  N   UNL     1       9.386  -0.412   0.000  0.00  0.00    +0.000 NA
ATOM      9  N   UNL     1      10.881  -1.901   0.000  0.00  0.00    +0.000 N 
ATOM     10  N   UNL     1      11.363  -1.238   0.000  0.00  0.00    +0.000 NA
ATOM     11  N   UNL     1       8.672  -1.650   0.000  0.00  0.00    +0.000 NA
ATOM     12  C   UNL     1      10.101  -0.825   0.000  0.00  0.00    +0.000 A 
ATOM     13  C   UNL     1       8.672  -0.825   0.000  0.00  0.00    +0.000 A 
ATOM     14  C   UNL     1      10.881  -0.574   0.000  0.00  0.00    +0.000 A 
ATOM     15  C   UNL     1      10.101  -1.650   0.000  0.00  0.00    +0.000 A 
ATOM     16  C   UNL     1       9.386  -2.062   0.000  0.00  0.00    +0.000 A 
ATOM     17  C   UNL     1      11.138  -2.686   0.000  0.00  0.00    +0.000 C 
BRANCH  14  18
ATOM     18  C   UNL     1      11.138   0.211   0.000  0.00  0.00    +0.000 C 
BRANCH  18  19
ATOM     19  C   UNL     1      11.945   0.381   0.000  0.00  0.00    +0.000 C 
ATOM     20  C   UNL     1      12.201   1.165   0.000  0.00  0.00    +0.000 C 
ENDBRANCH  18  19
ENDBRANCH  14  18
ENDBRANCH   3  13
BRANCH   1  21
ATOM     21  S   UNL     1       5.814  -0.825   0.000  0.00  0.00    +0.000 S 
ATOM     22  O   UNL     1       5.401  -0.111   0.000  0.00  0.00    +0.000 OA
ATOM     23  O   UNL     1       6.226  -1.540   0.000  0.00  0.00    +0.000 OA
BRANCH  21  24
ATOM     24  N   UNL     1       5.099  -1.238   0.000  0.00  0.00    +0.000 NA
BRANCH  24  25
ATOM     25  C   UNL     1       4.385  -0.825   0.000  0.00  0.00    +0.000 C 
BRANCH  25  26
ATOM     26  C   UNL     1       3.670  -1.238   0.000  0.00  0.00    +0.000 C 
BRANCH  26  28
ATOM     27  N   UNL     1       2.202  -1.161   0.000  0.00  0.00    +0.000 NA
ATOM     28  C   UNL     1       2.956  -0.825   0.000  0.00  0.00    +0.000 C 
ATOM     29  C   UNL     1       2.870  -0.004   0.000  0.00  0.00    +0.000 C 
ATOM     30  C   UNL     1       2.062   0.167   0.000  0.00  0.00    +0.000 C 
ATOM     31  C   UNL     1       1.650  -0.547   0.000  0.00  0.00    +0.000 C 
ATOM     32  C   UNL     1       2.030  -1.968   0.000  0.00  0.00    +0.000 C 
ENDBRANCH  26  28
ENDBRANCH  25  26
ENDBRANCH  24  25
ENDBRANCH  21  24
ENDBRANCH   1  21
BRANCH   5  33
ATOM     33  O   UNL     1       8.672   0.825   0.000  0.00  0.00    +0.000 OA
BRANCH  33  34
ATOM     34  C   UNL     1       8.672   1.650   0.000  0.00  0.00    +0.000 C 
BRANCH  34  35
ATOM     35  C   UNL     1       9.386   2.062   0.000  0.00  0.00    +0.000 C 
ATOM     36  C   UNL     1       9.386   2.888   0.000  0.00  0.00    +0.000 C 
ENDBRANCH  34  35
ENDBRANCH  33  34
ENDBRANCH   5  33
TORSDOF 11
