REMARK  Name = 
REMARK  5 active torsions:
REMARK  status: ('A' for Active; 'I' for Inactive)
REMARK    1  A    between atoms: C_5  and  N_17
REMARK    2  A    between atoms: C_6  and  N_17
REMARK    3  A    between atoms: C_7  and  C_8
REMARK    4  A    between atoms: C_7  and  N_17
REMARK    5  A    between atoms: C_8  and  N_18
REMARK                            x       y       z     vdW  Elec       q    Type
REMARK                         _______ _______ _______ _____ _____    ______ ____
ROOT
ATOM      1  C   UNL     1       2.029  -1.954   0.000  0.00  0.00    +0.000 C 
ATOM      2  C   UNL     1       1.435   0.842   0.000  0.00  0.00    +0.000 C 
ATOM      3  C   UNL     1      -0.549  -2.055   0.000  0.00  0.00    +0.000 A 
ATOM      4  C   UNL     1       0.118  -0.899   0.000  0.00  0.00    +0.000 A 
ATOM      5  C   UNL     1       0.670  -1.512   0.000  0.00  0.00    +0.000 A 
ATOM      6  C   UNL     1       0.373  -0.114   0.000  0.00  0.00    +0.000 A 
ATOM      7  C   UNL     1       1.732  -0.556   0.000  0.00  0.00    +0.000 A 
ATOM      8  N   UNL     1       0.258  -2.227   0.000  0.00  0.00    +0.000 NA
ATOM      9  N   UNL     1       1.477  -1.341   0.000  0.00  0.00    +0.000 N 
ATOM     10  N   UNL     1       1.180   0.057   0.000  0.00  0.00    +0.000 N 
ATOM     11  N   UNL     1      -0.636  -1.235   0.000  0.00  0.00    +0.000 N 
ATOM     12  O   UNL     1      -0.179   0.499   0.000  0.00  0.00    +0.000 OA
ATOM     13  O   UNL     1       2.539  -0.384   0.000  0.00  0.00    +0.000 OA
ENDROOT
BRANCH  11  14
ATOM     14  C   UNL     1      -1.350  -0.822   0.000  0.00  0.00    +0.000 C 
BRANCH  14  15
ATOM     15  C   UNL     1      -2.065  -1.235   0.000  0.00  0.00    +0.000 C 
BRANCH  15  16
ATOM     16  N   UNL     1      -2.779  -0.822   0.000  0.00  0.00    +0.000 NA
BRANCH  16  18
ATOM     17  C   UNL     1      -4.208  -0.822   0.000  0.00  0.00    +0.000 C 
ATOM     18  C   UNL     1      -3.494  -1.235   0.000  0.00  0.00    +0.000 C 
ENDBRANCH  16  18
BRANCH  16  20
ATOM     19  C   UNL     1      -2.065   0.415   0.000  0.00  0.00    +0.000 C 
ATOM     20  C   UNL     1      -2.779   0.003   0.000  0.00  0.00    +0.000 C 
ENDBRANCH  16  20
ENDBRANCH  15  16
ENDBRANCH  14  15
ENDBRANCH  11  14
TORSDOF 5
