REMARK  Name = 
REMARK  6 active torsions:
REMARK  status: ('A' for Active; 'I' for Inactive)
REMARK    1  A    between atoms: C_3  and  O_18
REMARK    2  A    between atoms: C_4  and  O_13
REMARK    3  A    between atoms: C_6  and  O_7
REMARK    4  A    between atoms: O_7  and  P_8
REMARK    5  A    between atoms: O_13  and  P_14
REMARK    6  A    between atoms: O_18  and  P_19
REMARK                            x       y       z     vdW  Elec       q    Type
REMARK                         _______ _______ _______ _____ _____    ______ ____
ROOT
ATOM      1  C   UNL     1       0.715   1.238   0.000  0.00  0.00    +0.000 C 
ATOM      2  C   UNL     1       1.429   0.825   0.000  0.00  0.00    +0.000 C 
ATOM      3  C   UNL     1       1.429   0.000   0.000  0.00  0.00    +0.000 C 
ATOM      4  C   UNL     1       0.715  -0.412   0.000  0.00  0.00    +0.000 C 
ATOM      5  C   UNL     1       0.000   0.000   0.000  0.00  0.00    +0.000 C 
ATOM      6  C   UNL     1       0.000   0.825   0.000  0.00  0.00    +0.000 C 
ATOM      7  O   UNL     1      -0.715  -0.412   0.000  0.00  0.00    +0.000 OA
ATOM      8  O   UNL     1       2.143   1.238   0.000  0.00  0.00    +0.000 OA
ATOM      9  O   UNL     1       0.715   2.062   0.000  0.00  0.00    +0.000 OA
ENDROOT
BRANCH   6  10
ATOM     10  O   UNL     1      -0.715   1.238   0.000  0.00  0.00    +0.000 OA
BRANCH  10  11
ATOM     11  P   UNL     1      -1.429   0.825   0.000  0.00  0.00    +0.000 P 
ATOM     12  O   UNL     1      -2.143   0.412   0.000  0.00  0.00    +0.000 OA
ATOM     13  O   UNL     1      -1.016   0.111   0.000  0.00  0.00    +0.000 OA
ATOM     14  O   UNL     1      -1.841   1.540   0.000  0.00  0.00    +0.000 OA
ENDBRANCH  10  11
ENDBRANCH   6  10
BRANCH   3  15
ATOM     15  O   UNL     1       2.143  -0.412   0.000  0.00  0.00    +0.000 OA
BRANCH  15  16
ATOM     16  P   UNL     1       2.858   0.000   0.000  0.00  0.00    +0.000 P 
ATOM     17  O   UNL     1       3.572   0.412   0.000  0.00  0.00    +0.000 OA
ATOM     18  O   UNL     1       3.270  -0.715   0.000  0.00  0.00    +0.000 OA
ATOM     19  O   UNL     1       2.445   0.715   0.000  0.00  0.00    +0.000 OA
ENDBRANCH  15  16
ENDBRANCH   3  15
BRANCH   4  20
ATOM     20  O   UNL     1       0.715  -1.238   0.000  0.00  0.00    +0.000 OA
BRANCH  20  21
ATOM     21  P   UNL     1       0.000  -1.650   0.000  0.00  0.00    +0.000 P 
ATOM     22  O   UNL     1      -0.412  -0.935   0.000  0.00  0.00    +0.000 OA
ATOM     23  O   UNL     1       0.412  -2.365   0.000  0.00  0.00    +0.000 OA
ATOM     24  O   UNL     1      -0.715  -2.062   0.000  0.00  0.00    +0.000 OA
ENDBRANCH  20  21
ENDBRANCH   4  20
TORSDOF 6
