REMARK  Name = 
REMARK  14 active torsions:
REMARK  status: ('A' for Active; 'I' for Inactive)
REMARK    1  A    between atoms: C_2  and  C_3
REMARK    2  A    between atoms: C_3  and  C_4
REMARK    3  A    between atoms: C_4  and  C_5
REMARK    4  A    between atoms: C_5  and  C_6
REMARK    5  A    between atoms: C_9  and  C_12
REMARK    6  A    between atoms: N_14  and  C_15
REMARK    7  A    between atoms: N_14  and  C_33
REMARK    8  A    between atoms: C_15  and  C_16
REMARK    9  A    between atoms: C_19  and  C_22
REMARK   10  A    between atoms: C_25  and  C_26
REMARK   11  A    between atoms: C_26  and  C_27
REMARK   12  A    between atoms: C_27  and  O_29
REMARK   13  A    between atoms: N_36  and  C_39
REMARK   14  A    between atoms: C_39  and  C_40
REMARK                            x       y       z     vdW  Elec       q    Type
REMARK                         _______ _______ _______ _____ _____    ______ ____
ROOT
ATOM      1  C   UNL     1      -1.536   5.590   0.000  0.00  0.00    +0.000 C 
ATOM      2  O   UNL     1      -1.536   4.765   0.000  0.00  0.00    +0.000 OA
ATOM      3  N   UNL     1      -0.821   6.003   0.000  0.00  0.00    +0.000 N 
ENDROOT
BRANCH   3   4
ATOM      4  C   UNL     1      -0.107   5.590   0.000  0.00  0.00    +0.000 C 
ATOM      5  C   UNL     1       0.608   6.003   0.000  0.00  0.00    +0.000 C 
ATOM      6  C   UNL     1       1.322   5.590   0.000  0.00  0.00    +0.000 C 
ATOM      7  N   UNL     1       1.322   4.765   0.000  0.00  0.00    +0.000 NA
ATOM      8  C   UNL     1       0.608   4.353   0.000  0.00  0.00    +0.000 C 
ATOM      9  C   UNL     1      -0.107   4.765   0.000  0.00  0.00    +0.000 C 
BRANCH   7  10
ATOM     10  C   UNL     1       2.037   4.353   0.000  0.00  0.00    +0.000 C 
BRANCH  10  11
ATOM     11  C   UNL     1       2.037   3.528   0.000  0.00  0.00    +0.000 A 
ATOM     12  N   UNL     1       2.704   3.043   0.000  0.00  0.00    +0.000 NA
ATOM     13  C   UNL     1       2.449   2.258   0.000  0.00  0.00    +0.000 A 
ATOM     14  C   UNL     1       1.624   2.258   0.000  0.00  0.00    +0.000 A 
ATOM     15  N   UNL     1       1.369   3.043   0.000  0.00  0.00    +0.000 NA
ENDBRANCH  10  11
ENDBRANCH   7  10
ENDBRANCH   3   4
BRANCH   1  19
ATOM     16  C   UNL     1      -3.679   6.828   0.000  0.00  0.00    +0.000 A 
ATOM     17  C   UNL     1      -2.965   7.240   0.000  0.00  0.00    +0.000 A 
ATOM     18  C   UNL     1      -2.250   6.828   0.000  0.00  0.00    +0.000 A 
ATOM     19  C   UNL     1      -2.250   6.003   0.000  0.00  0.00    +0.000 A 
ATOM     20  C   UNL     1      -2.965   5.590   0.000  0.00  0.00    +0.000 A 
ATOM     21  C   UNL     1      -3.679   6.003   0.000  0.00  0.00    +0.000 A 
BRANCH  16  22
ATOM     22  C   UNL     1      -4.394   7.240   0.000  0.00  0.00    +0.000 C 
BRANCH  22  23
ATOM     23  C   UNL     1      -5.108   6.828   0.000  0.00  0.00    +0.000 C 
BRANCH  23  24
ATOM     24  C   UNL     1      -5.822   7.240   0.000  0.00  0.00    +0.000 C 
BRANCH  24  26
ATOM     25  C   UNL     1      -7.251   7.240   0.000  0.00  0.00    +0.000 C 
ATOM     26  C   UNL     1      -6.537   6.828   0.000  0.00  0.00    +0.000 C 
ENDBRANCH  24  26
ENDBRANCH  23  24
ENDBRANCH  22  23
ENDBRANCH  16  22
ENDBRANCH   1  19
BRANCH   3  27
ATOM     27  C   UNL     1      -0.821   6.828   0.000  0.00  0.00    +0.000 C 
BRANCH  27  28
ATOM     28  C   UNL     1      -0.107   7.240   0.000  0.00  0.00    +0.000 A 
ATOM     29  C   UNL     1      -0.107   8.065   0.000  0.00  0.00    +0.000 A 
ATOM     30  C   UNL     1       0.608   8.478   0.000  0.00  0.00    +0.000 A 
ATOM     31  C   UNL     1       1.322   8.065   0.000  0.00  0.00    +0.000 A 
ATOM     32  C   UNL     1       1.322   7.240   0.000  0.00  0.00    +0.000 A 
ATOM     33  C   UNL     1       0.608   6.828   0.000  0.00  0.00    +0.000 A 
BRANCH  31  34
ATOM     34  C   UNL     1       2.037   8.478   0.000  0.00  0.00    +0.000 A 
ATOM     35  C   UNL     1       2.037   9.303   0.000  0.00  0.00    +0.000 A 
ATOM     36  C   UNL     1       2.751   9.715   0.000  0.00  0.00    +0.000 A 
ATOM     37  C   UNL     1       3.466   9.303   0.000  0.00  0.00    +0.000 A 
ATOM     38  C   UNL     1       3.466   8.478   0.000  0.00  0.00    +0.000 A 
ATOM     39  C   UNL     1       2.751   8.065   0.000  0.00  0.00    +0.000 A 
BRANCH  37  40
ATOM     40  C   UNL     1       4.180   9.715   0.000  0.00  0.00    +0.000 C 
BRANCH  40  41
ATOM     41  C   UNL     1       4.180  10.540   0.000  0.00  0.00    +0.000 C 
ATOM     42  O   UNL     1       3.466  10.953   0.000  0.00  0.00    +0.000 OA
BRANCH  41  43
ATOM     43  O   UNL     1       4.895  10.953   0.000  0.00  0.00    +0.000 OA
ATOM     44  C   UNL     1       4.895  11.778   0.000  0.00  0.00    +0.000 C 
ENDBRANCH  41  43
ENDBRANCH  40  41
ENDBRANCH  37  40
ENDBRANCH  31  34
ENDBRANCH  27  28
ENDBRANCH   3  27
TORSDOF 14
