REMARK  Name = 
REMARK  3 active torsions:
REMARK  status: ('A' for Active; 'I' for Inactive)
REMARK    1  A    between atoms: N_5  and  CA_6
REMARK    2  A    between atoms: CA_6  and  CB_7
REMARK    3  A    between atoms: CA_6  and  C_8
REMARK                            x       y       z     vdW  Elec       q    Type
REMARK                         _______ _______ _______ _____ _____    ______ ____
ROOT
ATOM      1  CA  CYS A   1       3.522   0.256   0.000  0.00  0.00    +0.000 C 
ENDROOT
BRANCH   1   3
ATOM      2  O   UNK A   0       4.950  -0.569   0.000  0.00  0.00    +0.000 OA
ATOM      3  N   CYS A   1       4.236   0.668   0.000  0.00  0.00    +0.000 NA
ATOM      4  C   UNK A   0       4.950   0.256   0.000  0.00  0.00    +0.000 C 
ATOM      5  C   UNK A   0       5.665   0.668   0.000  0.00  0.00    +0.000 C 
ENDBRANCH   1   3
BRANCH   1   8
ATOM      6  O   CYS A   1       2.093   0.256   0.000  0.00  0.00    +0.000 OA
ATOM      7  OXT CYS A   1       2.807   1.493   0.000  0.00  0.00    +0.000 OA
ATOM      8  C   CYS A   1       2.807   0.668   0.000  0.00  0.00    +0.000 C 
ENDBRANCH   1   8
BRANCH   1  10
ATOM      9  SG  CYS A   1       2.807  -0.982   0.000  0.00  0.00    +0.000 S 
ATOM     10  CB  CYS A   1       3.522  -0.569   0.000  0.00  0.00    +0.000 C 
ENDBRANCH   1  10
TORSDOF 3
