REMARK  Name = 
REMARK  9 active torsions:
REMARK  status: ('A' for Active; 'I' for Inactive)
REMARK    1  A    between atoms: CA_2  and  CB_3
REMARK    2  A    between atoms: CA_2  and  C_15
REMARK    3  A    between atoms: CB_3  and  CG_4
REMARK    4  A    between atoms: CG_4  and  CD_5
REMARK    5  A    between atoms: CD_5  and  CE_6
REMARK    6  A    between atoms: CE_6  and  N_7
REMARK    7  A    between atoms: N_7  and  CA_8
REMARK    8  A    between atoms: CA_8  and  C_9
REMARK    9  A    between atoms: CA_8  and  C_12
REMARK                            x       y       z     vdW  Elec       q    Type
REMARK                         _______ _______ _______ _____ _____    ______ ____
ROOT
ATOM      1  CE  UNL     1       6.535   0.971   0.000  0.00  0.00    +0.000 C 
ENDROOT
BRANCH   1   2
ATOM      2  CD  UNL     1       7.328   0.743   0.000  0.00  0.00    +0.000 C 
BRANCH   2   3
ATOM      3  CG  UNL     1       7.922   1.315   0.000  0.00  0.00    +0.000 C 
BRANCH   3   4
ATOM      4  CB  UNL     1       8.715   1.086   0.000  0.00  0.00    +0.000 C 
BRANCH   4   6
ATOM      5  N   UNL     1       9.111   2.459   0.000  0.00  0.00    +0.000 NA
ATOM      6  CA  UNL     1       9.309   1.658   0.000  0.00  0.00    +0.000 C 
BRANCH   6   7
ATOM      7  C   UNL     1      10.102   1.429   0.000  0.00  0.00    +0.000 C 
ATOM      8  O   UNL     1      10.697   2.001   0.000  0.00  0.00    +0.000 OA
ATOM      9  OXT UNL     1      10.300   0.628   0.000  0.00  0.00    +0.000 OA
ENDBRANCH   6   7
ENDBRANCH   4   6
ENDBRANCH   3   4
ENDBRANCH   2   3
ENDBRANCH   1   2
BRANCH   1  10
ATOM     10  N   UNL     1       5.941   0.399   0.000  0.00  0.00    +0.000 NA
BRANCH  10  11
ATOM     11  CA  UNL     1       5.148   0.628   0.000  0.00  0.00    +0.000 C 
BRANCH  11  12
ATOM     12  C   UNL     1       4.950   1.429   0.000  0.00  0.00    +0.000 C 
ATOM     13  O   UNL     1       4.157   1.658   0.000  0.00  0.00    +0.000 OA
ATOM     14  OXT UNL     1       5.545   2.001   0.000  0.00  0.00    +0.000 OA
ENDBRANCH  11  12
BRANCH  11  15
ATOM     15  C   UNL     1       4.554   0.056   0.000  0.00  0.00    +0.000 C 
ATOM     16  O   UNL     1       3.761   0.285   0.000  0.00  0.00    +0.000 OA
ATOM     17  O   UNL     1       4.752  -0.745   0.000  0.00  0.00    +0.000 OA
ENDBRANCH  11  15
ENDBRANCH  10  11
ENDBRANCH   1  10
TORSDOF 9
