REMARK  Name = 
REMARK  7 active torsions:
REMARK  status: ('A' for Active; 'I' for Inactive)
REMARK    1  A    between atoms: O_4  and  C_12
REMARK    2  A    between atoms: O_4  and  C_13
REMARK    3  A    between atoms: C_10  and  C_11
REMARK    4  A    between atoms: C_10  and  C_12
REMARK    5  A    between atoms: C_11  and  C_19
REMARK    6  A    between atoms: C_16  and  C_23
REMARK    7  A    between atoms: C_26  and  C_27
REMARK                            x       y       z     vdW  Elec       q    Type
REMARK                         _______ _______ _______ _____ _____    ______ ____
ROOT
ATOM      1  C   UNL     1       3.976   0.079   0.000  0.00  0.00    +0.000 A 
ATOM      2  C   UNL     1       4.691   0.491   0.000  0.00  0.00    +0.000 A 
ATOM      3  C   UNL     1       3.262   0.491   0.000  0.00  0.00    +0.000 A 
ATOM      4  C   UNL     1       3.976   1.729   0.000  0.00  0.00    +0.000 A 
ATOM      5  C   UNL     1       4.691   1.316   0.000  0.00  0.00    +0.000 A 
ATOM      6  C   UNL     1       3.262   1.316   0.000  0.00  0.00    +0.000 A 
ATOM      7  C   UNL     1       5.405   0.079   0.000  0.00  0.00    +0.000 C 
ATOM      8  C   UNL     1       2.547   0.079   0.000  0.00  0.00    +0.000 C 
ENDROOT
BRANCH   4  12
ATOM      9  O   UNL     1       4.389   3.823   0.000  0.00  0.00    +0.000 OA
ATOM     10  N   UNL     1       3.309   3.039   0.000  0.00  0.00    +0.000 NA
ATOM     11  N   UNL     1       4.644   3.039   0.000  0.00  0.00    +0.000 NA
ATOM     12  C   UNL     1       3.976   2.554   0.000  0.00  0.00    +0.000 A 
ATOM     13  C   UNL     1       3.564   3.823   0.000  0.00  0.00    +0.000 A 
BRANCH  13  17
ATOM     14  F   UNL     1       2.412   4.006   0.000  0.00  0.00    +0.000 F 
ATOM     15  F   UNL     1       3.746   4.976   0.000  0.00  0.00    +0.000 F 
ATOM     16  F   UNL     1       2.594   5.158   0.000  0.00  0.00    +0.000 F 
ATOM     17  C   UNL     1       3.079   4.491   0.000  0.00  0.00    +0.000 C 
ENDBRANCH  13  17
ENDBRANCH   4  12
BRANCH   1  18
ATOM     18  O   UNL     1       3.976  -0.746   0.000  0.00  0.00    +0.000 OA
BRANCH  18  19
ATOM     19  C   UNL     1       3.262  -1.159   0.000  0.00  0.00    +0.000 C 
BRANCH  19  20
ATOM     20  C   UNL     1       3.262  -1.984   0.000  0.00  0.00    +0.000 C 
BRANCH  20  21
ATOM     21  C   UNL     1       2.547  -2.396   0.000  0.00  0.00    +0.000 C 
BRANCH  21  24
ATOM     22  O   UNL     1       3.215  -3.706   0.000  0.00  0.00    +0.000 OA
ATOM     23  N   UNL     1       2.960  -4.491   0.000  0.00  0.00    +0.000 NA
ATOM     24  C   UNL     1       2.547  -3.221   0.000  0.00  0.00    +0.000 A 
ATOM     25  C   UNL     1       1.880  -3.706   0.000  0.00  0.00    +0.000 A 
ATOM     26  C   UNL     1       2.135  -4.491   0.000  0.00  0.00    +0.000 A 
ATOM     27  C   UNL     1       1.650  -5.158   0.000  0.00  0.00    +0.000 C 
ENDBRANCH  21  24
ENDBRANCH  20  21
ENDBRANCH  19  20
ENDBRANCH  18  19
ENDBRANCH   1  18
TORSDOF 7
