REMARK  Name = 
REMARK  8 active torsions:
REMARK  status: ('A' for Active; 'I' for Inactive)
REMARK    1  A    between atoms: N_4  and  C_5
REMARK    2  A    between atoms: C_5  and  C_6
REMARK    3  A    between atoms: C_5  and  B_17
REMARK    4  A    between atoms: C_6  and  C_7
REMARK    5  A    between atoms: B_17  and  O_20
REMARK    6  A    between atoms: O_20  and  C_21
REMARK    7  A    between atoms: C_21  and  C_22
REMARK    8  A    between atoms: C_22  and  C_24
REMARK                            x       y       z     vdW  Elec       q    Type
REMARK                         _______ _______ _______ _____ _____    ______ ____
ROOT
ATOM      1  C   UNK     1      -0.444   2.017   0.000  0.00  0.00    +0.000 C 
ENDROOT
BRANCH   1   5
ATOM      2  C   UNK     1       0.636   0.770   0.000  0.00  0.00    +0.000 C 
ATOM      3  C   UNK     1      -0.174   0.614   0.000  0.00  0.00    +0.000 C 
ATOM      4  O   UNK     1      -0.444  -0.166   0.000  0.00  0.00    +0.000 OA
ATOM      5  N   UNK     1      -0.715   1.238   0.000  0.00  0.00    +0.000 NA
ENDBRANCH   1   5
BRANCH   1   6
ATOM      6  B   UNK     1       0.366   2.173   0.000  0.00  0.00    +0.000 B 
ATOM      7  O   UNK     1       0.522   1.363   0.000  0.00  0.00    +0.000 OA
ATOM      8  O   UNK     1       0.210   2.983   0.000  0.00  0.00    +0.000 OA
BRANCH   6   9
ATOM      9  O   UNK     1       1.176   2.329   0.000  0.00  0.00    +0.000 OA
BRANCH   9  10
ATOM     10  C   UNK     1       1.716   1.705   0.000  0.00  0.00    +0.000 C 
BRANCH  10  11
ATOM     11  C   UNK     1       2.526   1.861   0.000  0.00  0.00    +0.000 C 
ATOM     12  N   UNK     1       2.796   2.641   0.000  0.00  0.00    +0.000 NA
BRANCH  11  13
ATOM     13  C   UNK     1       3.066   1.238   0.000  0.00  0.00    +0.000 C 
ATOM     14  O   UNK     1       3.876   1.393   0.000  0.00  0.00    +0.000 OA
ATOM     15  O   UNK     1       2.796   0.458   0.000  0.00  0.00    +0.000 OA
ENDBRANCH  11  13
ENDBRANCH  10  11
ENDBRANCH   9  10
ENDBRANCH   6   9
ENDBRANCH   1   6
BRANCH   1  16
ATOM     16  C   UNK     1      -0.985   2.641   0.000  0.00  0.00    +0.000 C 
BRANCH  16  17
ATOM     17  C   UNK     1      -1.795   2.485   0.000  0.00  0.00    +0.000 A 
ATOM     18  C   UNK     1      -2.335   3.108   0.000  0.00  0.00    +0.000 A 
ATOM     19  C   UNK     1      -3.145   2.953   0.000  0.00  0.00    +0.000 A 
ATOM     20  C   UNK     1      -3.415   2.173   0.000  0.00  0.00    +0.000 A 
ATOM     21  C   UNK     1      -2.875   1.549   0.000  0.00  0.00    +0.000 A 
ATOM     22  C   UNK     1      -2.065   1.705   0.000  0.00  0.00    +0.000 A 
ATOM     23  C   UNK     1      -1.525   1.082   0.000  0.00  0.00    +0.000 A 
ATOM     24  C   UNK     1      -1.795   0.302   0.000  0.00  0.00    +0.000 A 
ATOM     25  C   UNK     1      -2.605   0.146   0.000  0.00  0.00    +0.000 A 
ATOM     26  C   UNK     1      -3.145   0.770   0.000  0.00  0.00    +0.000 A 
ENDBRANCH  16  17
ENDBRANCH   1  16
TORSDOF 8
