REMARK  Name = 
REMARK  12 active torsions:
REMARK  status: ('A' for Active; 'I' for Inactive)
REMARK    1  A    between atoms: C_2  and  C_3
REMARK    2  A    between atoms: C_3  and  C_4
REMARK    3  A    between atoms: C_4  and  C_5
REMARK    4  A    between atoms: C_5  and  C_6
REMARK    5  A    between atoms: C_6  and  C_7
REMARK    6  A    between atoms: C_7  and  C_11
REMARK    7  A    between atoms: C_8  and  C_11
REMARK    8  A    between atoms: C_8  and  C_12
REMARK    9  A    between atoms: C_9  and  C_13
REMARK   10  A    between atoms: C_10  and  C_20
REMARK   11  A    between atoms: C_19  and  O_31
REMARK   12  A    between atoms: C_20  and  O_31
REMARK                            x       y       z     vdW  Elec       q    Type
REMARK                         _______ _______ _______ _____ _____    ______ ____
ROOT
ATOM      1  C   UNL     1       9.626   7.544   0.000  0.00  0.00    +0.000 C 
ATOM      2  C   UNL     1       9.712   6.723   0.000  0.00  0.00    +0.000 C 
ATOM      3  C   UNL     1      10.519   6.552   0.000  0.00  0.00    +0.000 C 
ATOM      4  C   UNL     1      10.932   7.266   0.000  0.00  0.00    +0.000 C 
ATOM      5  O   UNL     1       9.099   6.171   0.000  0.00  0.00    +0.000 OA
ATOM      6  O   UNL     1      10.855   5.798   0.000  0.00  0.00    +0.000 OA
ATOM      7  O   UNL     1      10.380   7.879   0.000  0.00  0.00    +0.000 OA
ENDROOT
BRANCH   4   8
ATOM      8  C   UNL     1      11.484   7.879   0.000  0.00  0.00    +0.000 C 
ATOM      9  O   UNL     1      11.229   8.664   0.000  0.00  0.00    +0.000 OA
ENDBRANCH   4   8
BRANCH   1  10
ATOM     10  C   UNL     1       8.911   7.956   0.000  0.00  0.00    +0.000 C 
BRANCH  10  11
ATOM     11  C   UNL     1       8.197   7.544   0.000  0.00  0.00    +0.000 C 
ATOM     12  O   UNL     1       8.197   6.719   0.000  0.00  0.00    +0.000 OA
BRANCH  11  13
ATOM     13  C   UNL     1       7.482   7.956   0.000  0.00  0.00    +0.000 C 
BRANCH  13  14
ATOM     14  C   UNL     1       6.768   7.544   0.000  0.00  0.00    +0.000 C 
BRANCH  14  15
ATOM     15  C   UNL     1       6.054   7.956   0.000  0.00  0.00    +0.000 C 
BRANCH  15  16
ATOM     16  C   UNL     1       5.339   7.544   0.000  0.00  0.00    +0.000 C 
BRANCH  16  17
ATOM     17  C   UNL     1       4.625   7.956   0.000  0.00  0.00    +0.000 C 
BRANCH  17  19
ATOM     18  C   UNL     1       3.196   7.956   0.000  0.00  0.00    +0.000 C 
ATOM     19  C   UNL     1       3.910   7.544   0.000  0.00  0.00    +0.000 C 
ENDBRANCH  17  19
ENDBRANCH  16  17
ENDBRANCH  15  16
ENDBRANCH  14  15
ENDBRANCH  13  14
ENDBRANCH  11  13
ENDBRANCH  10  11
ENDBRANCH   1  10
BRANCH   4  20
ATOM     20  O   UNL     1      11.599   6.781   0.000  0.00  0.00    +0.000 OA
BRANCH  20  25
ATOM     21  C   UNL     1      13.774   6.967   0.000  0.00  0.00    +0.000 C 
ATOM     22  C   UNL     1      13.860   7.788   0.000  0.00  0.00    +0.000 C 
ATOM     23  C   UNL     1      13.193   8.273   0.000  0.00  0.00    +0.000 C 
ATOM     24  C   UNL     1      12.439   7.937   0.000  0.00  0.00    +0.000 C 
ATOM     25  C   UNL     1      12.353   7.117   0.000  0.00  0.00    +0.000 C 
ATOM     26  O   UNL     1      14.614   8.123   0.000  0.00  0.00    +0.000 OA
ATOM     27  O   UNL     1      13.279   9.093   0.000  0.00  0.00    +0.000 OA
ATOM     28  O   UNL     1      11.771   8.422   0.000  0.00  0.00    +0.000 OA
ATOM     29  O   UNL     1      13.020   6.632   0.000  0.00  0.00    +0.000 OA
BRANCH  21  30
ATOM     30  C   UNL     1      14.441   6.482   0.000  0.00  0.00    +0.000 C 
ATOM     31  O   UNL     1      15.195   6.818   0.000  0.00  0.00    +0.000 OA
ENDBRANCH  21  30
ENDBRANCH  20  25
ENDBRANCH   4  20
TORSDOF 12
