REMARK  Name = 
REMARK  5 active torsions:
REMARK  status: ('A' for Active; 'I' for Inactive)
REMARK    1  A    between atoms: C_2  and  C_15
REMARK    2  A    between atoms: C_5  and  N_8
REMARK    3  A    between atoms: C_10  and  O_11
REMARK    4  A    between atoms: N_16  and  C_24
REMARK    5  A    between atoms: C_24  and  C_25
REMARK                            x       y       z     vdW  Elec       q    Type
REMARK                         _______ _______ _______ _____ _____    ______ ____
ROOT
ATOM      1  C   UNL     1       7.219 -10.890   0.000  0.00  0.00    +0.000 A 
ATOM      2  N   UNL     1       5.899 -10.931   0.000  0.00  0.00    +0.000 N 
ATOM      3  C   UNL     1       6.146 -11.674   0.000  0.00  0.00    +0.000 A 
ATOM      4  C   UNL     1       6.971 -11.674   0.000  0.00  0.00    +0.000 A 
ATOM      5  N   UNL     1       6.559 -10.395   0.000  0.00  0.00    +0.000 NA
ATOM      6  N   UNL     1       5.775 -12.416   0.000  0.00  0.00    +0.000 NA
ATOM      7  C   UNL     1       6.188 -13.117   0.000  0.00  0.00    +0.000 A 
ATOM      8  C   UNL     1       7.013 -13.117   0.000  0.00  0.00    +0.000 A 
ATOM      9  C   UNL     1       7.425 -12.375   0.000  0.00  0.00    +0.000 A 
ENDROOT
BRANCH   1  11
ATOM     10  N   UNL     1       7.920  -9.652   0.000  0.00  0.00    +0.000 NA
ATOM     11  C   UNL     1       7.920 -10.477   0.000  0.00  0.00    +0.000 A 
ATOM     12  N   UNL     1       8.621 -10.890   0.000  0.00  0.00    +0.000 NA
ATOM     13  C   UNL     1       9.364 -10.477   0.000  0.00  0.00    +0.000 A 
ATOM     14  C   UNL     1       9.364  -9.652   0.000  0.00  0.00    +0.000 A 
ATOM     15  C   UNL     1       8.621  -9.240   0.000  0.00  0.00    +0.000 A 
ATOM     16  N   UNL     1       8.621  -8.415   0.000  0.00  0.00    +0.000 NA
ATOM     17  N   UNL     1      10.065 -10.890   0.000  0.00  0.00    +0.000 NA
BRANCH  14  18
ATOM     18  N   UNL     1      10.065  -9.240   0.000  0.00  0.00    +0.000 N 
ATOM     19  C   UNL     1      10.766  -9.652   0.000  0.00  0.00    +0.000 C 
ATOM     20  O   UNL     1      10.766 -10.477   0.000  0.00  0.00    +0.000 OA
ATOM     21  C   UNL     1      10.065  -8.415   0.000  0.00  0.00    +0.000 C 
BRANCH  19  22
ATOM     22  O   UNL     1      11.467  -9.240   0.000  0.00  0.00    +0.000 OA
ATOM     23  C   UNL     1      12.169  -9.652   0.000  0.00  0.00    +0.000 C 
ENDBRANCH  19  22
ENDBRANCH  14  18
ENDBRANCH   1  11
BRANCH   2  24
ATOM     24  C   UNL     1       5.197 -10.519   0.000  0.00  0.00    +0.000 C 
BRANCH  24  25
ATOM     25  C   UNL     1       4.496 -10.931   0.000  0.00  0.00    +0.000 A 
ATOM     26  C   UNL     1       3.795 -10.519   0.000  0.00  0.00    +0.000 A 
ATOM     27  C   UNL     1       3.053 -10.931   0.000  0.00  0.00    +0.000 A 
ATOM     28  C   UNL     1       3.053 -11.756   0.000  0.00  0.00    +0.000 A 
ATOM     29  C   UNL     1       3.754 -12.169   0.000  0.00  0.00    +0.000 A 
ATOM     30  C   UNL     1       4.496 -11.756   0.000  0.00  0.00    +0.000 A 
ATOM     31  F   UNL     1       5.197 -12.169   0.000  0.00  0.00    +0.000 F 
ENDBRANCH  24  25
ENDBRANCH   2  24
TORSDOF 5
