REMARK  Name = 
REMARK  1 active torsions:
REMARK  status: ('A' for Active; 'I' for Inactive)
REMARK    1  A    between atoms: C_1  and  C_2
REMARK                            x       y       z     vdW  Elec       q    Type
REMARK                         _______ _______ _______ _____ _____    ______ ____
ROOT
ATOM      1  C   UNL     1       1.356   0.698   0.000  0.00  0.00    +0.000 C 
ATOM      2  C   UNL     1       2.070   1.110   0.000  0.00  0.00    +0.000 C 
ATOM      3  C   UNL     1       2.070   1.935   0.000  0.00  0.00    +0.000 C 
ATOM      4  C   UNL     1       1.356   2.348   0.000  0.00  0.00    +0.000 C 
ATOM      5  C   UNL     1       0.641   1.935   0.000  0.00  0.00    +0.000 A 
ATOM      6  N   UNL     1      -0.143   2.190   0.000  0.00  0.00    +0.000 NA
ATOM      7  N   UNL     1      -0.628   1.523   0.000  0.00  0.00    +0.000 NA
ATOM      8  N   UNL     1      -0.143   0.856   0.000  0.00  0.00    +0.000 NA
ATOM      9  N   UNL     1       0.641   1.110   0.000  0.00  0.00    +0.000 N 
ATOM     10  O   UNL     1       2.784   0.698   0.000  0.00  0.00    +0.000 OA
ATOM     11  O   UNL     1       2.784   2.348   0.000  0.00  0.00    +0.000 OA
ATOM     12  O   UNL     1       1.356   3.173   0.000  0.00  0.00    +0.000 OA
ENDROOT
BRANCH   1  13
ATOM     13  C   UNL     1       1.356  -0.127   0.000  0.00  0.00    +0.000 C 
ATOM     14  O   UNL     1       0.641  -0.540   0.000  0.00  0.00    +0.000 OA
ENDBRANCH   1  13
TORSDOF 1
