REMARK  Name = 
REMARK  4 active torsions:
REMARK  status: ('A' for Active; 'I' for Inactive)
REMARK    1  A    between atoms: N_6  and  C_8
REMARK    2  A    between atoms: N_6  and  C_11
REMARK    3  A    between atoms: C_9  and  C_16
REMARK    4  A    between atoms: C_14  and  C_20
REMARK                            x       y       z     vdW  Elec       q    Type
REMARK                         _______ _______ _______ _____ _____    ______ ____
ROOT
ATOM      1  N   UNL     1       3.793   0.229   0.000  0.00  0.00    +0.000 NA
ENDROOT
BRANCH   1   3
ATOM      2  N   UNL     1       5.222   0.229   0.000  0.00  0.00    +0.000 NA
ATOM      3  C   UNL     1       4.508   0.642   0.000  0.00  0.00    +0.000 A 
ATOM      4  C   UNL     1       4.508   1.467   0.000  0.00  0.00    +0.000 A 
ATOM      5  C   UNL     1       5.222   1.879   0.000  0.00  0.00    +0.000 A 
ATOM      6  C   UNL     1       5.937   1.467   0.000  0.00  0.00    +0.000 A 
ATOM      7  C   UNL     1       5.937   0.642   0.000  0.00  0.00    +0.000 A 
BRANCH   4  10
ATOM      8  O   UNL     1       3.793   2.704   0.000  0.00  0.00    +0.000 OA
ATOM      9  O   UNL     1       3.079   1.467   0.000  0.00  0.00    +0.000 OA
ATOM     10  C   UNL     1       3.793   1.879   0.000  0.00  0.00    +0.000 C 
ENDBRANCH   4  10
ENDBRANCH   1   3
BRANCH   1  11
ATOM     11  C   UNL     1       3.793  -0.596   0.000  0.00  0.00    +0.000 A 
ATOM     12  C   UNL     1       3.079  -1.833   0.000  0.00  0.00    +0.000 A 
ATOM     13  C   UNL     1       3.079  -1.008   0.000  0.00  0.00    +0.000 A 
ATOM     14  C   UNL     1       4.508  -1.008   0.000  0.00  0.00    +0.000 A 
ATOM     15  C   UNL     1       3.793  -2.246   0.000  0.00  0.00    +0.000 A 
ATOM     16  C   UNL     1       4.508  -1.833   0.000  0.00  0.00    +0.000 A 
BRANCH  12  20
ATOM     17  F   UNL     1       1.650  -2.658   0.000  0.00  0.00    +0.000 F 
ATOM     18  F   UNL     1       2.777  -2.960   0.000  0.00  0.00    +0.000 F 
ATOM     19  F   UNL     1       1.952  -1.531   0.000  0.00  0.00    +0.000 F 
ATOM     20  C   UNL     1       2.365  -2.246   0.000  0.00  0.00    +0.000 C 
ENDBRANCH  12  20
ENDBRANCH   1  11
TORSDOF 4
