REMARK  Name = 
REMARK  3 active torsions:
REMARK  status: ('A' for Active; 'I' for Inactive)
REMARK    1  A    between atoms: C_4  and  C_12
REMARK    2  A    between atoms: C_6  and  N_7
REMARK    3  A    between atoms: N_7  and  S_8
REMARK                            x       y       z     vdW  Elec       q    Type
REMARK                         _______ _______ _______ _____ _____    ______ ____
ROOT
ATOM      1  C   UNL     1       0.715  -0.412   0.000  0.00  0.00    +0.000 C 
ATOM      2  N   UNL     1       0.715  -1.238   0.000  0.00  0.00    +0.000 N 
ATOM      3  N   UNL     1       1.382  -1.722   0.000  0.00  0.00    +0.000 NA
ATOM      4  C   UNL     1       1.127  -2.507   0.000  0.00  0.00    +0.000 A 
ATOM      5  C   UNL     1       0.302  -2.507   0.000  0.00  0.00    +0.000 A 
ATOM      6  C   UNL     1       0.047  -1.722   0.000  0.00  0.00    +0.000 A 
ENDROOT
BRANCH   4   7
ATOM      7  C   UNL     1       1.612  -3.175   0.000  0.00  0.00    +0.000 A 
ATOM      8  C   UNL     1       2.432  -3.088   0.000  0.00  0.00    +0.000 A 
ATOM      9  C   UNL     1       2.917  -3.756   0.000  0.00  0.00    +0.000 A 
ATOM     10  C   UNL     1       2.582  -4.509   0.000  0.00  0.00    +0.000 A 
ATOM     11  C   UNL     1       1.761  -4.596   0.000  0.00  0.00    +0.000 A 
ATOM     12  C   UNL     1       1.276  -3.928   0.000  0.00  0.00    +0.000 A 
ENDBRANCH   4   7
BRANCH   6  13
ATOM     13  N   UNL     1      -0.738  -1.468   0.000  0.00  0.00    +0.000 NA
BRANCH  13  14
ATOM     14  S   UNL     1      -0.909  -0.660   0.000  0.00  0.00    +0.000 S 
ATOM     15  O   UNL     1      -1.081   0.146   0.000  0.00  0.00    +0.000 OA
ATOM     16  O   UNL     1      -1.716  -0.832   0.000  0.00  0.00    +0.000 OA
ATOM     17  O   UNL     1      -0.102  -0.489   0.000  0.00  0.00    +0.000 OA
ENDBRANCH  13  14
ENDBRANCH   6  13
TORSDOF 3
