REMARK  Name = 
REMARK  5 active torsions:
REMARK  status: ('A' for Active; 'I' for Inactive)
REMARK    1  A    between atoms: C_2  and  C_3
REMARK    2  A    between atoms: C_3  and  O_4
REMARK    3  A    between atoms: O_4  and  P_5
REMARK    4  A    between atoms: P_5  and  O_8
REMARK    5  A    between atoms: O_8  and  P_9
REMARK                            x       y       z     vdW  Elec       q    Type
REMARK                         _______ _______ _______ _____ _____    ______ ____
ROOT
ATOM      1  P   UNL     1       3.904  -1.429   0.000  0.00  0.00    +0.000 P 
ATOM      2  O   UNL     1       3.491  -2.143   0.000  0.00  0.00    +0.000 OA
ATOM      3  O   UNL     1       4.316  -0.715   0.000  0.00  0.00    +0.000 OA
ENDROOT
BRANCH   1   4
ATOM      4  O   UNL     1       3.189  -1.016   0.000  0.00  0.00    +0.000 OA
BRANCH   4   5
ATOM      5  C   UNL     1       2.475  -1.429   0.000  0.00  0.00    +0.000 C 
BRANCH   5   7
ATOM      6  C   UNL     1       1.046  -1.429   0.000  0.00  0.00    +0.000 C 
ATOM      7  C   UNL     1       1.760  -1.016   0.000  0.00  0.00    +0.000 C 
ENDBRANCH   5   7
ENDBRANCH   4   5
ENDBRANCH   1   4
BRANCH   1   8
ATOM      8  O   UNL     1       4.618  -1.841   0.000  0.00  0.00    +0.000 OA
BRANCH   8   9
ATOM      9  P   UNL     1       5.333  -1.429   0.000  0.00  0.00    +0.000 P 
ATOM     10  O   UNL     1       6.047  -1.016   0.000  0.00  0.00    +0.000 OA
ATOM     11  O   UNL     1       5.745  -2.143   0.000  0.00  0.00    +0.000 OA
ATOM     12  O   UNL     1       4.920  -0.715   0.000  0.00  0.00    +0.000 OA
ENDBRANCH   8   9
ENDBRANCH   1   8
TORSDOF 5
