REMARK  Name = 
REMARK  3 active torsions:
REMARK  status: ('A' for Active; 'I' for Inactive)
REMARK    1  A    between atoms: C_1  and  C_12
REMARK    2  A    between atoms: C_5  and  C_10
REMARK    3  A    between atoms: C_22  and  C_24
REMARK                            x       y       z     vdW  Elec       q    Type
REMARK                         _______ _______ _______ _____ _____    ______ ____
ROOT
ATOM      1  C   UNL     1      13.182 -10.414   0.000  0.00  0.00    +0.000 A 
ATOM      2  C   UNL     1      13.897 -10.826   0.000  0.00  0.00    +0.000 A 
ATOM      3  C   UNL     1      13.893 -11.654   0.000  0.00  0.00    +0.000 A 
ATOM      4  O   UNL     1      14.615 -10.417   0.000  0.00  0.00    +0.000 OA
ATOM      5  C   UNL     1      12.464 -10.826   0.000  0.00  0.00    +0.000 A 
ATOM      6  C   UNL     1      14.608 -12.066   0.000  0.00  0.00    +0.000 A 
ATOM      7  C   UNL     1      13.182 -12.066   0.000  0.00  0.00    +0.000 A 
ATOM      8  C   UNL     1      15.329 -10.833   0.000  0.00  0.00    +0.000 A 
ATOM      9  C   UNL     1      12.464 -11.654   0.000  0.00  0.00    +0.000 A 
ATOM     10  O   UNL     1      11.753 -10.411   0.000  0.00  0.00    +0.000 OA
ATOM     11  C   UNL     1      15.326 -11.661   0.000  0.00  0.00    +0.000 A 
ATOM     12  O   UNL     1      14.604 -12.894   0.000  0.00  0.00    +0.000 OA
ENDROOT
BRANCH   1  13
ATOM     13  C   UNL     1      13.198  -9.591   0.000  0.00  0.00    +0.000 C 
ATOM     14  C   UNL     1      12.490  -9.166   0.000  0.00  0.00    +0.000 C 
ATOM     15  C   UNL     1      12.506  -8.341   0.000  0.00  0.00    +0.000 C 
ATOM     16  C   UNL     1      13.230  -7.939   0.000  0.00  0.00    +0.000 C 
ATOM     17  C   UNL     1      13.937  -8.368   0.000  0.00  0.00    +0.000 C 
ATOM     18  O   UNL     1      13.963  -9.194   0.000  0.00  0.00    +0.000 OA
ATOM     19  O   UNL     1      11.771  -9.564   0.000  0.00  0.00    +0.000 OA
ATOM     20  O   UNL     1      11.802  -7.912   0.000  0.00  0.00    +0.000 OA
ATOM     21  O   UNL     1      13.246  -7.114   0.000  0.00  0.00    +0.000 OA
BRANCH  17  22
ATOM     22  C   UNL     1      14.661  -7.967   0.000  0.00  0.00    +0.000 C 
ATOM     23  O   UNL     1      14.676  -7.145   0.000  0.00  0.00    +0.000 OA
ENDBRANCH  17  22
ENDBRANCH   1  13
BRANCH  11  24
ATOM     24  C   UNL     1      16.037 -12.073   0.000  0.00  0.00    +0.000 A 
ATOM     25  C   UNL     1      16.071 -12.897   0.000  0.00  0.00    +0.000 A 
ATOM     26  C   UNL     1      16.751 -11.664   0.000  0.00  0.00    +0.000 A 
ATOM     27  C   UNL     1      16.744 -13.316   0.000  0.00  0.00    +0.000 A 
ATOM     28  C   UNL     1      17.462 -12.080   0.000  0.00  0.00    +0.000 A 
ATOM     29  C   UNL     1      17.459 -12.904   0.000  0.00  0.00    +0.000 A 
ATOM     30  O   UNL     1      18.173 -13.323   0.000  0.00  0.00    +0.000 OA
ENDBRANCH  11  24
TORSDOF 3
