REMARK  Name = 
REMARK  4 active torsions:
REMARK  status: ('A' for Active; 'I' for Inactive)
REMARK    1  A    between atoms: C_4  and  C_5
REMARK    2  A    between atoms: C_4  and  C_6
REMARK    3  A    between atoms: C_5  and  C_7
REMARK    4  A    between atoms: C_5  and  SI_12
REMARK                            x       y       z     vdW  Elec       q    Type
REMARK                         _______ _______ _______ _____ _____    ______ ____
ROOT
ATOM      1  C   UNL     1       0.825   0.000   0.000  0.00  0.00    +0.000 C 
ENDROOT
BRANCH   1   5
ATOM      2  C   UNL     1      -0.604   0.825   0.000  0.00  0.00    +0.000 C 
ATOM      3  C   UNL     1      -0.302  -0.302   0.000  0.00  0.00    +0.000 C 
ATOM      4  C   UNL     1       0.523   1.127   0.000  0.00  0.00    +0.000 C 
ATOM      5 SI   UNL     1       0.111   0.412   0.000  0.00  0.00    +0.000 Si
ENDBRANCH   1   5
BRANCH   1   6
ATOM      6  C   UNL     1       0.825  -0.825   0.000  0.00  0.00    +0.000 C 
ATOM      7  O   UNL     1       0.111  -1.238   0.000  0.00  0.00    +0.000 OA
ATOM      8  O   UNL     1       1.540  -1.238   0.000  0.00  0.00    +0.000 OA
ENDBRANCH   1   6
BRANCH   1   9
ATOM      9  C   UNL     1       1.540   0.412   0.000  0.00  0.00    +0.000 C 
BRANCH   9  10
ATOM     10  C   UNL     1       2.254   0.000   0.000  0.00  0.00    +0.000 C 
ATOM     11  O   UNL     1       2.968   0.412   0.000  0.00  0.00    +0.000 OA
ATOM     12  O   UNL     1       2.254  -0.825   0.000  0.00  0.00    +0.000 OA
ENDBRANCH   9  10
ENDBRANCH   1   9
TORSDOF 4
