REMARK  Name = 
REMARK  7 active torsions:
REMARK  status: ('A' for Active; 'I' for Inactive)
REMARK    1  A    between atoms: C_3  and  C_28
REMARK    2  A    between atoms: C_7  and  O_22
REMARK    3  A    between atoms: C_12  and  N_17
REMARK    4  A    between atoms: O_22  and  C_24
REMARK    5  A    between atoms: C_24  and  C_25
REMARK    6  A    between atoms: C_28  and  C_31
REMARK    7  A    between atoms: C_31  and  N_35
REMARK                            x       y       z     vdW  Elec       q    Type
REMARK                         _______ _______ _______ _____ _____    ______ ____
ROOT
ATOM      1  C   UNL     1       2.698  -1.238   0.000  0.00  0.00    +0.000 C 
ATOM      2  C   UNL     1       2.698  -0.412   0.000  0.00  0.00    +0.000 C 
ATOM      3  O   UNL     1       1.914  -1.492   0.000  0.00  0.00    +0.000 OA
ATOM      4  O   UNL     1       1.914  -0.158   0.000  0.00  0.00    +0.000 OA
ATOM      5  C   UNL     1       1.429  -0.825   0.000  0.00  0.00    +0.000 C 
ENDROOT
BRANCH   5   8
ATOM      6  C   UNL     1      -0.715   0.412   0.000  0.00  0.00    +0.000 A 
ATOM      7  C   UNL     1       0.000   0.825   0.000  0.00  0.00    +0.000 A 
ATOM      8  C   UNL     1       0.715  -0.412   0.000  0.00  0.00    +0.000 A 
ATOM      9  C   UNL     1       0.000  -0.825   0.000  0.00  0.00    +0.000 A 
ATOM     10  C   UNL     1      -0.715  -0.412   0.000  0.00  0.00    +0.000 A 
ATOM     11  C   UNL     1       0.715   0.412   0.000  0.00  0.00    +0.000 A 
ATOM     12 CL   UNL     1      -1.429   0.825   0.000  0.00  0.00    +0.000 Cl
ATOM     13 CL   UNL     1       1.429   0.825   0.000  0.00  0.00    +0.000 Cl
ENDBRANCH   5   8
BRANCH   2  14
ATOM     14  C   UNL     1       3.366   0.072   0.000  0.00  0.00    +0.000 C 
BRANCH  14  15
ATOM     15  O   UNL     1       4.120  -0.263   0.000  0.00  0.00    +0.000 OA
BRANCH  15  16
ATOM     16  C   UNL     1       4.834   0.149   0.000  0.00  0.00    +0.000 A 
ATOM     17  C   UNL     1       5.548  -0.263   0.000  0.00  0.00    +0.000 A 
ATOM     18  C   UNL     1       4.834   0.974   0.000  0.00  0.00    +0.000 A 
ATOM     19  C   UNL     1       5.548   1.387   0.000  0.00  0.00    +0.000 A 
ATOM     20  C   UNL     1       6.263   0.149   0.000  0.00  0.00    +0.000 A 
ATOM     21  C   UNL     1       6.263   0.974   0.000  0.00  0.00    +0.000 A 
BRANCH  21  26
ATOM     22  C   UNL     1       7.692   0.974   0.000  0.00  0.00    +0.000 C 
ATOM     23  C   UNL     1       6.977   2.212   0.000  0.00  0.00    +0.000 C 
ATOM     24  C   UNL     1       7.692   2.624   0.000  0.00  0.00    +0.000 C 
ATOM     25  C   UNL     1       8.406   1.387   0.000  0.00  0.00    +0.000 C 
ATOM     26  N   UNL     1       6.977   1.387   0.000  0.00  0.00    +0.000 N 
ATOM     27  N   UNL     1       8.406   2.212   0.000  0.00  0.00    +0.000 N 
ATOM     28  C   UNL     1       9.835   2.212   0.000  0.00  0.00    +0.000 C 
ATOM     29  C   UNL     1       9.121   2.624   0.000  0.00  0.00    +0.000 C 
ATOM     30  O   UNL     1       9.121   3.449   0.000  0.00  0.00    +0.000 OA
ENDBRANCH  21  26
ENDBRANCH  15  16
ENDBRANCH  14  15
ENDBRANCH   2  14
BRANCH   5  31
ATOM     31  C   UNL     1       0.714  -1.238   0.000  0.00  0.00    +0.000 C 
BRANCH  31  35
ATOM     32  C   UNL     1       0.047  -2.547   0.000  0.00  0.00    +0.000 A 
ATOM     33  C   UNL     1       0.302  -3.332   0.000  0.00  0.00    +0.000 A 
ATOM     34  C   UNL     1       1.382  -2.547   0.000  0.00  0.00    +0.000 A 
ATOM     35  N   UNL     1       0.714  -2.062   0.000  0.00  0.00    +0.000 N 
ATOM     36  N   UNL     1       1.127  -3.332   0.000  0.00  0.00    +0.000 NA
ENDBRANCH  31  35
ENDBRANCH   5  31
TORSDOF 7
