REMARK  Name = 
REMARK  6 active torsions:
REMARK  status: ('A' for Active; 'I' for Inactive)
REMARK    1  A    between atoms: S_1  and  C_8
REMARK    2  A    between atoms: S_1  and  C_9
REMARK    3  A    between atoms: N_6  and  C_12
REMARK    4  A    between atoms: N_6  and  C_20
REMARK    5  A    between atoms: N_7  and  C_19
REMARK    6  A    between atoms: C_20  and  C_21
REMARK                            x       y       z     vdW  Elec       q    Type
REMARK                         _______ _______ _______ _____ _____    ______ ____
ROOT
ATOM      1  S   UNL     1       3.079   0.953   0.000  0.00  0.00    +0.000 S 
ATOM      2  O   UNL     1       3.904   0.953   0.000  0.00  0.00    +0.000 OA
ATOM      3  O   UNL     1       2.254   0.953   0.000  0.00  0.00    +0.000 OA
ENDROOT
BRANCH   1   4
ATOM      4  C   UNL     1       3.079   1.778   0.000  0.00  0.00    +0.000 A 
ATOM      5  C   UNL     1       3.793   2.190   0.000  0.00  0.00    +0.000 A 
ATOM      6  C   UNL     1       2.364   2.190   0.000  0.00  0.00    +0.000 A 
ATOM      7  C   UNL     1       3.793   3.015   0.000  0.00  0.00    +0.000 A 
ATOM      8  C   UNL     1       2.364   3.015   0.000  0.00  0.00    +0.000 A 
ATOM      9  C   UNL     1       3.079   3.428   0.000  0.00  0.00    +0.000 A 
BRANCH   9  10
ATOM     10  N   UNL     1       3.079   4.253   0.000  0.00  0.00    +0.000 N 
ATOM     11  H   UNL     1       3.522   4.509   0.000  0.00  0.00    +0.000 HD
ATOM     12  H   UNL     1       2.636   4.509   0.000  0.00  0.00    +0.000 HD
ENDBRANCH   9  10
ENDBRANCH   1   4
BRANCH   1  13
ATOM     13  C   UNL     1       3.079   0.128   0.000  0.00  0.00    +0.000 A 
ATOM     14  C   UNL     1       2.364  -0.284   0.000  0.00  0.00    +0.000 A 
ATOM     15  C   UNL     1       3.793  -0.284   0.000  0.00  0.00    +0.000 A 
ATOM     16  C   UNL     1       3.079  -1.522   0.000  0.00  0.00    +0.000 A 
ATOM     17  C   UNL     1       2.364  -1.110   0.000  0.00  0.00    +0.000 A 
ATOM     18  C   UNL     1       3.793  -1.110   0.000  0.00  0.00    +0.000 A 
BRANCH  16  19
ATOM     19  N   UNL     1       3.079  -2.347   0.000  0.00  0.00    +0.000 N 
ATOM     20  H   UNL     1       3.522  -2.603   0.000  0.00  0.00    +0.000 HD
BRANCH  19  21
ATOM     21  C   UNL     1       2.364  -2.760   0.000  0.00  0.00    +0.000 C 
BRANCH  21  24
ATOM     22  O   UNL     1       1.650  -3.997   0.000  0.00  0.00    +0.000 OA
ATOM     23  O   UNL     1       3.079  -3.997   0.000  0.00  0.00    +0.000 OA
ATOM     24  C   UNL     1       2.364  -3.585   0.000  0.00  0.00    +0.000 C 
ENDBRANCH  21  24
ENDBRANCH  19  21
ENDBRANCH  16  19
ENDBRANCH   1  13
TORSDOF 6
