REMARK  Name = 
REMARK  13 active torsions:
REMARK  status: ('A' for Active; 'I' for Inactive)
REMARK    1  A    between atoms: C_2  and  C_4
REMARK    2  A    between atoms: C_4  and  C_5
REMARK    3  A    between atoms: C_5  and  C_6
REMARK    4  A    between atoms: C_5  and  N_30
REMARK    5  A    between atoms: C_6  and  C_7
REMARK    6  A    between atoms: C_7  and  C_9
REMARK    7  A    between atoms: C_9  and  C_10
REMARK    8  A    between atoms: C_9  and  N_17
REMARK    9  A    between atoms: C_10  and  C_11
REMARK   10  A    between atoms: C_18  and  C_20
REMARK   11  A    between atoms: C_20  and  O_21
REMARK   12  A    between atoms: O_21  and  C_22
REMARK   13  A    between atoms: C_31  and  C_33
REMARK                            x       y       z     vdW  Elec       q    Type
REMARK                         _______ _______ _______ _____ _____    ______ ____
ROOT
ATOM      1  C   UNL     1       5.716  -6.600   0.000  0.00  0.00    +0.000 C 
ENDROOT
BRANCH   1   2
ATOM      2  N   UNL     1       5.001  -6.188   0.000  0.00  0.00    +0.000 NA
ATOM      3  C   UNL     1       4.287  -6.600   0.000  0.00  0.00    +0.000 C 
ATOM      4  O   UNL     1       4.287  -7.425   0.000  0.00  0.00    +0.000 OA
BRANCH   3   5
ATOM      5  C   UNL     1       3.572  -6.188   0.000  0.00  0.00    +0.000 C 
BRANCH   5   6
ATOM      6  O   UNL     1       2.858  -6.600   0.000  0.00  0.00    +0.000 OA
BRANCH   6   7
ATOM      7  C   UNL     1       2.143  -6.188   0.000  0.00  0.00    +0.000 A 
ATOM      8  C   UNL     1       1.429  -6.600   0.000  0.00  0.00    +0.000 A 
ATOM      9  C   UNL     1       1.429  -7.425   0.000  0.00  0.00    +0.000 C 
ATOM     10  C   UNL     1       0.715  -6.188   0.000  0.00  0.00    +0.000 A 
ATOM     11  C   UNL     1       0.715  -5.362   0.000  0.00  0.00    +0.000 A 
ATOM     12  C   UNL     1       1.429  -4.950   0.000  0.00  0.00    +0.000 A 
ATOM     13  C   UNL     1       2.143  -5.362   0.000  0.00  0.00    +0.000 A 
ATOM     14  C   UNL     1       2.858  -4.950   0.000  0.00  0.00    +0.000 C 
ENDBRANCH   6   7
ENDBRANCH   5   6
ENDBRANCH   3   5
ENDBRANCH   1   2
BRANCH   1  15
ATOM     15  C   UNL     1       6.430  -6.188   0.000  0.00  0.00    +0.000 C 
ATOM     16  O   UNL     1       6.430  -5.362   0.000  0.00  0.00    +0.000 OA
BRANCH  15  17
ATOM     17  C   UNL     1       7.145  -6.600   0.000  0.00  0.00    +0.000 C 
BRANCH  17  18
ATOM     18  C   UNL     1       7.859  -6.188   0.000  0.00  0.00    +0.000 C 
BRANCH  18  19
ATOM     19  N   UNL     1       8.574  -6.600   0.000  0.00  0.00    +0.000 NA
ATOM     20  C   UNL     1       9.288  -6.188   0.000  0.00  0.00    +0.000 C 
ATOM     21  O   UNL     1       9.773  -5.520   0.000  0.00  0.00    +0.000 OA
BRANCH  20  22
ATOM     22  C   UNL     1      10.003  -6.600   0.000  0.00  0.00    +0.000 A 
ATOM     23  C   UNL     1      10.717  -6.188   0.000  0.00  0.00    +0.000 A 
ATOM     24  C   UNL     1      11.431  -6.600   0.000  0.00  0.00    +0.000 A 
ATOM     25  C   UNL     1      11.431  -7.425   0.000  0.00  0.00    +0.000 A 
ATOM     26  N   UNL     1      12.146  -7.838   0.000  0.00  0.00    +0.000 NA
ATOM     27  C   UNL     1      10.717  -7.838   0.000  0.00  0.00    +0.000 A 
ATOM     28  C   UNL     1      10.003  -7.425   0.000  0.00  0.00    +0.000 A 
ENDBRANCH  20  22
ENDBRANCH  18  19
BRANCH  18  29
ATOM     29  C   UNL     1       7.859  -5.362   0.000  0.00  0.00    +0.000 C 
BRANCH  29  31
ATOM     30  C   UNL     1       9.288  -5.362   0.000  0.00  0.00    +0.000 C 
ATOM     31  C   UNL     1       8.574  -4.950   0.000  0.00  0.00    +0.000 C 
ATOM     32  C   UNL     1       8.574  -4.125   0.000  0.00  0.00    +0.000 C 
ENDBRANCH  29  31
ENDBRANCH  18  29
ENDBRANCH  17  18
ENDBRANCH  15  17
ENDBRANCH   1  15
BRANCH   1  33
ATOM     33  C   UNL     1       5.716  -7.425   0.000  0.00  0.00    +0.000 C 
BRANCH  33  34
ATOM     34  C   UNL     1       6.430  -7.838   0.000  0.00  0.00    +0.000 A 
ATOM     35  C   UNL     1       7.145  -7.425   0.000  0.00  0.00    +0.000 A 
ATOM     36  C   UNL     1       7.859  -7.838   0.000  0.00  0.00    +0.000 A 
ATOM     37  C   UNL     1       7.859  -8.662   0.000  0.00  0.00    +0.000 A 
ATOM     38  C   UNL     1       7.145  -9.075   0.000  0.00  0.00    +0.000 A 
ATOM     39  C   UNL     1       6.430  -8.662   0.000  0.00  0.00    +0.000 A 
ENDBRANCH  33  34
ENDBRANCH   1  33
TORSDOF 13
