REMARK  Name = 
REMARK  2 active torsions:
REMARK  status: ('A' for Active; 'I' for Inactive)
REMARK    1  A    between atoms: CA_2  and  N_3
REMARK    2  A    between atoms: CA_2  and  C_7
REMARK                            x       y       z     vdW  Elec       q    Type
REMARK                         _______ _______ _______ _____ _____    ______ ____
ROOT
ATOM      1  CB  ALA A   1       1.952   1.952   0.000  0.00  0.00    +0.000 C 
ATOM      2  CA  ALA A   1       1.952   1.127   0.000  0.00  0.00    +0.000 C 
ENDROOT
BRANCH   2   3
ATOM      3  N   ALA A   1       1.238   0.715   0.000  0.00  0.00    +0.000 NA
ATOM      4  C   UNK A   0       0.523   1.127   0.000  0.00  0.00    +0.000 C 
ATOM      5  N   UNK A   0      -0.191   0.715   0.000  0.00  0.00    +0.000 NA
ATOM      6  O   UNK A   0       0.523   1.952   0.000  0.00  0.00    +0.000 OA
ENDBRANCH   2   3
BRANCH   2   7
ATOM      7  C   ALA A   1       2.666   0.715   0.000  0.00  0.00    +0.000 C 
ATOM      8  O   ALA A   1       3.381   1.127   0.000  0.00  0.00    +0.000 OA
ATOM      9  OXT ALA A   1       2.666  -0.111   0.000  0.00  0.00    +0.000 OA
ENDBRANCH   2   7
TORSDOF 2
