REMARK  Name = 
REMARK  0 active torsions:
REMARK  status: ('A' for Active; 'I' for Inactive)
REMARK                            x       y       z     vdW  Elec       q    Type
REMARK                         _______ _______ _______ _____ _____    ______ ____
ROOT
ATOM      1  C   UNL     1       0.323   0.081   0.000  0.00  0.00    +0.000 A 
ATOM      2  C   UNL     1       1.132  -0.081   0.000  0.00  0.00    +0.000 A 
ATOM      3  C   UNL     1       1.537  -0.809   0.000  0.00  0.00    +0.000 A 
ATOM      4  C   UNL     1       1.051  -1.456   0.000  0.00  0.00    +0.000 A 
ATOM      5  C   UNL     1       0.242  -1.375   0.000  0.00  0.00    +0.000 A 
ATOM      6  C   UNL     1      -0.081  -0.647   0.000  0.00  0.00    +0.000 A 
ATOM      7  C   UNL     1      -0.889  -0.404   0.000  0.00  0.00    +0.000 C 
ATOM      8  O   UNL     1      -1.537  -0.809   0.000  0.00  0.00    +0.000 OA
ATOM      9  N   UNL     1      -0.889   0.404   0.000  0.00  0.00    +0.000 NA
ATOM     10  S   UNL     1      -0.081   0.728   0.000  0.00  0.00    +0.000 S 
ATOM     11  O   UNL     1      -0.485   1.456   0.000  0.00  0.00    +0.000 OA
ATOM     12  O   UNL     1       0.566   1.213   0.000  0.00  0.00    +0.000 OA
ENDROOT
TORSDOF 0
