REMARK  Name = 
REMARK  11 active torsions:
REMARK  status: ('A' for Active; 'I' for Inactive)
REMARK    1  A    between atoms: CB_8  and  CA_9
REMARK    2  A    between atoms: CB_8  and  OG_32
REMARK    3  A    between atoms: CA_9  and  C_17
REMARK    4  A    between atoms: C_10  and  O_30
REMARK    5  A    between atoms: C_11  and  O_31
REMARK    6  A    between atoms: C_12  and  C_15
REMARK    7  A    between atoms: C_13  and  C_16
REMARK    8  A    between atoms: C_13  and  C_19
REMARK    9  A    between atoms: C_13  and  N_22
REMARK   10  A    between atoms: CA_14  and  C_18
REMARK   11  A    between atoms: C_19  and  OG_32
REMARK                            x       y       z     vdW  Elec       q    Type
REMARK                         _______ _______ _______ _____ _____    ______ ____
ROOT
ATOM      1  C   UNL     1       9.288   1.238   0.000  0.00  0.00    +0.000 C 
ENDROOT
BRANCH   1   5
ATOM      2  C   UNL     1       9.614  -1.677   0.000  0.00  0.00    +0.000 C 
ATOM      3  C   UNL     1      10.508  -1.029   0.000  0.00  0.00    +0.000 C 
ATOM      4  CA  UNL     1       8.876  -0.857   0.000  0.00  0.00    +0.000 C 
ATOM      5  C   UNL     1       9.288   0.412   0.000  0.00  0.00    +0.000 C 
ATOM      6  C   UNL     1       9.701  -0.857   0.000  0.00  0.00    +0.000 C 
ATOM      7  N   UNL     1       8.621  -0.072   0.000  0.00  0.00    +0.000 NA
ATOM      8  S   UNL     1       9.956  -0.072   0.000  0.00  0.00    +0.000 S 
BRANCH   4   9
ATOM      9  C   UNL     1       8.391  -1.524   0.000  0.00  0.00    +0.000 C 
ATOM     10  O   UNL     1       7.570  -1.438   0.000  0.00  0.00    +0.000 OA
ATOM     11  OXT UNL     1       8.726  -2.278   0.000  0.00  0.00    +0.000 OA
ENDBRANCH   4   9
ENDBRANCH   1   5
BRANCH   1  13
ATOM     12  C   UNL     1      10.717   1.238   0.000  0.00  0.00    +0.000 C 
ATOM     13  N   UNL     1      10.003   1.650   0.000  0.00  0.00    +0.000 NA
ATOM     14  O   UNL     1      10.717   0.412   0.000  0.00  0.00    +0.000 OA
BRANCH  12  20
ATOM     15  C   UNL     1      12.861   2.475   0.000  0.00  0.00    +0.000 A 
ATOM     16  C   UNL     1      12.146   2.888   0.000  0.00  0.00    +0.000 A 
ATOM     17  C   UNL     1      12.861   1.650   0.000  0.00  0.00    +0.000 A 
ATOM     18  C   UNL     1      11.431   2.475   0.000  0.00  0.00    +0.000 A 
ATOM     19  C   UNL     1      12.146   1.238   0.000  0.00  0.00    +0.000 A 
ATOM     20  C   UNL     1      11.431   1.650   0.000  0.00  0.00    +0.000 A 
BRANCH  18  22
ATOM     21  C   UNL     1      10.717   3.712   0.000  0.00  0.00    +0.000 C 
ATOM     22  O   UNL     1      10.717   2.888   0.000  0.00  0.00    +0.000 OA
ENDBRANCH  18  22
BRANCH  19  24
ATOM     23  C   UNL     1      11.431   0.000   0.000  0.00  0.00    +0.000 C 
ATOM     24  O   UNL     1      12.146   0.412   0.000  0.00  0.00    +0.000 OA
ENDBRANCH  19  24
ENDBRANCH  12  20
ENDBRANCH   1  13
BRANCH   1  25
ATOM     25  C   UNL     1       8.574   1.650   0.000  0.00  0.00    +0.000 C 
ATOM     26  O   UNL     1       8.574   2.475   0.000  0.00  0.00    +0.000 OA
BRANCH  25  27
ATOM     27  OG  UNL     1       7.859   1.238   0.000  0.00  0.00    +0.000 OA
BRANCH  27  28
ATOM     28  CB  UNL     1       7.145   1.650   0.000  0.00  0.00    +0.000 C 
BRANCH  28  29
ATOM     29  CA  UNL     1       6.430   1.238   0.000  0.00  0.00    +0.000 C 
ATOM     30  N   UNL     1       6.430   0.412   0.000  0.00  0.00    +0.000 NA
BRANCH  29  31
ATOM     31  C   UNL     1       5.716   1.650   0.000  0.00  0.00    +0.000 C 
ATOM     32  O   UNL     1       5.001   1.238   0.000  0.00  0.00    +0.000 OA
ATOM     33  OXT UNL     1       5.716   2.475   0.000  0.00  0.00    +0.000 OA
ENDBRANCH  29  31
ENDBRANCH  28  29
ENDBRANCH  27  28
ENDBRANCH  25  27
ENDBRANCH   1  25
TORSDOF 11
