REMARK  Name = 
REMARK  1 active torsions:
REMARK  status: ('A' for Active; 'I' for Inactive)
REMARK    1  A    between atoms: C_9  and  O_16
REMARK                            x       y       z     vdW  Elec       q    Type
REMARK                         _______ _______ _______ _____ _____    ______ ____
ROOT
ATOM      1  C   UNL     1       0.205  -1.157   0.000  0.00  0.00    +0.000 C 
ATOM      2  C   UNL     1       3.705   1.026   0.000  0.00  0.00    +0.000 A 
ATOM      3  C   UNL     1       2.898   1.197   0.000  0.00  0.00    +0.000 A 
ATOM      4  C   UNL     1       0.969   1.197   0.000  0.00  0.00    +0.000 C 
ATOM      5  C   UNL     1       0.162   1.026   0.000  0.00  0.00    +0.000 C 
ATOM      6  C   UNL     1       3.408  -0.372   0.000  0.00  0.00    +0.000 A 
ATOM      7  C   UNL     1       0.460  -0.372   0.000  0.00  0.00    +0.000 C 
ATOM      8  C   UNL     1       3.960   0.241   0.000  0.00  0.00    +0.000 A 
ATOM      9  C   UNL     1       2.346   0.584   0.000  0.00  0.00    +0.000 A 
ATOM     10  C   UNL     1       1.521   0.584   0.000  0.00  0.00    +0.000 A 
ATOM     11  C   UNL     1       2.601  -0.201   0.000  0.00  0.00    +0.000 A 
ATOM     12  C   UNL     1       1.266  -0.201   0.000  0.00  0.00    +0.000 A 
ATOM     13  N   UNL     1      -0.092   0.241   0.000  0.00  0.00    +0.000 NA
ATOM     14  N   UNL     1       1.934  -0.685   0.000  0.00  0.00    +0.000 NA
ENDROOT
BRANCH   8  16
ATOM     15  C   UNL     1       5.319   0.682   0.000  0.00  0.00    +0.000 C 
ATOM     16  O   UNL     1       4.767   0.069   0.000  0.00  0.00    +0.000 OA
ENDBRANCH   8  16
TORSDOF 1
