REMARK  Name = 
REMARK  10 active torsions:
REMARK  status: ('A' for Active; 'I' for Inactive)
REMARK    1  A    between atoms: O_10  and  C_26
REMARK    2  A    between atoms: O_10  and  C_36
REMARK    3  A    between atoms: O_11  and  C_29
REMARK    4  A    between atoms: N_15  and  C_17
REMARK    5  A    between atoms: N_15  and  C_23
REMARK    6  A    between atoms: C_16  and  C_21
REMARK    7  A    between atoms: C_23  and  C_30
REMARK    8  A    between atoms: C_27  and  C_31
REMARK    9  A    between atoms: C_34  and  C_40
REMARK   10  A    between atoms: C_35  and  C_39
REMARK                            x       y       z     vdW  Elec       q    Type
REMARK                         _______ _______ _______ _____ _____    ______ ____
ROOT
ATOM      1  O   UNL     1       5.222   3.038   0.000  0.00  0.00    +0.000 OA
ATOM      2  N   UNL     1       4.508   1.801   0.000  0.00  0.00    +0.000 N 
ATOM      3  C   UNL     1       3.793   1.389   0.000  0.00  0.00    +0.000 C 
ATOM      4  C   UNL     1       4.508   0.151   0.000  0.00  0.00    +0.000 C 
ATOM      5  C   UNL     1       3.793   0.564   0.000  0.00  0.00    +0.000 C 
ATOM      6  C   UNL     1       5.222   0.564   0.000  0.00  0.00    +0.000 A 
ATOM      7  C   UNL     1       5.222   1.389   0.000  0.00  0.00    +0.000 A 
ATOM      8  C   UNL     1       5.960   0.122   0.000  0.00  0.00    +0.000 A 
ATOM      9  C   UNL     1       5.960   1.830   0.000  0.00  0.00    +0.000 A 
ATOM     10  C   UNL     1       4.508   2.626   0.000  0.00  0.00    +0.000 C 
ATOM     11  C   UNL     1       6.707   0.546   0.000  0.00  0.00    +0.000 A 
ATOM     12  C   UNL     1       6.707   1.406   0.000  0.00  0.00    +0.000 A 
ENDROOT
BRANCH  11  16
ATOM     13  F   UNL     1       8.133  -0.284   0.000  0.00  0.00    +0.000 F 
ATOM     14  F   UNL     1       7.836   0.844   0.000  0.00  0.00    +0.000 F 
ATOM     15  F   UNL     1       7.005  -0.582   0.000  0.00  0.00    +0.000 F 
ATOM     16  C   UNL     1       7.420   0.131   0.000  0.00  0.00    +0.000 C 
ENDBRANCH  11  16
BRANCH   4  18
ATOM     17  O   UNL     1       5.937  -0.674   0.000  0.00  0.00    +0.000 OA
ATOM     18  N   UNL     1       4.508  -0.674   0.000  0.00  0.00    +0.000 N 
ATOM     19  C   UNL     1       5.222  -1.087   0.000  0.00  0.00    +0.000 C 
BRANCH  19  20
ATOM     20  O   UNL     1       5.222  -1.912   0.000  0.00  0.00    +0.000 OA
ATOM     21  C   UNL     1       5.937  -2.324   0.000  0.00  0.00    +0.000 C 
ENDBRANCH  19  20
BRANCH  18  22
ATOM     22  C   UNL     1       3.793  -1.087   0.000  0.00  0.00    +0.000 C 
BRANCH  22  23
ATOM     23  C   UNL     1       3.793  -1.912   0.000  0.00  0.00    +0.000 A 
ATOM     24  C   UNL     1       4.508  -2.324   0.000  0.00  0.00    +0.000 A 
ATOM     25  C   UNL     1       3.079  -2.324   0.000  0.00  0.00    +0.000 A 
ATOM     26  C   UNL     1       4.508  -3.149   0.000  0.00  0.00    +0.000 A 
ATOM     27  C   UNL     1       3.079  -3.149   0.000  0.00  0.00    +0.000 A 
ATOM     28  C   UNL     1       3.793  -3.562   0.000  0.00  0.00    +0.000 A 
BRANCH  26  32
ATOM     29  F   UNL     1       5.635  -2.847   0.000  0.00  0.00    +0.000 F 
ATOM     30  F   UNL     1       4.810  -4.276   0.000  0.00  0.00    +0.000 F 
ATOM     31  F   UNL     1       5.937  -3.974   0.000  0.00  0.00    +0.000 F 
ATOM     32  C   UNL     1       5.222  -3.562   0.000  0.00  0.00    +0.000 C 
ENDBRANCH  26  32
BRANCH  27  36
ATOM     33  F   UNL     1       1.952  -2.847   0.000  0.00  0.00    +0.000 F 
ATOM     34  F   UNL     1       2.777  -4.276   0.000  0.00  0.00    +0.000 F 
ATOM     35  F   UNL     1       1.650  -3.974   0.000  0.00  0.00    +0.000 F 
ATOM     36  C   UNL     1       2.365  -3.562   0.000  0.00  0.00    +0.000 C 
ENDBRANCH  27  36
ENDBRANCH  22  23
ENDBRANCH  18  22
ENDBRANCH   4  18
BRANCH   3  37
ATOM     37  C   UNL     1       3.079   1.801   0.000  0.00  0.00    +0.000 C 
ATOM     38  C   UNL     1       2.365   1.389   0.000  0.00  0.00    +0.000 C 
ENDBRANCH   3  37
BRANCH  10  39
ATOM     39  O   UNL     1       3.793   3.038   0.000  0.00  0.00    +0.000 OA
BRANCH  39  40
ATOM     40  C   UNL     1       3.793   3.864   0.000  0.00  0.00    +0.000 C 
ATOM     41  C   UNL     1       3.079   4.276   0.000  0.00  0.00    +0.000 C 
ENDBRANCH  39  40
ENDBRANCH  10  39
TORSDOF 10
