REMARK  Name = 
REMARK  6 active torsions:
REMARK  status: ('A' for Active; 'I' for Inactive)
REMARK    1  A    between atoms: N_1  and  C_3
REMARK    2  A    between atoms: C_12  and  C_18
REMARK    3  A    between atoms: C_18  and  O_20
REMARK    4  A    between atoms: O_20  and  P_21
REMARK    5  A    between atoms: P_21  and  O_22
REMARK    6  A    between atoms: O_22  and  P_25
REMARK                            x       y       z     vdW  Elec       q    Type
REMARK                         _______ _______ _______ _____ _____    ______ ____
ROOT
ATOM      1  C   UNL     1       0.832   0.297   0.000  0.00  0.00    +0.000 C 
ATOM      2  O   UNL     1       0.159   0.804   0.000  0.00  0.00    +0.000 OA
ATOM      3  C   UNL     1       0.577  -0.445   0.000  0.00  0.00    +0.000 C 
ATOM      4  C   UNL     1      -0.497   0.331   0.000  0.00  0.00    +0.000 C 
ATOM      5  C   UNL     1      -0.242  -0.445   0.000  0.00  0.00    +0.000 C 
ATOM      6  O   UNL     1       1.056  -1.118   0.000  0.00  0.00    +0.000 OA
ATOM      7  O   UNL     1      -0.507  -1.229   0.000  0.00  0.00    +0.000 OA
ENDROOT
BRANCH   1   8
ATOM      8  N   UNL     1       1.598   0.545   0.000  0.00  0.00    +0.000 N 
ATOM      9  C   UNL     1       2.227   0.107   0.000  0.00  0.00    +0.000 A 
ATOM     10  C   UNL     1       1.881   1.374   0.000  0.00  0.00    +0.000 A 
ATOM     11  C   UNL     1       2.962   0.645   0.000  0.00  0.00    +0.000 A 
ATOM     12  N   UNL     1       2.309  -0.735   0.000  0.00  0.00    +0.000 NA
ATOM     13  N   UNL     1       2.741   1.371   0.000  0.00  0.00    +0.000 NA
ATOM     14  C   UNL     1       3.704   0.318   0.000  0.00  0.00    +0.000 A 
ATOM     15  C   UNL     1       3.093  -1.084   0.000  0.00  0.00    +0.000 A 
ATOM     16  N   UNL     1       3.801  -0.566   0.000  0.00  0.00    +0.000 NA
ATOM     17  O   UNL     1       4.363   0.808   0.000  0.00  0.00    +0.000 OA
ATOM     18  N   UNL     1       3.183  -1.905   0.000  0.00  0.00    +0.000 NA
ENDBRANCH   1   8
BRANCH   4  19
ATOM     19  C   UNL     1      -1.284   0.587   0.000  0.00  0.00    +0.000 C 
BRANCH  19  20
ATOM     20  O   UNL     1      -1.899   0.038   0.000  0.00  0.00    +0.000 OA
BRANCH  20  21
ATOM     21  P   UNL     1      -2.724   0.038   0.000  0.00  0.00    +0.000 P 
ATOM     22  O   UNL     1      -2.727  -0.790   0.000  0.00  0.00    +0.000 OA
ATOM     23  O   UNL     1      -2.727   0.863   0.000  0.00  0.00    +0.000 OA
BRANCH  21  24
ATOM     24  O   UNL     1      -3.549   0.038   0.000  0.00  0.00    +0.000 OA
BRANCH  24  25
ATOM     25  P   UNL     1      -4.374   0.041   0.000  0.00  0.00    +0.000 P 
ATOM     26  O   UNL     1      -4.381  -0.787   0.000  0.00  0.00    +0.000 OA
ATOM     27  O   UNL     1      -5.202   0.041   0.000  0.00  0.00    +0.000 OA
ATOM     28  O   UNL     1      -4.381   0.866   0.000  0.00  0.00    +0.000 OA
ENDBRANCH  24  25
ENDBRANCH  21  24
ENDBRANCH  20  21
ENDBRANCH  19  20
ENDBRANCH   4  19
TORSDOF 6
