REMARK  Name = 
REMARK  8 active torsions:
REMARK  status: ('A' for Active; 'I' for Inactive)
REMARK    1  A    between atoms: C_7  and  C_21
REMARK    2  A    between atoms: C_8  and  C_22
REMARK    3  A    between atoms: C_9  and  C_11
REMARK    4  A    between atoms: C_9  and  C_23
REMARK    5  A    between atoms: C_10  and  C_12
REMARK    6  A    between atoms: C_10  and  C_24
REMARK    7  A    between atoms: C_11  and  C_33
REMARK    8  A    between atoms: C_12  and  C_34
REMARK                            x       y       z     vdW  Elec       q    Type
REMARK                         _______ _______ _______ _____ _____    ______ ____
ROOT
ATOM      1  C   UNL     1       1.007   0.946   0.000  0.00  0.00    +0.000 C 
ATOM      2  C   UNL     1       3.333  -3.482   0.000  0.00  0.00    +0.000 C 
ATOM      3  C   UNL     1       3.393   0.455   0.000  0.00  0.00    +0.000 C 
ATOM      4  C   UNL     1       7.711  -1.111   0.000  0.00  0.00    +0.000 C 
ATOM      5  C   UNL     1       2.950   1.499   0.000  0.00  0.00    +0.000 C 
ATOM      6  C   UNL     1       2.755  -1.485   0.000  0.00  0.00    +0.000 C 
ATOM      7  C   UNL     1       5.739  -1.679   0.000  0.00  0.00    +0.000 C 
ATOM      8  C   UNL     1       5.933   1.304   0.000  0.00  0.00    +0.000 C 
ATOM      9  C   UNL     1       1.629   0.358   0.000  0.00  0.00    +0.000 A 
ATOM     10  C   UNL     1       3.895  -2.805   0.000  0.00  0.00    +0.000 A 
ATOM     11  C   UNL     1       3.867   1.112   0.000  0.00  0.00    +0.000 A 
ATOM     12  C   UNL     1       7.059  -0.539   0.000  0.00  0.00    +0.000 A 
ATOM     13  C   UNL     1       1.576  -0.465   0.000  0.00  0.00    +0.000 A 
ATOM     14  C   UNL     1       4.719  -2.858   0.000  0.00  0.00    +0.000 A 
ATOM     15  C   UNL     1       4.690   1.058   0.000  0.00  0.00    +0.000 A 
ATOM     16  C   UNL     1       7.112   0.284   0.000  0.00  0.00    +0.000 A 
ATOM     17  C   UNL     1       2.429   0.562   0.000  0.00  0.00    +0.000 A 
ATOM     18  C   UNL     1       3.664   1.912   0.000  0.00  0.00    +0.000 A 
ATOM     19  C   UNL     1       3.692  -2.005   0.000  0.00  0.00    +0.000 A 
ATOM     20  C   UNL     1       6.259  -0.742   0.000  0.00  0.00    +0.000 A 
ATOM     21  C   UNL     1       2.342  -0.770   0.000  0.00  0.00    +0.000 A 
ATOM     22  C   UNL     1       5.024  -2.092   0.000  0.00  0.00    +0.000 A 
ATOM     23  C   UNL     1       4.996   1.825   0.000  0.00  0.00    +0.000 A 
ATOM     24  C   UNL     1       6.346   0.590   0.000  0.00  0.00    +0.000 A 
ATOM     25 CO   UNL     1       4.360   0.152   0.000  0.00  0.00    +0.000 Co
ATOM     26  N   UNL     1       2.869  -0.136   0.000  0.00  0.00    +0.000 N 
ATOM     27  N   UNL     1       4.472  -1.482   0.000  0.00  0.00    +0.000 N 
ATOM     28  N   UNL     1       4.362   2.352   0.000  0.00  0.00    +0.000 N 
ATOM     29  N   UNL     1       5.819  -0.044   0.000  0.00  0.00    +0.000 N 
ENDROOT
BRANCH  13  31
ATOM     30  C   UNL     1      -0.001  -0.678   0.000  0.00  0.00    +0.000 C 
ATOM     31  C   UNL     1       0.822  -0.904   0.000  0.00  0.00    +0.000 C 
ENDBRANCH  13  31
BRANCH  14  33
ATOM     32  C   UNL     1       4.948  -4.456   0.000  0.00  0.00    +0.000 C 
ATOM     33  C   UNL     1       5.162  -3.627   0.000  0.00  0.00    +0.000 C 
ENDBRANCH  14  33
BRANCH  15  34
ATOM     34  C   UNL     1       5.052   0.280   0.000  0.00  0.00    +0.000 C 
BRANCH  34  35
ATOM     35  C   UNL     1       4.943  -0.572   0.000  0.00  0.00    +0.000 C 
BRANCH  35  36
ATOM     36  C   UNL     1       4.999  -1.442   0.000  0.00  0.00    +0.000 C 
ATOM     37  O   UNL     1       5.824  -1.148   0.000  0.00  0.00    +0.000 OA
ATOM     38  O   UNL     1       4.270  -2.092   0.000  0.00  0.00    +0.000 OA
ENDBRANCH  35  36
ENDBRANCH  34  35
ENDBRANCH  15  34
BRANCH  16  39
ATOM     39  C   UNL     1       7.845   0.743   0.000  0.00  0.00    +0.000 C 
BRANCH  39  40
ATOM     40  C   UNL     1       8.659   0.464   0.000  0.00  0.00    +0.000 C 
BRANCH  40  41
ATOM     41  C   UNL     1       9.383   0.922   0.000  0.00  0.00    +0.000 C 
ATOM     42  O   UNL     1       9.352   1.772   0.000  0.00  0.00    +0.000 OA
ATOM     43  O   UNL     1      10.138   0.531   0.000  0.00  0.00    +0.000 OA
ENDBRANCH  40  41
ENDBRANCH  39  40
ENDBRANCH  16  39
TORSDOF 8
