REMARK  Name = 
REMARK  7 active torsions:
REMARK  status: ('A' for Active; 'I' for Inactive)
REMARK    1  A    between atoms: C_7  and  C_13
REMARK    2  A    between atoms: C_7  and  C_14
REMARK    3  A    between atoms: C_11  and  C_19
REMARK    4  A    between atoms: C_12  and  C_19
REMARK    5  A    between atoms: C_16  and  C_23
REMARK    6  A    between atoms: C_19  and  N_26
REMARK    7  A    between atoms: C_20  and  O_31
REMARK                            x       y       z     vdW  Elec       q    Type
REMARK                         _______ _______ _______ _____ _____    ______ ____
ROOT
ATOM      1  C   UNL     1       1.429   2.475   0.000  0.00  0.00    +0.000 A 
ATOM      2  C   UNL     1       1.429   0.825   0.000  0.00  0.00    +0.000 A 
ATOM      3  C   UNL     1       3.572   1.238   0.000  0.00  0.00    +0.000 A 
ATOM      4  C   UNL     1       0.715   2.062   0.000  0.00  0.00    +0.000 A 
ATOM      5  C   UNL     1       2.143   2.062   0.000  0.00  0.00    +0.000 A 
ATOM      6  C   UNL     1       3.572   2.062   0.000  0.00  0.00    +0.000 A 
ATOM      7  C   UNL     1       2.143   1.238   0.000  0.00  0.00    +0.000 A 
ATOM      8  C   UNL     1       0.715   1.238   0.000  0.00  0.00    +0.000 A 
ATOM      9  C   UNL     1       2.858   2.475   0.000  0.00  0.00    +0.000 A 
ATOM     10  N   UNL     1       2.858   0.825   0.000  0.00  0.00    +0.000 N 
ATOM     11  O   UNL     1       2.858   3.300   0.000  0.00  0.00    +0.000 OA
ENDROOT
BRANCH   6  12
ATOM     12  C   UNL     1       4.287   2.475   0.000  0.00  0.00    +0.000 C 
ATOM     13  O   UNL     1       4.287   3.300   0.000  0.00  0.00    +0.000 OA
ATOM     14  O   UNL     1       5.001   2.062   0.000  0.00  0.00    +0.000 OA
ENDBRANCH   6  12
BRANCH   8  16
ATOM     15  C   UNL     1      -0.715   1.238   0.000  0.00  0.00    +0.000 C 
ATOM     16  O   UNL     1       0.000   0.825   0.000  0.00  0.00    +0.000 OA
ENDBRANCH   8  16
BRANCH   4  17
ATOM     17  C   UNL     1       0.000   2.475   0.000  0.00  0.00    +0.000 C 
BRANCH  17  21
ATOM     18  C   UNL     1      -0.715   4.537   0.000  0.00  0.00    +0.000 A 
ATOM     19  C   UNL     1      -0.715   3.712   0.000  0.00  0.00    +0.000 A 
ATOM     20  C   UNL     1       0.000   4.950   0.000  0.00  0.00    +0.000 A 
ATOM     21  C   UNL     1       0.000   3.300   0.000  0.00  0.00    +0.000 A 
ATOM     22  C   UNL     1       0.715   4.537   0.000  0.00  0.00    +0.000 A 
ATOM     23  C   UNL     1       0.715   3.712   0.000  0.00  0.00    +0.000 A 
ATOM     24 CL   UNL     1       1.429   4.950   0.000  0.00  0.00    +0.000 Cl
ATOM     25  F   UNL     1       1.429   3.300   0.000  0.00  0.00    +0.000 F 
ENDBRANCH  17  21
ENDBRANCH   4  17
BRANCH  10  26
ATOM     26  C   UNL     1       2.858   0.000   0.000  0.00  0.00    +0.000 C 
BRANCH  26  29
ATOM     27  C   UNL     1       3.572  -1.238   0.000  0.00  0.00    +0.000 C 
ATOM     28  C   UNL     1       4.287   0.000   0.000  0.00  0.00    +0.000 C 
ATOM     29  C   UNL     1       3.572  -0.412   0.000  0.00  0.00    +0.000 C 
ENDBRANCH  26  29
BRANCH  26  30
ATOM     30  C   UNL     1       2.143  -0.412   0.000  0.00  0.00    +0.000 C 
ATOM     31  O   UNL     1       1.429   0.000   0.000  0.00  0.00    +0.000 OA
ENDBRANCH  26  30
ENDBRANCH  10  26
TORSDOF 7
