REMARK  Name = 
REMARK  12 active torsions:
REMARK  status: ('A' for Active; 'I' for Inactive)
REMARK    1  A    between atoms: N_7  and  C_23
REMARK    2  A    between atoms: N_8  and  C_12
REMARK    3  A    between atoms: C_9  and  C_13
REMARK    4  A    between atoms: C_9  and  C_14
REMARK    5  A    between atoms: C_10  and  C_13
REMARK    6  A    between atoms: C_10  and  C_15
REMARK    7  A    between atoms: C_11  and  C_20
REMARK    8  A    between atoms: C_12  and  C_14
REMARK    9  A    between atoms: C_15  and  C_18
REMARK   10  A    between atoms: C_19  and  C_24
REMARK   11  A    between atoms: C_21  and  C_26
REMARK   12  A    between atoms: C_25  and  C_27
REMARK                            x       y       z     vdW  Elec       q    Type
REMARK                         _______ _______ _______ _____ _____    ______ ____
ROOT
ATOM      1  N   UNL     1      16.017 -14.918   0.000  0.00  0.00    +0.000 N 
ATOM      2  C   UNL     1      16.272 -14.134   0.000  0.00  0.00    +0.000 A 
ATOM      3  C   UNL     1      16.685 -15.403   0.000  0.00  0.00    +0.000 A 
ATOM      4  C   UNL     1      17.097 -14.134   0.000  0.00  0.00    +0.000 A 
ATOM      5  C   UNL     1      17.352 -14.918   0.000  0.00  0.00    +0.000 A 
ENDROOT
BRANCH   3   8
ATOM      6  F   UNL     1      16.685 -18.703   0.000  0.00  0.00    +0.000 F 
ATOM      7  C   UNL     1      16.685 -17.878   0.000  0.00  0.00    +0.000 A 
ATOM      8  C   UNL     1      16.685 -16.228   0.000  0.00  0.00    +0.000 A 
ATOM      9  C   UNL     1      15.970 -17.466   0.000  0.00  0.00    +0.000 A 
ATOM     10  C   UNL     1      17.399 -17.466   0.000  0.00  0.00    +0.000 A 
ATOM     11  C   UNL     1      15.970 -16.641   0.000  0.00  0.00    +0.000 A 
ATOM     12  C   UNL     1      17.399 -16.641   0.000  0.00  0.00    +0.000 A 
ENDBRANCH   3   8
BRANCH   5  13
ATOM     13  C   UNL     1      18.137 -15.173   0.000  0.00  0.00    +0.000 A 
ATOM     14  C   UNL     1      18.750 -14.621   0.000  0.00  0.00    +0.000 A 
ATOM     15  C   UNL     1      18.308 -15.980   0.000  0.00  0.00    +0.000 A 
ATOM     16  C   UNL     1      19.093 -16.235   0.000  0.00  0.00    +0.000 A 
ATOM     17  C   UNL     1      19.534 -14.876   0.000  0.00  0.00    +0.000 A 
ATOM     18  C   UNL     1      19.706 -15.683   0.000  0.00  0.00    +0.000 A 
ENDBRANCH   5  13
BRANCH   2  19
ATOM     19  C   UNL     1      15.787 -13.466   0.000  0.00  0.00    +0.000 C 
ATOM     20  C   UNL     1      16.123 -12.713   0.000  0.00  0.00    +0.000 C 
ATOM     21  C   UNL     1      14.967 -13.553   0.000  0.00  0.00    +0.000 C 
ENDBRANCH   2  19
BRANCH   4  24
ATOM     22  O   UNL     1      18.402 -13.553   0.000  0.00  0.00    +0.000 OA
ATOM     23  N   UNL     1      17.246 -12.713   0.000  0.00  0.00    +0.000 NA
ATOM     24  C   UNL     1      17.582 -13.466   0.000  0.00  0.00    +0.000 C 
BRANCH  23  25
ATOM     25  C   UNL     1      17.731 -12.045   0.000  0.00  0.00    +0.000 A 
ATOM     26  C   UNL     1      18.552 -12.132   0.000  0.00  0.00    +0.000 A 
ATOM     27  C   UNL     1      17.396 -11.292   0.000  0.00  0.00    +0.000 A 
ATOM     28  C   UNL     1      19.037 -11.464   0.000  0.00  0.00    +0.000 A 
ATOM     29  C   UNL     1      17.881 -10.624   0.000  0.00  0.00    +0.000 A 
ATOM     30  C   UNL     1      18.701 -10.710   0.000  0.00  0.00    +0.000 A 
ENDBRANCH  23  25
ENDBRANCH   4  24
BRANCH   1  31
ATOM     31  C   UNL     1      15.233 -15.173   0.000  0.00  0.00    +0.000 C 
BRANCH  31  32
ATOM     32  C   UNL     1      14.619 -14.621   0.000  0.00  0.00    +0.000 C 
BRANCH  32  34
ATOM     33  O   UNL     1      13.663 -15.683   0.000  0.00  0.00    +0.000 OA
ATOM     34  C   UNL     1      13.835 -14.876   0.000  0.00  0.00    +0.000 C 
BRANCH  34  35
ATOM     35  C   UNL     1      13.222 -14.324   0.000  0.00  0.00    +0.000 C 
BRANCH  35  37
ATOM     36  O   UNL     1      12.265 -15.386   0.000  0.00  0.00    +0.000 OA
ATOM     37  C   UNL     1      12.437 -14.579   0.000  0.00  0.00    +0.000 C 
BRANCH  37  38
ATOM     38  C   UNL     1      11.824 -14.027   0.000  0.00  0.00    +0.000 C 
BRANCH  38  41
ATOM     39  O   UNL     1      10.426 -13.730   0.000  0.00  0.00    +0.000 OA
ATOM     40  O   UNL     1      10.868 -15.089   0.000  0.00  0.00    +0.000 OA
ATOM     41  C   UNL     1      11.039 -14.282   0.000  0.00  0.00    +0.000 C 
ENDBRANCH  38  41
ENDBRANCH  37  38
ENDBRANCH  35  37
ENDBRANCH  34  35
ENDBRANCH  32  34
ENDBRANCH  31  32
ENDBRANCH   1  31
TORSDOF 12
