REMARK  Name = 
REMARK  3 active torsions:
REMARK  status: ('A' for Active; 'I' for Inactive)
REMARK    1  A    between atoms: C_4  and  C_6
REMARK    2  A    between atoms: C_4  and  CA_8
REMARK    3  A    between atoms: CA_8  and  C_11
REMARK                            x       y       z     vdW  Elec       q    Type
REMARK                         _______ _______ _______ _____ _____    ______ ____
ROOT
ATOM      1  C   UNL     1       3.352   1.110   0.000  0.00  0.00    +0.000 A 
ATOM      2  C   UNL     1       3.352   1.935   0.000  0.00  0.00    +0.000 A 
ATOM      3  C   UNL     1       2.638   0.698   0.000  0.00  0.00    +0.000 A 
ATOM      4  C   UNL     1       0.654   1.523   0.000  0.00  0.00    +0.000 A 
ATOM      5  C   UNL     1       1.139   2.190   0.000  0.00  0.00    +0.000 A 
ATOM      6  C   UNL     1       2.638   2.348   0.000  0.00  0.00    +0.000 A 
ATOM      7  C   UNL     1       1.923   1.110   0.000  0.00  0.00    +0.000 A 
ATOM      8  C   UNL     1       1.923   1.935   0.000  0.00  0.00    +0.000 A 
ATOM      9  N   UNL     1       2.638   3.173   0.000  0.00  0.00    +0.000 NA
ATOM     10  N   UNL     1       1.139   0.856   0.000  0.00  0.00    +0.000 NA
ENDROOT
BRANCH   5  11
ATOM     11  C   UNL     1       0.884   2.975   0.000  0.00  0.00    +0.000 C 
BRANCH  11  12
ATOM     12  CA  UNL     1       0.077   3.147   0.000  0.00  0.00    +0.000 C 
ATOM     13  N   UNL     1      -0.475   2.533   0.000  0.00  0.00    +0.000 NA
BRANCH  12  14
ATOM     14  C   UNL     1      -0.178   3.931   0.000  0.00  0.00    +0.000 C 
ATOM     15  O   UNL     1      -0.985   4.103   0.000  0.00  0.00    +0.000 OA
ATOM     16  OXT UNL     1       0.374   4.544   0.000  0.00  0.00    +0.000 OA
ENDBRANCH  12  14
ENDBRANCH  11  12
ENDBRANCH   5  11
TORSDOF 3
