REMARK  Name = 
REMARK  2 active torsions:
REMARK  status: ('A' for Active; 'I' for Inactive)
REMARK    1  A    between atoms: S_2  and  S_3
REMARK    2  A    between atoms: S_3  and  S_4
REMARK                            x       y       z     vdW  Elec       q    Type
REMARK                         _______ _______ _______ _____ _____    ______ ____
ROOT
ATOM      1  S   UNL     1       1.238  -0.715   0.000  0.00  0.00    +0.000 S 
ENDROOT
BRANCH   1   3
ATOM      2  S   UNL     1       2.475  -1.429   0.000  0.00  0.00    +0.000 SA
ATOM      3  S   UNL     1       2.062  -0.715   0.000  0.00  0.00    +0.000 S 
ENDBRANCH   1   3
BRANCH   1   4
ATOM      4  S   UNL     1       0.825   0.000   0.000  0.00  0.00    +0.000 S 
ATOM      5  S   UNL     1       0.000   0.000   0.000  0.00  0.00    +0.000 SA
ENDBRANCH   1   4
TORSDOF 2
