REMARK  Name = 
REMARK  6 active torsions:
REMARK  status: ('A' for Active; 'I' for Inactive)
REMARK    1  A    between atoms: C_2  and  C_3
REMARK    2  A    between atoms: C_2  and  C_15
REMARK    3  A    between atoms: C_3  and  O_4
REMARK    4  A    between atoms: O_4  and  S_5
REMARK    5  A    between atoms: S_5  and  C_8
REMARK    6  A    between atoms: C_8  and  C_9
REMARK                            x       y       z     vdW  Elec       q    Type
REMARK                         _______ _______ _______ _____ _____    ______ ____
ROOT
ATOM      1  S   UNK     1      -0.715  -1.238   0.000  0.00  0.00    +0.000 S 
ATOM      2  O   UNK     1      -0.302  -1.952   0.000  0.00  0.00    +0.000 OA
ATOM      3  O   UNK     1      -1.127  -0.523   0.000  0.00  0.00    +0.000 OA
ENDROOT
BRANCH   1   4
ATOM      4  O   UNK     1       0.000  -0.825   0.000  0.00  0.00    +0.000 OA
BRANCH   4   5
ATOM      5  C   UNK     1       0.715  -1.238   0.000  0.00  0.00    +0.000 C 
BRANCH   5   7
ATOM      6  N   UNK     1       1.429   0.000   0.000  0.00  0.00    +0.000 NA
ATOM      7  C   UNK     1       1.429  -0.825   0.000  0.00  0.00    +0.000 C 
BRANCH   7   8
ATOM      8  C   UNK     1       2.143  -1.238   0.000  0.00  0.00    +0.000 C 
ATOM      9  O   UNK     1       2.858  -0.825   0.000  0.00  0.00    +0.000 OA
ATOM     10  O   UNK     1       2.143  -2.062   0.000  0.00  0.00    +0.000 OA
ENDBRANCH   7   8
ENDBRANCH   5   7
ENDBRANCH   4   5
ENDBRANCH   1   4
BRANCH   1  11
ATOM     11  C   UNK     1      -1.429  -1.650   0.000  0.00  0.00    +0.000 C 
BRANCH  11  12
ATOM     12  C   UNK     1      -2.143  -1.238   0.000  0.00  0.00    +0.000 A 
ATOM     13  C   UNK     1      -2.858  -1.650   0.000  0.00  0.00    +0.000 A 
ATOM     14  C   UNK     1      -3.572  -1.238   0.000  0.00  0.00    +0.000 A 
ATOM     15  C   UNK     1      -3.572  -0.412   0.000  0.00  0.00    +0.000 A 
ATOM     16  C   UNK     1      -2.858   0.000   0.000  0.00  0.00    +0.000 A 
ATOM     17  C   UNK     1      -2.143  -0.412   0.000  0.00  0.00    +0.000 A 
ENDBRANCH  11  12
ENDBRANCH   1  11
TORSDOF 6
