REMARK  Name = 
REMARK  22 active torsions:
REMARK  status: ('A' for Active; 'I' for Inactive)
REMARK    1  A    between atoms: C_1  and  N_38
REMARK    2  A    between atoms: C_4  and  C_32
REMARK    3  A    between atoms: C_5  and  O_33
REMARK    4  A    between atoms: C_7  and  C_8
REMARK    5  A    between atoms: C_7  and  N_9
REMARK    6  A    between atoms: C_8  and  S_48
REMARK    7  A    between atoms: C_10  and  C_13
REMARK    8  A    between atoms: C_12  and  C_13
REMARK    9  A    between atoms: C_12  and  N_14
REMARK   10  A    between atoms: C_16  and  C_21
REMARK   11  A    between atoms: C_17  and  C_19
REMARK   12  A    between atoms: C_17  and  O_23
REMARK   13  A    between atoms: C_19  and  C_21
REMARK   14  A    between atoms: O_23  and  P_30
REMARK   15  A    between atoms: O_24  and  P_30
REMARK   16  A    between atoms: O_24  and  P_31
REMARK   17  A    between atoms: O_25  and  P_31
REMARK   18  A    between atoms: O_25  and  C_32
REMARK   19  A    between atoms: O_33  and  P_36
REMARK   20  A    between atoms: S_48  and  C_51
REMARK   21  A    between atoms: C_49  and  C_51
REMARK   22  A    between atoms: C_49  and  C_53
REMARK                            x       y       z     vdW  Elec       q    Type
REMARK                         _______ _______ _______ _____ _____    ______ ____
ROOT
ATOM      1  O   UNL     1      20.510  -1.860   0.000  0.00  0.00    +0.000 OA
ENDROOT
BRANCH   1   4
ATOM      2  O   UNL     1      21.335  -1.035   0.000  0.00  0.00    +0.000 OA
ATOM      3  O   UNL     1      21.335  -2.685   0.000  0.00  0.00    +0.000 OA
ATOM      4  P   UNL     1      21.335  -1.860   0.000  0.00  0.00    +0.000 P 
BRANCH   4   5
ATOM      5  O   UNL     1      22.160  -1.860   0.000  0.00  0.00    +0.000 OA
BRANCH   5   6
ATOM      6  C   UNL     1      22.743  -1.276   0.000  0.00  0.00    +0.000 C 
BRANCH   6  10
ATOM      7  C   UNL     1      24.863  -1.531   0.000  0.00  0.00    +0.000 C 
ATOM      8  O   UNL     1      24.195  -1.046   0.000  0.00  0.00    +0.000 OA
ATOM      9  C   UNL     1      24.608  -2.316   0.000  0.00  0.00    +0.000 C 
ATOM     10  C   UNL     1      23.528  -1.531   0.000  0.00  0.00    +0.000 C 
ATOM     11  C   UNL     1      23.783  -2.316   0.000  0.00  0.00    +0.000 C 
ATOM     12  O   UNL     1      25.093  -2.983   0.000  0.00  0.00    +0.000 OA
BRANCH   7  13
ATOM     13  N   UNL     1      25.647  -1.276   0.000  0.00  0.00    +0.000 N 
ATOM     14  C   UNL     1      26.261  -1.828   0.000  0.00  0.00    +0.000 A 
ATOM     15  C   UNL     1      25.983  -0.523   0.000  0.00  0.00    +0.000 A 
ATOM     16  C   UNL     1      26.975  -1.416   0.000  0.00  0.00    +0.000 A 
ATOM     17  N   UNL     1      26.261  -2.653   0.000  0.00  0.00    +0.000 NA
ATOM     18  N   UNL     1      26.803  -0.609   0.000  0.00  0.00    +0.000 NA
ATOM     19  C   UNL     1      27.689  -1.828   0.000  0.00  0.00    +0.000 A 
ATOM     20  C   UNL     1      26.975  -3.066   0.000  0.00  0.00    +0.000 A 
ATOM     21  N   UNL     1      27.689  -2.653   0.000  0.00  0.00    +0.000 NA
ATOM     22  N   UNL     1      28.404  -1.416   0.000  0.00  0.00    +0.000 NA
ENDBRANCH   7  13
BRANCH  11  23
ATOM     23  O   UNL     1      23.298  -2.983   0.000  0.00  0.00    +0.000 OA
BRANCH  23  26
ATOM     24  O   UNL     1      22.473  -3.808   0.000  0.00  0.00    +0.000 OA
ATOM     25  O   UNL     1      24.123  -3.808   0.000  0.00  0.00    +0.000 OA
ATOM     26  P   UNL     1      23.298  -3.808   0.000  0.00  0.00    +0.000 P 
ATOM     27  O   UNL     1      23.298  -4.633   0.000  0.00  0.00    +0.000 OA
ENDBRANCH  23  26
ENDBRANCH  11  23
ENDBRANCH   6  10
ENDBRANCH   5   6
ENDBRANCH   4   5
ENDBRANCH   1   4
BRANCH   1  30
ATOM     28  O   UNL     1      19.685  -1.035   0.000  0.00  0.00    +0.000 OA
ATOM     29  O   UNL     1      19.685  -2.685   0.000  0.00  0.00    +0.000 OA
ATOM     30  P   UNL     1      19.685  -1.860   0.000  0.00  0.00    +0.000 P 
BRANCH  30  31
ATOM     31  O   UNL     1      18.860  -1.860   0.000  0.00  0.00    +0.000 OA
BRANCH  31  32
ATOM     32  C   UNL     1      18.145  -2.272   0.000  0.00  0.00    +0.000 C 
BRANCH  32  34
ATOM     33  C   UNL     1      17.018  -1.145   0.000  0.00  0.00    +0.000 C 
ATOM     34  C   UNL     1      17.431  -1.860   0.000  0.00  0.00    +0.000 C 
ATOM     35  C   UNL     1      17.843  -1.145   0.000  0.00  0.00    +0.000 C 
BRANCH  34  36
ATOM     36  C   UNL     1      16.716  -2.272   0.000  0.00  0.00    +0.000 C 
ATOM     37  O   UNL     1      16.002  -1.860   0.000  0.00  0.00    +0.000 OA
BRANCH  36  40
ATOM     38  N   UNL     1      17.431  -3.510   0.000  0.00  0.00    +0.000 NA
ATOM     39  O   UNL     1      16.002  -3.510   0.000  0.00  0.00    +0.000 OA
ATOM     40  C   UNL     1      16.716  -3.097   0.000  0.00  0.00    +0.000 C 
BRANCH  38  41
ATOM     41  C   UNL     1      17.431  -4.335   0.000  0.00  0.00    +0.000 C 
BRANCH  41  42
ATOM     42  C   UNL     1      16.688  -4.747   0.000  0.00  0.00    +0.000 C 
BRANCH  42  44
ATOM     43  N   UNL     1      17.402  -5.985   0.000  0.00  0.00    +0.000 NA
ATOM     44  C   UNL     1      16.688  -5.572   0.000  0.00  0.00    +0.000 C 
ATOM     45  O   UNL     1      15.974  -5.985   0.000  0.00  0.00    +0.000 OA
BRANCH  43  46
ATOM     46  C   UNL     1      18.117  -5.572   0.000  0.00  0.00    +0.000 C 
BRANCH  46  47
ATOM     47  C   UNL     1      18.860  -5.985   0.000  0.00  0.00    +0.000 C 
BRANCH  47  48
ATOM     48  S   UNL     1      19.574  -5.572   0.000  0.00  0.00    +0.000 S 
BRANCH  48  49
ATOM     49  C   UNL     1      20.289  -5.985   0.000  0.00  0.00    +0.000 C 
ATOM     50  O   UNL     1      20.289  -6.810   0.000  0.00  0.00    +0.000 OA
BRANCH  49  51
ATOM     51  C   UNL     1      21.003  -5.572   0.000  0.00  0.00    +0.000 C 
BRANCH  51  53
ATOM     52  C   UNL     1      22.432  -5.572   0.000  0.00  0.00    +0.000 C 
ATOM     53  C   UNL     1      21.718  -5.985   0.000  0.00  0.00    +0.000 C 
ATOM     54  O   UNL     1      21.718  -6.810   0.000  0.00  0.00    +0.000 OA
ENDBRANCH  51  53
ENDBRANCH  49  51
ENDBRANCH  48  49
ENDBRANCH  47  48
ENDBRANCH  46  47
ENDBRANCH  43  46
ENDBRANCH  42  44
ENDBRANCH  41  42
ENDBRANCH  38  41
ENDBRANCH  36  40
ENDBRANCH  34  36
ENDBRANCH  32  34
ENDBRANCH  31  32
ENDBRANCH  30  31
ENDBRANCH   1  30
TORSDOF 22
