REMARK  Name = 
REMARK  2 active torsions:
REMARK  status: ('A' for Active; 'I' for Inactive)
REMARK    1  A    between atoms: C_2  and  C_4
REMARK    2  A    between atoms: C_2  and  C_8
REMARK                            x       y       z     vdW  Elec       q    Type
REMARK                         _______ _______ _______ _____ _____    ______ ____
ROOT
ATOM      1  O   UNL     1       1.650  -0.825   0.000  0.00  0.00    +0.000 OA
ATOM      2  C   UNL     1       0.825  -0.825   0.000  0.00  0.00    +0.000 C 
ATOM      3  O   UNL     1       0.000  -0.825   0.000  0.00  0.00    +0.000 OA
ENDROOT
BRANCH   2   4
ATOM      4  C   UNL     1       0.825  -1.650   0.000  0.00  0.00    +0.000 C 
ATOM      5  F   UNL     1       0.825  -2.475   0.000  0.00  0.00    +0.000 F 
ATOM      6  F   UNL     1       1.650  -1.650   0.000  0.00  0.00    +0.000 F 
ATOM      7  F   UNL     1       0.000  -1.650   0.000  0.00  0.00    +0.000 F 
ENDBRANCH   2   4
BRANCH   2   8
ATOM      8  C   UNL     1       0.825   0.000   0.000  0.00  0.00    +0.000 C 
ATOM      9  F   UNL     1       0.825   0.825   0.000  0.00  0.00    +0.000 F 
ATOM     10  F   UNL     1       1.650   0.000   0.000  0.00  0.00    +0.000 F 
ATOM     11  F   UNL     1       0.000   0.000   0.000  0.00  0.00    +0.000 F 
ENDBRANCH   2   8
TORSDOF 2
