REMARK  Name = 
REMARK  7 active torsions:
REMARK  status: ('A' for Active; 'I' for Inactive)
REMARK    1  A    between atoms: N_1  and  C_13
REMARK    2  A    between atoms: C_13  and  C_14
REMARK    3  A    between atoms: C_14  and  C_15
REMARK    4  A    between atoms: C_15  and  N_16
REMARK    5  A    between atoms: N_17  and  C_22
REMARK    6  A    between atoms: C_22  and  C_23
REMARK    7  A    between atoms: C_26  and  C_28
REMARK                            x       y       z     vdW  Elec       q    Type
REMARK                         _______ _______ _______ _____ _____    ______ ____
ROOT
ATOM      1  N   UNL     1      -0.848  -0.670   0.000  0.00  0.00    +0.000 N 
ATOM      2  S   UNL     1      -0.848  -2.320   0.000  0.00  0.00    +0.000 S 
ATOM      3  C   UNL     1      -0.134  -1.083   0.000  0.00  0.00    +0.000 A 
ATOM      4  C   UNL     1      -1.563  -1.083   0.000  0.00  0.00    +0.000 A 
ATOM      5  C   UNL     1      -1.563  -1.908   0.000  0.00  0.00    +0.000 A 
ATOM      6  C   UNL     1      -0.134  -1.908   0.000  0.00  0.00    +0.000 A 
ATOM      7  C   UNL     1       0.581  -0.670   0.000  0.00  0.00    +0.000 A 
ATOM      8  C   UNL     1      -2.277  -0.670   0.000  0.00  0.00    +0.000 A 
ATOM      9  C   UNL     1      -2.277  -2.320   0.000  0.00  0.00    +0.000 A 
ATOM     10  C   UNL     1       0.581  -2.320   0.000  0.00  0.00    +0.000 A 
ATOM     11  C   UNL     1      -2.992  -1.908   0.000  0.00  0.00    +0.000 A 
ATOM     12  C   UNL     1       1.295  -1.908   0.000  0.00  0.00    +0.000 A 
ATOM     13  C   UNL     1      -2.992  -1.083   0.000  0.00  0.00    +0.000 A 
ATOM     14  C   UNL     1       1.295  -1.083   0.000  0.00  0.00    +0.000 A 
ENDROOT
BRANCH  14  16
ATOM     15  C   UNL     1       2.724  -1.083   0.000  0.00  0.00    +0.000 C 
ATOM     16  C   UNL     1       2.009  -0.670   0.000  0.00  0.00    +0.000 C 
ATOM     17  O   UNL     1       2.009   0.155   0.000  0.00  0.00    +0.000 OA
ENDBRANCH  14  16
BRANCH   1  18
ATOM     18  C   UNL     1      -0.848   0.155   0.000  0.00  0.00    +0.000 C 
BRANCH  18  19
ATOM     19  C   UNL     1      -0.134   0.567   0.000  0.00  0.00    +0.000 C 
BRANCH  19  20
ATOM     20  C   UNL     1      -0.134   1.392   0.000  0.00  0.00    +0.000 C 
BRANCH  20  21
ATOM     21  N   UNL     1       0.581   1.805   0.000  0.00  0.00    +0.000 NA
ATOM     22  N   UNL     1       2.009   2.630   0.000  0.00  0.00    +0.000 NA
ATOM     23  C   UNL     1       2.009   1.805   0.000  0.00  0.00    +0.000 C 
ATOM     24  C   UNL     1       0.581   2.630   0.000  0.00  0.00    +0.000 C 
ATOM     25  C   UNL     1       1.295   3.042   0.000  0.00  0.00    +0.000 C 
ATOM     26  C   UNL     1       1.295   1.392   0.000  0.00  0.00    +0.000 C 
BRANCH  22  27
ATOM     27  C   UNL     1       2.724   3.042   0.000  0.00  0.00    +0.000 C 
BRANCH  27  28
ATOM     28  C   UNL     1       3.438   2.630   0.000  0.00  0.00    +0.000 C 
ATOM     29  O   UNL     1       4.153   3.042   0.000  0.00  0.00    +0.000 OA
ENDBRANCH  27  28
ENDBRANCH  22  27
ENDBRANCH  20  21
ENDBRANCH  19  20
ENDBRANCH  18  19
ENDBRANCH   1  18
TORSDOF 7
