REMARK  Name = 
REMARK  17 active torsions:
REMARK  status: ('A' for Active; 'I' for Inactive)
REMARK    1  A    between atoms: S_1  and  C_14
REMARK    2  A    between atoms: S_1  and  C_22
REMARK    3  A    between atoms: O_4  and  C_20
REMARK    4  A    between atoms: O_4  and  C_31
REMARK    5  A    between atoms: O_5  and  C_21
REMARK    6  A    between atoms: O_5  and  C_32
REMARK    7  A    between atoms: N_8  and  C_11
REMARK    8  A    between atoms: N_9  and  C_16
REMARK    9  A    between atoms: C_11  and  C_14
REMARK   10  A    between atoms: C_11  and  C_15
REMARK   11  A    between atoms: C_12  and  C_13
REMARK   12  A    between atoms: C_12  and  C_17
REMARK   13  A    between atoms: C_13  and  C_18
REMARK   14  A    between atoms: C_16  and  C_19
REMARK   15  A    between atoms: C_16  and  C_20
REMARK   16  A    between atoms: C_17  and  C_21
REMARK   17  A    between atoms: C_22  and  C_25
REMARK                            x       y       z     vdW  Elec       q    Type
REMARK                         _______ _______ _______ _____ _____    ______ ____
ROOT
ATOM      1  C   UNL     1       4.508  -0.825   0.000  0.00  0.00    +0.000 C 
ENDROOT
BRANCH   1   3
ATOM      2  O   UNL     1       5.937   0.000   0.000  0.00  0.00    +0.000 OA
ATOM      3  N   UNL     1       4.508   0.000   0.000  0.00  0.00    +0.000 NA
ATOM      4  C   UNL     1       5.222   0.412   0.000  0.00  0.00    +0.000 C 
BRANCH   4   5
ATOM      5  C   UNL     1       5.222   1.238   0.000  0.00  0.00    +0.000 C 
BRANCH   5   6
ATOM      6  C   UNL     1       5.937   1.650   0.000  0.00  0.00    +0.000 C 
BRANCH   6   8
ATOM      7  N   UNL     1       5.222   2.888   0.000  0.00  0.00    +0.000 NA
ATOM      8  C   UNL     1       5.937   2.475   0.000  0.00  0.00    +0.000 C 
BRANCH   8  10
ATOM      9  O   UNL     1       7.366   2.475   0.000  0.00  0.00    +0.000 OA
ATOM     10  C   UNL     1       6.652   2.888   0.000  0.00  0.00    +0.000 C 
BRANCH  10  11
ATOM     11  O   UNL     1       6.652   3.713   0.000  0.00  0.00    +0.000 OA
BRANCH  11  12
ATOM     12  C   UNL     1       7.366   4.125   0.000  0.00  0.00    +0.000 C 
ATOM     13  C   UNL     1       7.366   4.950   0.000  0.00  0.00    +0.000 C 
ENDBRANCH  11  12
ENDBRANCH  10  11
ENDBRANCH   8  10
ENDBRANCH   6   8
ENDBRANCH   5   6
ENDBRANCH   4   5
ENDBRANCH   1   3
BRANCH   1  16
ATOM     14  O   UNL     1       3.079  -0.825   0.000  0.00  0.00    +0.000 OA
ATOM     15  N   UNL     1       3.793  -2.062   0.000  0.00  0.00    +0.000 NA
ATOM     16  C   UNL     1       3.793  -1.238   0.000  0.00  0.00    +0.000 C 
BRANCH  15  17
ATOM     17  C   UNL     1       3.079  -2.475   0.000  0.00  0.00    +0.000 C 
BRANCH  17  18
ATOM     18  C   UNL     1       3.079  -3.300   0.000  0.00  0.00    +0.000 A 
ATOM     19  C   UNL     1       3.793  -3.713   0.000  0.00  0.00    +0.000 A 
ATOM     20  C   UNL     1       2.365  -3.713   0.000  0.00  0.00    +0.000 A 
ATOM     21  C   UNL     1       3.793  -4.538   0.000  0.00  0.00    +0.000 A 
ATOM     22  C   UNL     1       2.365  -4.538   0.000  0.00  0.00    +0.000 A 
ATOM     23  C   UNL     1       3.079  -4.950   0.000  0.00  0.00    +0.000 A 
ENDBRANCH  17  18
BRANCH  17  25
ATOM     24  O   UNL     1       1.650  -2.475   0.000  0.00  0.00    +0.000 OA
ATOM     25  C   UNL     1       2.365  -2.062   0.000  0.00  0.00    +0.000 C 
BRANCH  25  26
ATOM     26  O   UNL     1       2.365  -1.238   0.000  0.00  0.00    +0.000 OA
BRANCH  26  27
ATOM     27  C   UNL     1       1.650  -0.825   0.000  0.00  0.00    +0.000 C 
ATOM     28  C   UNL     1       1.650   0.000   0.000  0.00  0.00    +0.000 C 
ENDBRANCH  26  27
ENDBRANCH  25  26
ENDBRANCH  17  25
ENDBRANCH  15  17
ENDBRANCH   1  16
BRANCH   1  29
ATOM     29  C   UNL     1       5.222  -1.238   0.000  0.00  0.00    +0.000 C 
BRANCH  29  30
ATOM     30  S   UNL     1       5.937  -0.825   0.000  0.00  0.00    +0.000 S 
BRANCH  30  31
ATOM     31  C   UNL     1       6.652  -1.238   0.000  0.00  0.00    +0.000 C 
BRANCH  31  32
ATOM     32  C   UNL     1       7.366  -0.825   0.000  0.00  0.00    +0.000 A 
ATOM     33  C   UNL     1       7.366   0.000   0.000  0.00  0.00    +0.000 A 
ATOM     34  C   UNL     1       8.080  -1.238   0.000  0.00  0.00    +0.000 A 
ATOM     35  C   UNL     1       8.080   0.412   0.000  0.00  0.00    +0.000 A 
ATOM     36  C   UNL     1       8.795  -0.825   0.000  0.00  0.00    +0.000 A 
ATOM     37  C   UNL     1       8.795   0.000   0.000  0.00  0.00    +0.000 A 
ENDBRANCH  31  32
ENDBRANCH  30  31
ENDBRANCH  29  30
ENDBRANCH   1  29
TORSDOF 17
