REMARK  Name = 
REMARK  10 active torsions:
REMARK  status: ('A' for Active; 'I' for Inactive)
REMARK    1  A    between atoms: C_1  and  C_5
REMARK    2  A    between atoms: C_1  and  O_28
REMARK    3  A    between atoms: C_4  and  P_32
REMARK    4  A    between atoms: C_4  and  P_33
REMARK    5  A    between atoms: C_11  and  N_16
REMARK    6  A    between atoms: O_28  and  P_35
REMARK    7  A    between atoms: O_30  and  P_32
REMARK    8  A    between atoms: O_30  and  P_34
REMARK    9  A    between atoms: O_31  and  P_33
REMARK   10  A    between atoms: O_31  and  P_35
REMARK                            x       y       z     vdW  Elec       q    Type
REMARK                         _______ _______ _______ _____ _____    ______ ____
ROOT
ATOM      1  C   UNL     1      -0.568  -1.494   0.000  0.00  0.00    +0.000 C 
ENDROOT
BRANCH   1   2
ATOM      2  C   UNL     1       0.099  -1.009   0.000  0.00  0.00    +0.000 C 
ATOM      3  C   UNL     1       0.884  -1.264   0.000  0.00  0.00    +0.000 C 
ATOM      4  C   UNL     1       1.369  -0.597   0.000  0.00  0.00    +0.000 C 
ATOM      5  C   UNL     1       0.884   0.071   0.000  0.00  0.00    +0.000 C 
ATOM      6  O   UNL     1       1.139  -2.049   0.000  0.00  0.00    +0.000 OA
ATOM      7  O   UNL     1       2.194  -0.597   0.000  0.00  0.00    +0.000 OA
ATOM      8  O   UNL     1       0.099  -0.184   0.000  0.00  0.00    +0.000 OA
BRANCH   5  18
ATOM      9  C   UNL     1       3.352   1.110   0.000  0.00  0.00    +0.000 A 
ATOM     10  C   UNL     1       0.654   1.523   0.000  0.00  0.00    +0.000 A 
ATOM     11  C   UNL     1       1.923   1.935   0.000  0.00  0.00    +0.000 A 
ATOM     12  C   UNL     1       2.638   2.348   0.000  0.00  0.00    +0.000 A 
ATOM     13  C   UNL     1       1.923   1.110   0.000  0.00  0.00    +0.000 A 
ATOM     14  N   UNL     1       2.638   3.173   0.000  0.00  0.00    +0.000 NA
ATOM     15  N   UNL     1       3.352   1.935   0.000  0.00  0.00    +0.000 NA
ATOM     16  N   UNL     1       2.638   0.698   0.000  0.00  0.00    +0.000 NA
ATOM     17  N   UNL     1       1.139   2.190   0.000  0.00  0.00    +0.000 NA
ATOM     18  N   UNL     1       1.139   0.856   0.000  0.00  0.00    +0.000 N 
ENDBRANCH   5  18
ENDBRANCH   1   2
BRANCH   1  19
ATOM     19  O   UNL     1      -0.482  -2.314   0.000  0.00  0.00    +0.000 OA
BRANCH  19  22
ATOM     20  O   UNL     1      -1.634  -2.132   0.000  0.00  0.00    +0.000 OA
ATOM     21  O   UNL     1      -0.665  -3.467   0.000  0.00  0.00    +0.000 OA
ATOM     22  P   UNL     1      -1.149  -2.799   0.000  0.00  0.00    +0.000 P 
BRANCH  22  23
ATOM     23  O   UNL     1      -1.817  -3.284   0.000  0.00  0.00    +0.000 OA
BRANCH  23  26
ATOM     24  O   UNL     1      -2.551  -4.191   0.000  0.00  0.00    +0.000 OA
ATOM     25  O   UNL     1      -0.910  -4.019   0.000  0.00  0.00    +0.000 OA
ATOM     26  P   UNL     1      -1.731  -4.105   0.000  0.00  0.00    +0.000 P 
BRANCH  26  27
ATOM     27  C   UNL     1      -1.644  -4.925   0.000  0.00  0.00    +0.000 C 
BRANCH  27  30
ATOM     28  O   UNL     1      -2.797  -4.743   0.000  0.00  0.00    +0.000 OA
ATOM     29  O   UNL     1      -1.827  -6.078   0.000  0.00  0.00    +0.000 OA
ATOM     30  P   UNL     1      -2.312  -5.410   0.000  0.00  0.00    +0.000 P 
BRANCH  30  31
ATOM     31  O   UNL     1      -2.979  -5.895   0.000  0.00  0.00    +0.000 OA
BRANCH  31  35
ATOM     32  O   UNL     1      -2.807  -7.536   0.000  0.00  0.00    +0.000 OA
ATOM     33  O   UNL     1      -3.714  -6.802   0.000  0.00  0.00    +0.000 OA
ATOM     34  O   UNL     1      -2.073  -6.629   0.000  0.00  0.00    +0.000 OA
ATOM     35  P   UNL     1      -2.893  -6.716   0.000  0.00  0.00    +0.000 P 
ENDBRANCH  31  35
ENDBRANCH  30  31
ENDBRANCH  27  30
ENDBRANCH  26  27
ENDBRANCH  23  26
ENDBRANCH  22  23
ENDBRANCH  19  22
ENDBRANCH   1  19
TORSDOF 10
