REMARK  Name = 
REMARK  5 active torsions:
REMARK  status: ('A' for Active; 'I' for Inactive)
REMARK    1  A    between atoms: C_1  and  C_2
REMARK    2  A    between atoms: C_1  and  C_3
REMARK    3  A    between atoms: C_2  and  C_4
REMARK    4  A    between atoms: C_2  and  C_5
REMARK    5  A    between atoms: C_4  and  C_6
REMARK                            x       y       z     vdW  Elec       q    Type
REMARK                         _______ _______ _______ _____ _____    ______ ____
ROOT
ATOM      1  C   UNL     1       1.429   0.000   0.000  0.00  0.00    +0.000 C 
ENDROOT
BRANCH   1   2
ATOM      2  C   UNL     1       1.429   0.825   0.000  0.00  0.00    +0.000 C 
ATOM      3  O   UNL     1       0.715   1.238   0.000  0.00  0.00    +0.000 OA
ATOM      4  O   UNL     1       2.143   1.238   0.000  0.00  0.00    +0.000 OA
ENDBRANCH   1   2
BRANCH   1   5
ATOM      5  C   UNL     1       0.715  -0.412   0.000  0.00  0.00    +0.000 C 
ATOM      6  O   UNL     1       0.715  -1.238   0.000  0.00  0.00    +0.000 OA
BRANCH   5   7
ATOM      7  C   UNL     1       0.000   0.000   0.000  0.00  0.00    +0.000 C 
ATOM      8  O   UNL     1      -0.715  -0.412   0.000  0.00  0.00    +0.000 OA
ATOM      9  O   UNL     1       0.000   0.825   0.000  0.00  0.00    +0.000 OA
ENDBRANCH   5   7
ENDBRANCH   1   5
BRANCH   1  10
ATOM     10  C   UNL     1       2.143  -0.412   0.000  0.00  0.00    +0.000 C 
BRANCH  10  11
ATOM     11  C   UNL     1       2.858   0.000   0.000  0.00  0.00    +0.000 C 
ATOM     12  O   UNL     1       3.572  -0.412   0.000  0.00  0.00    +0.000 OA
ATOM     13  O   UNL     1       2.858   0.825   0.000  0.00  0.00    +0.000 OA
ENDBRANCH  10  11
ENDBRANCH   1  10
TORSDOF 5
