REMARK  Name = 
REMARK  8 active torsions:
REMARK  status: ('A' for Active; 'I' for Inactive)
REMARK    1  A    between atoms: C_6  and  C_7
REMARK    2  A    between atoms: C_7  and  C_8
REMARK    3  A    between atoms: C_7  and  C_17
REMARK    4  A    between atoms: C_7  and  C_19
REMARK    5  A    between atoms: C_8  and  C_9
REMARK    6  A    between atoms: C_9  and  N_10
REMARK    7  A    between atoms: N_10  and  C_11
REMARK    8  A    between atoms: N_10  and  C_14
REMARK                            x       y       z     vdW  Elec       q    Type
REMARK                         _______ _______ _______ _____ _____    ______ ____
ROOT
ATOM      1  C   UNL     1      -2.018   0.088   0.000  0.00  0.00    +0.000 C 
ENDROOT
BRANCH   1   7
ATOM      2  N   UNL     1      -3.447   0.088   0.000  0.00  0.00    +0.000 NA
ATOM      3  C   UNL     1      -4.162  -0.324   0.000  0.00  0.00    +0.000 A 
ATOM      4  C   UNL     1      -4.162  -1.149   0.000  0.00  0.00    +0.000 A 
ATOM      5  C   UNL     1      -3.447  -1.562   0.000  0.00  0.00    +0.000 A 
ATOM      6  C   UNL     1      -2.733  -1.149   0.000  0.00  0.00    +0.000 A 
ATOM      7  C   UNL     1      -2.733  -0.324   0.000  0.00  0.00    +0.000 A 
ENDBRANCH   1   7
BRANCH   1   8
ATOM      8  C   UNL     1      -1.989  -2.121   0.000  0.00  0.00    +0.000 A 
ATOM      9  C   UNL     1      -2.703  -2.534   0.000  0.00  0.00    +0.000 A 
ATOM     10  C   UNL     1      -2.703  -3.359   0.000  0.00  0.00    +0.000 A 
ATOM     11  C   UNL     1      -1.989  -3.772   0.000  0.00  0.00    +0.000 A 
ATOM     12  C   UNL     1      -1.274  -3.359   0.000  0.00  0.00    +0.000 A 
ATOM     13  C   UNL     1      -1.274  -2.534   0.000  0.00  0.00    +0.000 A 
ENDBRANCH   1   8
BRANCH   1  14
ATOM     14  C   UNL     1      -2.018   0.913   0.000  0.00  0.00    +0.000 C 
ATOM     15  N   UNL     1      -1.304   1.326   0.000  0.00  0.00    +0.000 NA
ATOM     16  O   UNL     1      -2.733   1.326   0.000  0.00  0.00    +0.000 OA
ENDBRANCH   1  14
BRANCH   1  17
ATOM     17  C   UNL     1      -1.304  -0.324   0.000  0.00  0.00    +0.000 C 
BRANCH  17  18
ATOM     18  C   UNL     1      -0.589   0.088   0.000  0.00  0.00    +0.000 C 
BRANCH  18  19
ATOM     19  N   UNL     1       0.125  -0.324   0.000  0.00  0.00    +0.000 NA
BRANCH  19  20
ATOM     20  C   UNL     1       0.840   0.088   0.000  0.00  0.00    +0.000 C 
ATOM     21  C   UNL     1       1.554  -0.324   0.000  0.00  0.00    +0.000 C 
ATOM     22  C   UNL     1       0.840   0.913   0.000  0.00  0.00    +0.000 C 
ENDBRANCH  19  20
BRANCH  19  23
ATOM     23  C   UNL     1       0.125  -1.149   0.000  0.00  0.00    +0.000 C 
ATOM     24  C   UNL     1      -0.589  -1.562   0.000  0.00  0.00    +0.000 C 
ATOM     25  C   UNL     1       0.840  -1.562   0.000  0.00  0.00    +0.000 C 
ENDBRANCH  19  23
ENDBRANCH  18  19
ENDBRANCH  17  18
ENDBRANCH   1  17
TORSDOF 8
