REMARK  Name = 
REMARK  7 active torsions:
REMARK  status: ('A' for Active; 'I' for Inactive)
REMARK    1  A    between atoms: C_2  and  C_3
REMARK    2  A    between atoms: C_3  and  C_4
REMARK    3  A    between atoms: C_3  and  C_6
REMARK    4  A    between atoms: C_3  and  N_8
REMARK    5  A    between atoms: N_8  and  C_9
REMARK    6  A    between atoms: C_9  and  C_10
REMARK    7  A    between atoms: C_10  and  S_11
REMARK                            x       y       z     vdW  Elec       q    Type
REMARK                         _______ _______ _______ _____ _____    ______ ____
ROOT
ATOM      1  C   UNL     1       2.475  -1.429   0.000  0.00  0.00    +0.000 C 
ENDROOT
BRANCH   1   3
ATOM      2  O   UNL     1       1.046  -1.429   0.000  0.00  0.00    +0.000 OA
ATOM      3  C   UNL     1       1.760  -1.016   0.000  0.00  0.00    +0.000 C 
ENDBRANCH   1   3
BRANCH   1   4
ATOM      4  C   UNL     1       2.062  -2.143   0.000  0.00  0.00    +0.000 C 
ATOM      5  O   UNL     1       2.475  -2.858   0.000  0.00  0.00    +0.000 OA
ENDBRANCH   1   4
BRANCH   1   6
ATOM      6  C   UNL     1       2.888  -0.715   0.000  0.00  0.00    +0.000 C 
ATOM      7  O   UNL     1       3.712  -0.715   0.000  0.00  0.00    +0.000 OA
ENDBRANCH   1   6
BRANCH   1   8
ATOM      8  N   UNL     1       3.189  -1.841   0.000  0.00  0.00    +0.000 NA
BRANCH   8   9
ATOM      9  C   UNL     1       3.904  -1.429   0.000  0.00  0.00    +0.000 C 
BRANCH   9  10
ATOM     10  C   UNL     1       4.618  -1.841   0.000  0.00  0.00    +0.000 C 
BRANCH  10  11
ATOM     11  S   UNL     1       5.333  -1.429   0.000  0.00  0.00    +0.000 S 
ATOM     12  O   UNL     1       6.047  -1.016   0.000  0.00  0.00    +0.000 OA
ATOM     13  O   UNL     1       4.920  -0.715   0.000  0.00  0.00    +0.000 OA
ATOM     14  O   UNL     1       5.745  -2.143   0.000  0.00  0.00    +0.000 OA
ENDBRANCH  10  11
ENDBRANCH   9  10
ENDBRANCH   8   9
ENDBRANCH   1   8
TORSDOF 7
