REMARK  Name = 
REMARK  26 active torsions:
REMARK  status: ('A' for Active; 'I' for Inactive)
REMARK    1  A    between atoms: C_2  and  C_3
REMARK    2  A    between atoms: C_3  and  C_4
REMARK    3  A    between atoms: C_4  and  C_5
REMARK    4  A    between atoms: C_5  and  C_6
REMARK    5  A    between atoms: C_6  and  C_7
REMARK    6  A    between atoms: C_7  and  C_8
REMARK    7  A    between atoms: C_8  and  C_9
REMARK    8  A    between atoms: C_9  and  C_10
REMARK    9  A    between atoms: C_10  and  C_11
REMARK   10  A    between atoms: C_11  and  C_12
REMARK   11  A    between atoms: C_12  and  C_13
REMARK   12  A    between atoms: C_13  and  C_14
REMARK   13  A    between atoms: C_14  and  C_15
REMARK   14  A    between atoms: C_15  and  C_16
REMARK   15  A    between atoms: C_16  and  O_17
REMARK   16  A    between atoms: O_17  and  C_18
REMARK   17  A    between atoms: C_18  and  C_19
REMARK   18  A    between atoms: C_19  and  C_20
REMARK   19  A    between atoms: C_19  and  O_32
REMARK   20  A    between atoms: C_20  and  O_21
REMARK   21  A    between atoms: O_21  and  P_22
REMARK   22  A    between atoms: P_22  and  O_25
REMARK   23  A    between atoms: O_25  and  C_26
REMARK   24  A    between atoms: C_26  and  C_27
REMARK   25  A    between atoms: C_27  and  N_28
REMARK   26  A    between atoms: O_32  and  C_33
REMARK                            x       y       z     vdW  Elec       q    Type
REMARK                         _______ _______ _______ _____ _____    ______ ____
ROOT
ATOM      1  C   UNL     1      26.282  -8.574   0.000  0.00  0.00    +0.000 C 
ENDROOT
BRANCH   1   2
ATOM      2  O   UNL     1      25.567  -8.161   0.000  0.00  0.00    +0.000 OA
BRANCH   2   3
ATOM      3  C   UNL     1      24.853  -8.574   0.000  0.00  0.00    +0.000 C 
BRANCH   3   4
ATOM      4  C   UNL     1      24.138  -8.161   0.000  0.00  0.00    +0.000 C 
BRANCH   4   5
ATOM      5  C   UNL     1      23.424  -8.574   0.000  0.00  0.00    +0.000 C 
BRANCH   5   6
ATOM      6  C   UNL     1      22.709  -8.161   0.000  0.00  0.00    +0.000 C 
BRANCH   6   7
ATOM      7  C   UNL     1      21.995  -8.574   0.000  0.00  0.00    +0.000 C 
BRANCH   7   8
ATOM      8  C   UNL     1      21.280  -8.161   0.000  0.00  0.00    +0.000 C 
BRANCH   8   9
ATOM      9  C   UNL     1      20.566  -8.574   0.000  0.00  0.00    +0.000 C 
BRANCH   9  10
ATOM     10  C   UNL     1      19.851  -8.161   0.000  0.00  0.00    +0.000 C 
BRANCH  10  11
ATOM     11  C   UNL     1      19.137  -8.574   0.000  0.00  0.00    +0.000 C 
BRANCH  11  12
ATOM     12  C   UNL     1      18.422  -8.161   0.000  0.00  0.00    +0.000 C 
BRANCH  12  13
ATOM     13  C   UNL     1      17.708  -8.574   0.000  0.00  0.00    +0.000 C 
BRANCH  13  14
ATOM     14  C   UNL     1      16.993  -8.161   0.000  0.00  0.00    +0.000 C 
BRANCH  14  15
ATOM     15  C   UNL     1      16.279  -8.574   0.000  0.00  0.00    +0.000 C 
BRANCH  15  16
ATOM     16  C   UNL     1      15.565  -8.161   0.000  0.00  0.00    +0.000 C 
BRANCH  16  18
ATOM     17  C   UNL     1      14.136  -8.161   0.000  0.00  0.00    +0.000 C 
ATOM     18  C   UNL     1      14.850  -8.574   0.000  0.00  0.00    +0.000 C 
ENDBRANCH  16  18
ENDBRANCH  15  16
ENDBRANCH  14  15
ENDBRANCH  13  14
ENDBRANCH  12  13
ENDBRANCH  11  12
ENDBRANCH  10  11
ENDBRANCH   9  10
ENDBRANCH   8   9
ENDBRANCH   7   8
ENDBRANCH   6   7
ENDBRANCH   5   6
ENDBRANCH   4   5
ENDBRANCH   3   4
ENDBRANCH   2   3
ENDBRANCH   1   2
BRANCH   1  19
ATOM     19  C   UNL     1      26.996  -8.161   0.000  0.00  0.00    +0.000 C 
BRANCH  19  20
ATOM     20  C   UNL     1      27.710  -8.574   0.000  0.00  0.00    +0.000 C 
BRANCH  20  21
ATOM     21  O   UNL     1      28.425  -8.161   0.000  0.00  0.00    +0.000 OA
BRANCH  21  22
ATOM     22  P   UNL     1      29.139  -8.574   0.000  0.00  0.00    +0.000 P 
ATOM     23  O   UNL     1      28.727  -9.288   0.000  0.00  0.00    +0.000 OA
ATOM     24  O   UNL     1      29.552  -7.859   0.000  0.00  0.00    +0.000 OA
BRANCH  22  25
ATOM     25  O   UNL     1      29.854  -8.986   0.000  0.00  0.00    +0.000 OA
BRANCH  25  26
ATOM     26  C   UNL     1      30.568  -8.574   0.000  0.00  0.00    +0.000 C 
BRANCH  26  27
ATOM     27  C   UNL     1      31.283  -8.986   0.000  0.00  0.00    +0.000 C 
BRANCH  27  28
ATOM     28  N   UNL     1      31.997  -8.574   0.000  0.00  0.00    +0.000 N 
ATOM     29  C   UNL     1      32.712  -8.161   0.000  0.00  0.00    +0.000 C 
ATOM     30  C   UNL     1      32.410  -9.288   0.000  0.00  0.00    +0.000 C 
ATOM     31  C   UNL     1      31.585  -7.859   0.000  0.00  0.00    +0.000 C 
ENDBRANCH  27  28
ENDBRANCH  26  27
ENDBRANCH  25  26
ENDBRANCH  22  25
ENDBRANCH  21  22
ENDBRANCH  20  21
ENDBRANCH  19  20
BRANCH  19  32
ATOM     32  O   UNL     1      26.996  -7.336   0.000  0.00  0.00    +0.000 OA
BRANCH  32  33
ATOM     33  C   UNL     1      26.282  -6.924   0.000  0.00  0.00    +0.000 C 
ATOM     34  C   UNL     1      25.567  -7.336   0.000  0.00  0.00    +0.000 C 
ATOM     35  O   UNL     1      26.282  -6.099   0.000  0.00  0.00    +0.000 OA
ENDBRANCH  32  33
ENDBRANCH  19  32
ENDBRANCH   1  19
TORSDOF 26
