REMARK  Name = 
REMARK  4 active torsions:
REMARK  status: ('A' for Active; 'I' for Inactive)
REMARK    1  A    between atoms: P_2  and  C_5
REMARK    2  A    between atoms: C_5  and  N_6
REMARK    3  A    between atoms: C_5  and  P_14
REMARK    4  A    between atoms: N_6  and  C_7
REMARK                            x       y       z     vdW  Elec       q    Type
REMARK                         _______ _______ _______ _____ _____    ______ ____
ROOT
ATOM      1  C   UNL     1       1.429  -1.650   0.000  0.00  0.00    +0.000 C 
ENDROOT
BRANCH   1   3
ATOM      2  O   UNL     1       1.429  -3.300   0.000  0.00  0.00    +0.000 OA
ATOM      3  P   UNL     1       1.429  -2.475   0.000  0.00  0.00    +0.000 P 
ATOM      4  O   UNL     1       2.254  -2.475   0.000  0.00  0.00    +0.000 OA
ATOM      5  O   UNL     1       0.604  -2.475   0.000  0.00  0.00    +0.000 OA
ENDBRANCH   1   3
BRANCH   1   6
ATOM      6  P   UNL     1       2.143  -1.238   0.000  0.00  0.00    +0.000 P 
ATOM      7  O   UNL     1       2.858  -0.825   0.000  0.00  0.00    +0.000 OA
ATOM      8  O   UNL     1       1.731  -0.523   0.000  0.00  0.00    +0.000 OA
ATOM      9  O   UNL     1       2.556  -1.952   0.000  0.00  0.00    +0.000 OA
ENDBRANCH   1   6
BRANCH   1  10
ATOM     10  N   UNL     1       0.715  -1.238   0.000  0.00  0.00    +0.000 NA
BRANCH  10  11
ATOM     11  C   UNL     1       0.715  -0.412   0.000  0.00  0.00    +0.000 A 
ATOM     12  C   UNL     1       0.000   0.000   0.000  0.00  0.00    +0.000 A 
ATOM     13  C   UNL     1       0.000   0.825   0.000  0.00  0.00    +0.000 A 
ATOM     14  C   UNL     1       0.715   1.238   0.000  0.00  0.00    +0.000 A 
ATOM     15 CL   UNL     1       0.715   2.062   0.000  0.00  0.00    +0.000 Cl
ATOM     16  C   UNL     1       1.429   0.825   0.000  0.00  0.00    +0.000 A 
ATOM     17  N   UNL     1       1.429   0.000   0.000  0.00  0.00    +0.000 NA
ENDBRANCH  10  11
ENDBRANCH   1  10
TORSDOF 4
