REMARK  Name = 
REMARK  0 active torsions:
REMARK  status: ('A' for Active; 'I' for Inactive)
REMARK                            x       y       z     vdW  Elec       q    Type
REMARK                         _______ _______ _______ _____ _____    ______ ____
ROOT
ATOM      1  O   UNL     1       0.000   0.476   0.000  0.00  0.00    +0.000 OA
ATOM      2  C   UNL     1       0.412  -0.238   0.000  0.00  0.00    +0.000 C 
ATOM      3  C   UNL     1      -0.412  -0.238   0.000  0.00  0.00    +0.000 C 
ENDROOT
TORSDOF 0
REMARK  Name = 
REMARK  0 active torsions:
REMARK  status: ('A' for Active; 'I' for Inactive)
REMARK                            x       y       z     vdW  Elec       q    Type
REMARK                         _______ _______ _______ _____ _____    ______ ____
ROOT
ATOM      1  O   UNL     1       2.416  -0.564   0.000  0.00  0.00    +0.000 OA
ATOM      2  C   UNL     1       2.829   0.151   0.000  0.00  0.00    +0.000 C 
ATOM      3  C   UNL     1       2.829   0.976   0.000  0.00  0.00    +0.000 C 
ATOM      4  C   UNL     1       3.241  -0.564   0.000  0.00  0.00    +0.000 C 
ENDROOT
TORSDOF 0
