REMARK  Name = 
REMARK  6 active torsions:
REMARK  status: ('A' for Active; 'I' for Inactive)
REMARK    1  A    between atoms: C_2  and  C_3
REMARK    2  A    between atoms: C_3  and  C_4
REMARK    3  A    between atoms: C_4  and  C_7
REMARK    4  A    between atoms: C_5  and  C_7
REMARK    5  A    between atoms: C_5  and  N_9
REMARK    6  A    between atoms: C_7  and  C_8
REMARK                            x       y       z     vdW  Elec       q    Type
REMARK                         _______ _______ _______ _____ _____    ______ ____
ROOT
ATOM      1  C   UNL     1      -0.744  -1.731   0.000  0.00  0.00    +0.000 C 
ENDROOT
BRANCH   1   2
ATOM      2  C   UNL     1      -0.744  -0.906   0.000  0.00  0.00    +0.000 C 
ATOM      3  O   UNL     1      -0.030  -0.493   0.000  0.00  0.00    +0.000 OA
ATOM      4  O   UNL     1      -1.459  -0.493   0.000  0.00  0.00    +0.000 OA
ENDBRANCH   1   2
BRANCH   1   5
ATOM      5  C   UNL     1      -1.459  -2.143   0.000  0.00  0.00    +0.000 C 
BRANCH   5   6
ATOM      6  C   UNL     1      -2.173  -1.731   0.000  0.00  0.00    +0.000 C 
BRANCH   6   8
ATOM      7  C   UNL     1      -3.602  -1.731   0.000  0.00  0.00    +0.000 C 
ATOM      8  C   UNL     1      -2.888  -2.143   0.000  0.00  0.00    +0.000 C 
ENDBRANCH   6   8
ENDBRANCH   5   6
ENDBRANCH   1   5
BRANCH   1   9
ATOM      9  C   UNL     1      -0.030  -2.143   0.000  0.00  0.00    +0.000 C 
BRANCH   9  11
ATOM     10  C   UNL     1       1.399  -2.143   0.000  0.00  0.00    +0.000 C 
ATOM     11  N   UNL     1       0.685  -1.731   0.000  0.00  0.00    +0.000 N 
ATOM     12  O   UNL     1       2.114  -1.731   0.000  0.00  0.00    +0.000 OA
ATOM     13  O   UNL     1       0.685  -0.906   0.000  0.00  0.00    +0.000 OA
ENDBRANCH   9  11
ENDBRANCH   1   9
TORSDOF 6
