REMARK  Name = 
REMARK  5 active torsions:
REMARK  status: ('A' for Active; 'I' for Inactive)
REMARK    1  A    between atoms: O_1  and  C_16
REMARK    2  A    between atoms: O_1  and  C_20
REMARK    3  A    between atoms: O_5  and  C_18
REMARK    4  A    between atoms: O_5  and  C_28
REMARK    5  A    between atoms: O_7  and  C_22
REMARK                            x       y       z     vdW  Elec       q    Type
REMARK                         _______ _______ _______ _____ _____    ______ ____
ROOT
ATOM      1  O   UNL     1       7.063  -0.534   0.000  0.00  0.00    +0.000 OA
ATOM      2  O   UNL     1      10.000  -1.393   0.000  0.00  0.00    +0.000 OA
ATOM      3  O   UNL     1       9.957   1.122   0.000  0.00  0.00    +0.000 OA
ATOM      4  O   UNL     1      10.703  -0.113   0.000  0.00  0.00    +0.000 OA
ATOM      5  O   UNL     1       6.340  -1.803   0.000  0.00  0.00    +0.000 OA
ATOM      6  C   UNL     1       7.063   1.128   0.000  0.00  0.00    +0.000 A 
ATOM      7  C   UNL     1       7.814   0.710   0.000  0.00  0.00    +0.000 A 
ATOM      8  C   UNL     1       8.528   1.122   0.000  0.00  0.00    +0.000 A 
ATOM      9  C   UNL     1       7.814  -0.116   0.000  0.00  0.00    +0.000 A 
ATOM     10  C   UNL     1       7.056   1.987   0.000  0.00  0.00    +0.000 A 
ATOM     11  C   UNL     1       8.528  -0.528   0.000  0.00  0.00    +0.000 A 
ATOM     12  C   UNL     1       9.242  -0.116   0.000  0.00  0.00    +0.000 A 
ATOM     13  C   UNL     1       9.242   0.710   0.000  0.00  0.00    +0.000 A 
ATOM     14  C   UNL     1       8.541  -1.387   0.000  0.00  0.00    +0.000 A 
ATOM     15  C   UNL     1       8.541   1.981   0.000  0.00  0.00    +0.000 A 
ATOM     16  C   UNL     1       7.800   2.416   0.000  0.00  0.00    +0.000 A 
ATOM     17  C   UNL     1       7.800  -1.823   0.000  0.00  0.00    +0.000 A 
ATOM     18  C   UNL     1       9.256  -1.823   0.000  0.00  0.00    +0.000 A 
ATOM     19  C   UNL     1       9.993  -0.534   0.000  0.00  0.00    +0.000 A 
ATOM     20  C   UNL     1       7.056  -1.393   0.000  0.00  0.00    +0.000 A 
ATOM     21  C   UNL     1       7.793  -2.717   0.000  0.00  0.00    +0.000 A 
ATOM     22  C   UNL     1       9.340  -2.712   0.000  0.00  0.00    +0.000 A 
ATOM     23  C   UNL     1       8.569  -3.165   0.000  0.00  0.00    +0.000 A 
ATOM     24  C   UNL     1       7.077  -3.127   0.000  0.00  0.00    +0.000 C 
ENDROOT
BRANCH   6  25
ATOM     25  O   UNL     1       6.353   0.707   0.000  0.00  0.00    +0.000 OA
BRANCH  25  32
ATOM     26  O   UNL     1       5.625   1.936   0.000  0.00  0.00    +0.000 OA
ATOM     27  O   UNL     1       3.381   1.085   0.000  0.00  0.00    +0.000 OA
ATOM     28  O   UNL     1       3.477   2.324   0.000  0.00  0.00    +0.000 OA
ATOM     29  C   UNL     1       4.205   1.095   0.000  0.00  0.00    +0.000 C 
ATOM     30  C   UNL     1       4.925   0.690   0.000  0.00  0.00    +0.000 C 
ATOM     31  C   UNL     1       4.196   1.919   0.000  0.00  0.00    +0.000 C 
ATOM     32  C   UNL     1       5.634   1.111   0.000  0.00  0.00    +0.000 C 
ATOM     33  C   UNL     1       4.905   2.340   0.000  0.00  0.00    +0.000 C 
ATOM     34  C   UNL     1       3.801   0.376   0.000  0.00  0.00    +0.000 C 
ATOM     35  C   UNL     1       4.896   3.165   0.000  0.00  0.00    +0.000 C 
BRANCH  30  36
ATOM     36  O   UNL     1       4.934  -0.135   0.000  0.00  0.00    +0.000 OA
BRANCH  36  40
ATOM     37  O   UNL     1       3.505  -0.151   0.000  0.00  0.00    +0.000 OA
ATOM     38  O   UNL     1       2.096  -1.817   0.000  0.00  0.00    +0.000 OA
ATOM     39  N   UNL     1       4.953  -1.784   0.000  0.00  0.00    +0.000 NA
ATOM     40  C   UNL     1       4.224  -0.555   0.000  0.00  0.00    +0.000 C 
ATOM     41  C   UNL     1       4.234  -1.380   0.000  0.00  0.00    +0.000 C 
ATOM     42  C   UNL     1       3.525  -1.801   0.000  0.00  0.00    +0.000 C 
ATOM     43  C   UNL     1       2.805  -1.397   0.000  0.00  0.00    +0.000 C 
ATOM     44  C   UNL     1       2.796  -0.572   0.000  0.00  0.00    +0.000 C 
ATOM     45  C   UNL     1       2.077  -0.168   0.000  0.00  0.00    +0.000 C 
BRANCH  42  46
ATOM     46  O   UNL     1       3.534  -2.626   0.000  0.00  0.00    +0.000 OA
ATOM     47  C   UNL     1       2.824  -3.046   0.000  0.00  0.00    +0.000 C 
ENDBRANCH  42  46
ENDBRANCH  36  40
ENDBRANCH  30  36
ENDBRANCH  25  32
ENDBRANCH   6  25
TORSDOF 5
