REMARK  Name = 
REMARK  2 active torsions:
REMARK  status: ('A' for Active; 'I' for Inactive)
REMARK    1  A    between atoms: CA_2  and  C_10
REMARK    2  A    between atoms: CB_3  and  CG_4
REMARK                            x       y       z     vdW  Elec       q    Type
REMARK                         _______ _______ _______ _____ _____    ______ ____
ROOT
ATOM      1  N   PHE A   1      -0.715   2.062   0.000  0.00  0.00    +0.000 NA
ATOM      2  CA  PHE A   1       0.000   2.475   0.000  0.00  0.00    +0.000 C 
ATOM      3  CB  PHE A   1       0.715   2.062   0.000  0.00  0.00    +0.000 C 
ENDROOT
BRANCH   3   4
ATOM      4  CG  PHE A   1       0.715   1.238   0.000  0.00  0.00    +0.000 A 
ATOM      5  CD1 PHE A   1       1.429   0.825   0.000  0.00  0.00    +0.000 A 
ATOM      6  CE1 PHE A   1       1.429   0.000   0.000  0.00  0.00    +0.000 A 
ATOM      7  CZ  PHE A   1       0.715  -0.412   0.000  0.00  0.00    +0.000 A 
ATOM      8  CE2 PHE A   1       0.000   0.000   0.000  0.00  0.00    +0.000 A 
ATOM      9  CD2 PHE A   1       0.000   0.825   0.000  0.00  0.00    +0.000 A 
ENDBRANCH   3   4
BRANCH   2  10
ATOM     10  C   PHE A   1       0.000   3.300   0.000  0.00  0.00    +0.000 C 
ATOM     11  O   PHE A   1      -0.715   3.712   0.000  0.00  0.00    +0.000 OA
ATOM     12  OXT PHE A   1       0.715   3.712   0.000  0.00  0.00    +0.000 OA
ENDBRANCH   2  10
TORSDOF 2
