REMARK  Name = 
REMARK  10 active torsions:
REMARK  status: ('A' for Active; 'I' for Inactive)
REMARK    1  A    between atoms: C_6  and  C_7
REMARK    2  A    between atoms: C_6  and  C_13
REMARK    3  A    between atoms: C_7  and  C_14
REMARK    4  A    between atoms: C_10  and  C_15
REMARK    5  A    between atoms: C_10  and  N_24
REMARK    6  A    between atoms: C_11  and  C_14
REMARK    7  A    between atoms: C_14  and  C_18
REMARK    8  A    between atoms: C_16  and  CA_17
REMARK    9  A    between atoms: CA_17  and  C_19
REMARK   10  A    between atoms: C_18  and  N_21
REMARK                            x       y       z     vdW  Elec       q    Type
REMARK                         _______ _______ _______ _____ _____    ______ ____
ROOT
ATOM      1  CA  UNL     1       5.716   0.825   0.000  0.00  0.00    +0.000 C 
ATOM      2  N   UNL     1       5.001   1.238   0.000  0.00  0.00    +0.000 NA
ENDROOT
BRANCH   1   6
ATOM      3  C   UNL     1       7.323   2.229   0.000  0.00  0.00    +0.000 A 
ATOM      4  C   UNL     1       6.516   2.058   0.000  0.00  0.00    +0.000 A 
ATOM      5  C   UNL     1       7.736   1.515   0.000  0.00  0.00    +0.000 A 
ATOM      6  C   UNL     1       6.430   1.238   0.000  0.00  0.00    +0.000 A 
ATOM      7  S   UNL     1       7.184   0.902   0.000  0.00  0.00    +0.000 S 
BRANCH   5   8
ATOM      8  C   UNL     1       8.556   1.429   0.000  0.00  0.00    +0.000 C 
BRANCH   8  13
ATOM      9  C   UNL     1       9.866   2.096   0.000  0.00  0.00    +0.000 A 
ATOM     10  N   UNL     1      10.121   2.881   0.000  0.00  0.00    +0.000 NA
ATOM     11  N   UNL     1       9.454   3.366   0.000  0.00  0.00    +0.000 NA
ATOM     12  N   UNL     1       8.786   2.881   0.000  0.00  0.00    +0.000 NA
ATOM     13  N   UNL     1       9.041   2.096   0.000  0.00  0.00    +0.000 N 
ENDBRANCH   8  13
ENDBRANCH   5   8
ENDBRANCH   1   6
BRANCH   1  14
ATOM     14  C   UNL     1       5.716   0.000   0.000  0.00  0.00    +0.000 C 
ATOM     15  O   UNL     1       5.001  -0.412   0.000  0.00  0.00    +0.000 OA
ATOM     16  OXT UNL     1       6.430  -0.412   0.000  0.00  0.00    +0.000 OA
ENDBRANCH   1  14
BRANCH   2  17
ATOM     17  C   UNL     1       4.287   0.825   0.000  0.00  0.00    +0.000 C 
ATOM     18  O   UNL     1       4.287   0.000   0.000  0.00  0.00    +0.000 OA
BRANCH  17  19
ATOM     19  C   UNL     1       3.572   1.238   0.000  0.00  0.00    +0.000 C 
BRANCH  19  20
ATOM     20  C   UNL     1       3.572   2.062   0.000  0.00  0.00    +0.000 C 
ATOM     21  S   UNL     1       4.287   2.475   0.000  0.00  0.00    +0.000 S 
ENDBRANCH  19  20
BRANCH  19  22
ATOM     22  C   UNL     1       2.858   0.825   0.000  0.00  0.00    +0.000 C 
BRANCH  22  23
ATOM     23  C   UNL     1       2.143   1.238   0.000  0.00  0.00    +0.000 C 
BRANCH  23  29
ATOM     24  C   UNL     1       0.000   0.000   0.000  0.00  0.00    +0.000 A 
ATOM     25  C   UNL     1       0.715  -0.412   0.000  0.00  0.00    +0.000 A 
ATOM     26  C   UNL     1       0.000   0.825   0.000  0.00  0.00    +0.000 A 
ATOM     27  C   UNL     1       1.429   0.000   0.000  0.00  0.00    +0.000 A 
ATOM     28  C   UNL     1       0.715   1.238   0.000  0.00  0.00    +0.000 A 
ATOM     29  C   UNL     1       1.429   0.825   0.000  0.00  0.00    +0.000 A 
ENDBRANCH  23  29
ENDBRANCH  22  23
ENDBRANCH  19  22
ENDBRANCH  17  19
ENDBRANCH   2  17
TORSDOF 10
