REMARK  Name = 
REMARK  5 active torsions:
REMARK  status: ('A' for Active; 'I' for Inactive)
REMARK    1  A    between atoms: C_13  and  C_19
REMARK    2  A    between atoms: C_13  and  N_26
REMARK    3  A    between atoms: C_15  and  N_26
REMARK    4  A    between atoms: C_17  and  C_19
REMARK    5  A    between atoms: C_19  and  C_24
REMARK                            x       y       z     vdW  Elec       q    Type
REMARK                         _______ _______ _______ _____ _____    ______ ____
ROOT
ATOM      1  C   UNL     1      -1.040   7.210   0.000  0.00  0.00    +0.000 C 
ATOM      2  C   UNL     1       0.000   6.600   0.000  0.00  0.00    +0.000 C 
ATOM      3  C   UNL     1       1.429   6.600   0.000  0.00  0.00    +0.000 C 
ATOM      4  C   UNL     1       0.000   5.775   0.000  0.00  0.00    +0.000 C 
ATOM      5  C   UNL     1       1.429   5.775   0.000  0.00  0.00    +0.000 C 
ATOM      6  C   UNL     1      -1.270   8.662   0.000  0.00  0.00    +0.000 C 
ATOM      7  C   UNL     1       1.429   9.075   0.000  0.00  0.00    +0.000 A 
ATOM      8  C   UNL     1      -0.785   7.995   0.000  0.00  0.00    +0.000 C 
ATOM      9  C   UNL     1      -0.785   9.330   0.000  0.00  0.00    +0.000 C 
ATOM     10  C   UNL     1       0.000   8.250   0.000  0.00  0.00    +0.000 A 
ATOM     11  C   UNL     1       0.000   9.075   0.000  0.00  0.00    +0.000 A 
ATOM     12  C   UNL     1       0.715   7.838   0.000  0.00  0.00    +0.000 A 
ATOM     13  C   UNL     1       0.715   4.537   0.000  0.00  0.00    +0.000 C 
ATOM     14  N   UNL     1       0.715   9.488   0.000  0.00  0.00    +0.000 NA
ATOM     15  N   UNL     1       1.429   8.250   0.000  0.00  0.00    +0.000 NA
ATOM     16  N   UNL     1       0.715   7.013   0.000  0.00  0.00    +0.000 N 
ATOM     17  N   UNL     1       0.715   5.362   0.000  0.00  0.00    +0.000 N 
ATOM     18  O   UNL     1      -1.040  10.115   0.000  0.00  0.00    +0.000 OA
ATOM     19  O   UNL     1       0.000   4.125   0.000  0.00  0.00    +0.000 OA
ENDROOT
BRANCH  13  20
ATOM     20  C   UNL     1       1.429   4.125   0.000  0.00  0.00    +0.000 C 
BRANCH  20  25
ATOM     21  C   UNL     1       0.715   2.888   0.000  0.00  0.00    +0.000 A 
ATOM     22  C   UNL     1       2.143   2.888   0.000  0.00  0.00    +0.000 A 
ATOM     23  C   UNL     1       0.715   2.062   0.000  0.00  0.00    +0.000 A 
ATOM     24  C   UNL     1       2.143   2.062   0.000  0.00  0.00    +0.000 A 
ATOM     25  C   UNL     1       1.429   3.300   0.000  0.00  0.00    +0.000 A 
ATOM     26  C   UNL     1       1.429   1.650   0.000  0.00  0.00    +0.000 A 
ATOM     27 CL   UNL     1       1.429   0.825   0.000  0.00  0.00    +0.000 Cl
ENDBRANCH  20  25
BRANCH  20  28
ATOM     28  C   UNL     1       2.143   4.537   0.000  0.00  0.00    +0.000 C 
BRANCH  28  29
ATOM     29  N   UNL     1       2.858   4.125   0.000  0.00  0.00    +0.000 NA
BRANCH  29  32
ATOM     30  C   UNL     1       3.572   5.362   0.000  0.00  0.00    +0.000 C 
ATOM     31  C   UNL     1       4.287   4.125   0.000  0.00  0.00    +0.000 C 
ATOM     32  C   UNL     1       3.572   4.537   0.000  0.00  0.00    +0.000 C 
ENDBRANCH  29  32
ENDBRANCH  28  29
ENDBRANCH  20  28
ENDBRANCH  13  20
TORSDOF 5
