REMARK  Name = 
REMARK  3 active torsions:
REMARK  status: ('A' for Active; 'I' for Inactive)
REMARK    1  A    between atoms: CB_5  and  CG_8
REMARK    2  A    between atoms: CB_5  and  CA_9
REMARK    3  A    between atoms: C_7  and  CA_9
REMARK                            x       y       z     vdW  Elec       q    Type
REMARK                         _______ _______ _______ _____ _____    ______ ____
ROOT
ATOM      1  CZ3 TRP A   1       3.352   1.110   0.000  0.00  0.00    +0.000 A 
ATOM      2  CH2 TRP A   1       3.352   1.935   0.000  0.00  0.00    +0.000 A 
ATOM      3  CE3 TRP A   1       2.638   0.698   0.000  0.00  0.00    +0.000 A 
ATOM      4  CZ2 TRP A   1       2.638   2.348   0.000  0.00  0.00    +0.000 A 
ATOM      5  CD1 TRP A   1       0.654   1.523   0.000  0.00  0.00    +0.000 A 
ATOM      6  CG  TRP A   1       1.139   0.856   0.000  0.00  0.00    +0.000 A 
ATOM      7  CD2 TRP A   1       1.923   1.110   0.000  0.00  0.00    +0.000 A 
ATOM      8  CE2 TRP A   1       1.923   1.935   0.000  0.00  0.00    +0.000 A 
ATOM      9  NE1 TRP A   1       1.139   2.190   0.000  0.00  0.00    +0.000 NA
ENDROOT
BRANCH   6  10
ATOM     10  CB  TRP A   1       0.884   0.071   0.000  0.00  0.00    +0.000 C 
BRANCH  10  11
ATOM     11  CA  TRP A   1       1.436  -0.542   0.000  0.00  0.00    +0.000 C 
ATOM     12  N   TRP A   1       2.243  -0.371   0.000  0.00  0.00    +0.000 NA
BRANCH  11  13
ATOM     13  C   TRP A   1       1.181  -1.327   0.000  0.00  0.00    +0.000 C 
ATOM     14  O   TRP A   1       1.733  -1.940   0.000  0.00  0.00    +0.000 OA
ENDBRANCH  11  13
ENDBRANCH  10  11
ENDBRANCH   6  10
TORSDOF 3
