REMARK  Name = 
REMARK  3 active torsions:
REMARK  status: ('A' for Active; 'I' for Inactive)
REMARK    1  A    between atoms: C_1  and  CA_2
REMARK    2  A    between atoms: C_1  and  P_10
REMARK    3  A    between atoms: CA_2  and  C_3
REMARK                            x       y       z     vdW  Elec       q    Type
REMARK                         _______ _______ _______ _____ _____    ______ ____
ROOT
ATOM      1  C   UNL     1       0.000   0.825   0.000  0.00  0.00    +0.000 C 
ENDROOT
BRANCH   1   5
ATOM      2  O   UNL     1       0.000  -0.825   0.000  0.00  0.00    +0.000 OA
ATOM      3  O   UNL     1      -0.825   0.000   0.000  0.00  0.00    +0.000 OA
ATOM      4  O   UNL     1       0.825   0.000   0.000  0.00  0.00    +0.000 OA
ATOM      5  P   UNL     1       0.000   0.000   0.000  0.00  0.00    +0.000 P 
ENDBRANCH   1   5
BRANCH   1   6
ATOM      6  CA  UNL     1       0.715   1.238   0.000  0.00  0.00    +0.000 C 
ATOM      7  N   UNL     1       1.429   0.825   0.000  0.00  0.00    +0.000 NA
BRANCH   6   8
ATOM      8  C   UNL     1       0.715   2.062   0.000  0.00  0.00    +0.000 C 
ATOM      9  O   UNL     1       1.429   2.475   0.000  0.00  0.00    +0.000 OA
ATOM     10  OXT UNL     1       0.000   2.475   0.000  0.00  0.00    +0.000 OA
ENDBRANCH   6   8
ENDBRANCH   1   6
TORSDOF 3
