REMARK  Name = 
REMARK  2 active torsions:
REMARK  status: ('A' for Active; 'I' for Inactive)
REMARK    1  A    between atoms: O_2  and  C_3
REMARK    2  A    between atoms: N_5  and  C_6
REMARK                            x       y       z     vdW  Elec       q    Type
REMARK                         _______ _______ _______ _____ _____    ______ ____
ROOT
ATOM      1  C   UNL     1       0.715   1.238   0.000  0.00  0.00    +0.000 A 
ATOM      2  C   UNL     1       1.429   0.825   0.000  0.00  0.00    +0.000 A 
ATOM      3  C   UNL     1       1.429   0.000   0.000  0.00  0.00    +0.000 A 
ATOM      4  C   UNL     1       0.715  -0.412   0.000  0.00  0.00    +0.000 A 
ATOM      5  C   UNL     1       0.000   0.000   0.000  0.00  0.00    +0.000 A 
ATOM      6  C   UNL     1       0.000   0.825   0.000  0.00  0.00    +0.000 A 
ENDROOT
BRANCH   1   9
ATOM      7  C   UNL     1       0.000   2.475   0.000  0.00  0.00    +0.000 C 
ATOM      8  O   UNL     1      -0.715   2.062   0.000  0.00  0.00    +0.000 OA
ATOM      9  N   UNL     1       0.715   2.062   0.000  0.00  0.00    +0.000 NA
BRANCH   7  11
ATOM     10  N   UNL     1      -0.715   3.712   0.000  0.00  0.00    +0.000 NA
ATOM     11  O   UNL     1       0.000   3.300   0.000  0.00  0.00    +0.000 OA
ENDBRANCH   7  11
ENDBRANCH   1   9
TORSDOF 2
