REMARK  Name = 
REMARK  4 active torsions:
REMARK  status: ('A' for Active; 'I' for Inactive)
REMARK    1  A    between atoms: C_4  and  C_5
REMARK    2  A    between atoms: C_4  and  CA_6
REMARK    3  A    between atoms: CA_6  and  C_9
REMARK    4  A    between atoms: C_7  and  C_10
REMARK                            x       y       z     vdW  Elec       q    Type
REMARK                         _______ _______ _______ _____ _____    ______ ____
ROOT
ATOM      1  C   UNL     1       1.235   0.629   0.000  0.00  0.00    +0.000 A 
ATOM      2  C   UNL     1       0.568   1.114   0.000  0.00  0.00    +0.000 A 
ATOM      3  C   UNL     1       0.980  -0.155   0.000  0.00  0.00    +0.000 A 
ATOM      4  N   UNL     1       0.155  -0.155   0.000  0.00  0.00    +0.000 NA
ATOM      5  O   UNL     1       1.465  -0.823   0.000  0.00  0.00    +0.000 OA
ATOM      6  O   UNL     1      -0.100   0.629   0.000  0.00  0.00    +0.000 OA
ENDROOT
BRANCH   2  10
ATOM      7  C   UNL     1       0.568   2.764   0.000  0.00  0.00    +0.000 C 
ATOM      8  C   UNL     1      -0.257   1.939   0.000  0.00  0.00    +0.000 C 
ATOM      9  C   UNL     1       1.393   1.939   0.000  0.00  0.00    +0.000 C 
ATOM     10  C   UNL     1       0.568   1.939   0.000  0.00  0.00    +0.000 C 
ENDBRANCH   2  10
BRANCH   1  11
ATOM     11  C   UNL     1       2.020   0.884   0.000  0.00  0.00    +0.000 C 
BRANCH  11  12
ATOM     12  CA  UNL     1       2.633   0.332   0.000  0.00  0.00    +0.000 C 
ATOM     13  N   UNL     1       2.461  -0.475   0.000  0.00  0.00    +0.000 NA
BRANCH  12  14
ATOM     14  C   UNL     1       3.417   0.587   0.000  0.00  0.00    +0.000 C 
ATOM     15  O   UNL     1       3.589   1.394   0.000  0.00  0.00    +0.000 OA
ATOM     16  OXT UNL     1       4.031   0.035   0.000  0.00  0.00    +0.000 OA
ENDBRANCH  12  14
ENDBRANCH  11  12
ENDBRANCH   1  11
TORSDOF 4
