REMARK  Name = 
REMARK  9 active torsions:
REMARK  status: ('A' for Active; 'I' for Inactive)
REMARK    1  A    between atoms: C_5  and  C_6
REMARK    2  A    between atoms: C_6  and  C_7
REMARK    3  A    between atoms: N_13  and  C_14
REMARK    4  A    between atoms: C_14  and  C_15
REMARK    5  A    between atoms: C_17  and  C_21
REMARK    6  A    between atoms: N_31  and  C_32
REMARK    7  A    between atoms: C_32  and  C_33
REMARK    8  A    between atoms: C_36  and  C_37
REMARK    9  A    between atoms: C_37  and  C_38
REMARK                            x       y       z     vdW  Elec       q    Type
REMARK                         _______ _______ _______ _____ _____    ______ ____
ROOT
ATOM      1  O   UNL     1       0.537   0.173   0.000  0.00  0.00    +0.000 OA
ATOM      2  C   UNL     1       1.099   0.778   0.000  0.00  0.00    +0.000 C 
ATOM      3  C   UNL     1       0.797   1.546   0.000  0.00  0.00    +0.000 C 
ATOM      4  O   UNL     1      -0.026   1.607   0.000  0.00  0.00    +0.000 OA
ATOM      5  C   UNL     1       1.210   2.260   0.000  0.00  0.00    +0.000 C 
ATOM      6  N   UNL     1       2.025   2.383   0.000  0.00  0.00    +0.000 N 
ATOM      7  C   UNL     1       2.630   1.822   0.000  0.00  0.00    +0.000 C 
ATOM      8  O   UNL     1       3.398   2.123   0.000  0.00  0.00    +0.000 OA
ATOM      9  N   UNL     1       2.568   0.999   0.000  0.00  0.00    +0.000 N 
ATOM     10  C   UNL     1       1.887   0.535   0.000  0.00  0.00    +0.000 C 
ENDROOT
BRANCH   5  11
ATOM     11  C   UNL     1       0.745   2.942   0.000  0.00  0.00    +0.000 C 
BRANCH  11  12
ATOM     12  C   UNL     1      -0.078   2.880   0.000  0.00  0.00    +0.000 A 
ATOM     13  C   UNL     1      -0.436   2.137   0.000  0.00  0.00    +0.000 A 
ATOM     14  C   UNL     1      -1.258   2.075   0.000  0.00  0.00    +0.000 A 
ATOM     15  C   UNL     1      -1.723   2.757   0.000  0.00  0.00    +0.000 A 
ATOM     16  C   UNL     1      -1.365   3.500   0.000  0.00  0.00    +0.000 A 
ATOM     17  C   UNL     1      -0.543   3.562   0.000  0.00  0.00    +0.000 A 
ENDBRANCH  11  12
ENDBRANCH   5  11
BRANCH   6  18
ATOM     18  C   UNL     1       2.268   3.171   0.000  0.00  0.00    +0.000 C 
BRANCH  18  19
ATOM     19  C   UNL     1       1.707   3.776   0.000  0.00  0.00    +0.000 A 
ATOM     20  C   UNL     1       1.951   4.565   0.000  0.00  0.00    +0.000 A 
ATOM     21  C   UNL     1       1.389   5.169   0.000  0.00  0.00    +0.000 A 
ATOM     22  C   UNL     1       0.585   4.986   0.000  0.00  0.00    +0.000 A 
ATOM     23  C   UNL     1       0.342   4.197   0.000  0.00  0.00    +0.000 A 
ATOM     24  C   UNL     1       0.903   3.593   0.000  0.00  0.00    +0.000 A 
BRANCH  21  25
ATOM     25  C   UNL     1       1.633   5.958   0.000  0.00  0.00    +0.000 C 
ATOM     26  O   UNL     1       2.437   6.141   0.000  0.00  0.00    +0.000 OA
ATOM     27  N   UNL     1       1.071   6.562   0.000  0.00  0.00    +0.000 NA
ATOM     28  C   UNL     1       1.315   7.351   0.000  0.00  0.00    +0.000 A 
ATOM     29  N   UNL     1       0.820   8.011   0.000  0.00  0.00    +0.000 NA
ATOM     30  C   UNL     1       1.295   8.686   0.000  0.00  0.00    +0.000 A 
ATOM     31  C   UNL     1       2.083   8.442   0.000  0.00  0.00    +0.000 A 
ATOM     32  S   UNL     1       2.095   7.617   0.000  0.00  0.00    +0.000 S 
ENDBRANCH  21  25
ENDBRANCH  18  19
ENDBRANCH   6  18
BRANCH  10  33
ATOM     33  C   UNL     1       2.010  -0.281   0.000  0.00  0.00    +0.000 C 
BRANCH  33  34
ATOM     34  C   UNL     1       1.365  -0.796   0.000  0.00  0.00    +0.000 A 
ATOM     35  C   UNL     1       1.488  -1.611   0.000  0.00  0.00    +0.000 A 
ATOM     36  C   UNL     1       0.843  -2.126   0.000  0.00  0.00    +0.000 A 
ATOM     37  C   UNL     1       0.075  -1.824   0.000  0.00  0.00    +0.000 A 
ATOM     38  C   UNL     1      -0.048  -1.008   0.000  0.00  0.00    +0.000 A 
ATOM     39  C   UNL     1       0.597  -0.494   0.000  0.00  0.00    +0.000 A 
ENDBRANCH  33  34
ENDBRANCH  10  33
BRANCH   9  40
ATOM     40  C   UNL     1       3.283   0.587   0.000  0.00  0.00    +0.000 C 
BRANCH  40  41
ATOM     41  C   UNL     1       3.283  -0.238   0.000  0.00  0.00    +0.000 C 
ATOM     42  C   UNL     1       3.695  -0.953   0.000  0.00  0.00    +0.000 C 
ATOM     43  C   UNL     1       2.870  -0.953   0.000  0.00  0.00    +0.000 C 
ENDBRANCH  40  41
ENDBRANCH   9  40
TORSDOF 9
