REMARK  Name = 
REMARK  7 active torsions:
REMARK  status: ('A' for Active; 'I' for Inactive)
REMARK    1  A    between atoms: C_4  and  C_5
REMARK    2  A    between atoms: C_6  and  C_7
REMARK    3  A    between atoms: C_7  and  O_9
REMARK    4  A    between atoms: O_9  and  C_10
REMARK    5  A    between atoms: C_10  and  C_11
REMARK    6  A    between atoms: C_15  and  O_16
REMARK    7  A    between atoms: O_16  and  C_17
REMARK                            x       y       z     vdW  Elec       q    Type
REMARK                         _______ _______ _______ _____ _____    ______ ____
ROOT
ATOM      1  C   UNL     1       4.287  -3.776   0.000  0.00  0.00    +0.000 C 
ENDROOT
BRANCH   1   2
ATOM      2  C   UNL     1       4.287  -4.601   0.000  0.00  0.00    +0.000 A 
ATOM      3  C   UNL     1       5.001  -5.014   0.000  0.00  0.00    +0.000 A 
ATOM      4  C   UNL     1       5.001  -5.839   0.000  0.00  0.00    +0.000 A 
ATOM      5  C   UNL     1       4.287  -6.251   0.000  0.00  0.00    +0.000 A 
ATOM      6  C   UNL     1       3.572  -5.839   0.000  0.00  0.00    +0.000 A 
ATOM      7  C   UNL     1       3.572  -5.014   0.000  0.00  0.00    +0.000 A 
BRANCH   6   8
ATOM      8  O   UNL     1       2.858  -6.251   0.000  0.00  0.00    +0.000 OA
BRANCH   8   9
ATOM      9  C   UNL     1       2.143  -5.839   0.000  0.00  0.00    +0.000 A 
ATOM     10  C   UNL     1       1.429  -6.251   0.000  0.00  0.00    +0.000 A 
ATOM     11  C   UNL     1       0.715  -5.839   0.000  0.00  0.00    +0.000 A 
ATOM     12  C   UNL     1       0.715  -5.014   0.000  0.00  0.00    +0.000 A 
ATOM     13  C   UNL     1       1.429  -4.601   0.000  0.00  0.00    +0.000 A 
ATOM     14  C   UNL     1       2.143  -5.014   0.000  0.00  0.00    +0.000 A 
ENDBRANCH   8   9
ENDBRANCH   6   8
ENDBRANCH   1   2
BRANCH   1  15
ATOM     15  O   UNL     1       5.001  -3.364   0.000  0.00  0.00    +0.000 OA
BRANCH  15  16
ATOM     16  C   UNL     1       5.001  -2.539   0.000  0.00  0.00    +0.000 C 
ATOM     17  O   UNL     1       4.287  -2.126   0.000  0.00  0.00    +0.000 OA
BRANCH  16  19
ATOM     18  C   UNL     1       6.541  -2.126   0.000  0.00  0.00    +0.000 C 
ATOM     19  C   UNL     1       5.716  -2.126   0.000  0.00  0.00    +0.000 C 
ATOM     20  C   UNL     1       6.128  -1.412   0.000  0.00  0.00    +0.000 C 
ATOM     21  C   UNL     1       5.655  -0.736   0.000  0.00  0.00    +0.000 C 
ATOM     22  C   UNL     1       6.601  -0.736   0.000  0.00  0.00    +0.000 C 
BRANCH  18  26
ATOM     23  C   UNL     1       8.684  -2.539   0.000  0.00  0.00    +0.000 C 
ATOM     24  C   UNL     1       7.970  -2.126   0.000  0.00  0.00    +0.000 C 
ATOM     25  C   UNL     1       7.970  -1.301   0.000  0.00  0.00    +0.000 C 
ATOM     26  C   UNL     1       7.255  -2.539   0.000  0.00  0.00    +0.000 C 
ENDBRANCH  18  26
ENDBRANCH  16  19
ENDBRANCH  15  16
ENDBRANCH   1  15
TORSDOF 7
