REMARK  Name = 
REMARK  5 active torsions:
REMARK  status: ('A' for Active; 'I' for Inactive)
REMARK    1  A    between atoms: C_7  and  C_8
REMARK    2  A    between atoms: C_8  and  C_12
REMARK    3  A    between atoms: C_12  and  C_13
REMARK    4  A    between atoms: C_13  and  C_14
REMARK    5  A    between atoms: C_14  and  C_15
REMARK                            x       y       z     vdW  Elec       q    Type
REMARK                         _______ _______ _______ _____ _____    ______ ____
ROOT
ATOM      1 CL   UNL     1       9.603  -1.078   0.000  0.00  0.00    +0.000 Cl
ATOM      2  O   UNL     1       5.791  -2.425   0.000  0.00  0.00    +0.000 OA
ATOM      3  N   UNL     1       5.262  -1.058   0.000  0.00  0.00    +0.000 N 
ATOM      4  N   UNL     1       6.691  -1.058   0.000  0.00  0.00    +0.000 NA
ATOM      5  N   UNL     1       8.143  -1.087   0.000  0.00  0.00    +0.000 NA
ATOM      6  C   UNL     1       4.513  -0.724   0.000  0.00  0.00    +0.000 C 
ATOM      7  C   UNL     1       3.963  -1.332   0.000  0.00  0.00    +0.000 A 
ATOM      8  C   UNL     1       4.375  -2.047   0.000  0.00  0.00    +0.000 A 
ATOM      9  C   UNL     1       5.177  -1.874   0.000  0.00  0.00    +0.000 C 
ATOM     10  C   UNL     1       5.976  -0.646   0.000  0.00  0.00    +0.000 A 
ATOM     11  C   UNL     1       3.138  -1.332   0.000  0.00  0.00    +0.000 A 
ATOM     12  C   UNL     1       3.963  -2.761   0.000  0.00  0.00    +0.000 A 
ATOM     13  C   UNL     1       2.725  -2.047   0.000  0.00  0.00    +0.000 A 
ATOM     14  C   UNL     1       3.138  -2.761   0.000  0.00  0.00    +0.000 A 
ATOM     15  C   UNL     1       5.976   0.179   0.000  0.00  0.00    +0.000 A 
ATOM     16  C   UNL     1       6.691   0.592   0.000  0.00  0.00    +0.000 A 
ATOM     17  C   UNL     1       7.405  -0.646   0.000  0.00  0.00    +0.000 A 
ATOM     18  C   UNL     1       7.405   0.179   0.000  0.00  0.00    +0.000 A 
ATOM     19  C   UNL     1       8.143   0.620   0.000  0.00  0.00    +0.000 A 
ATOM     20  C   UNL     1       8.890   0.196   0.000  0.00  0.00    +0.000 A 
ATOM     21  C   UNL     1       8.890  -0.663   0.000  0.00  0.00    +0.000 A 
ENDROOT
BRANCH   6  22
ATOM     22  C   UNL     1       4.343   0.083   0.000  0.00  0.00    +0.000 C 
BRANCH  22  24
ATOM     23  O   UNL     1       2.945  -0.212   0.000  0.00  0.00    +0.000 OA
ATOM     24  C   UNL     1       3.559   0.339   0.000  0.00  0.00    +0.000 C 
BRANCH  24  25
ATOM     25  C   UNL     1       3.389   1.147   0.000  0.00  0.00    +0.000 C 
BRANCH  25  26
ATOM     26  C   UNL     1       2.604   1.403   0.000  0.00  0.00    +0.000 C 
BRANCH  26  27
ATOM     27  C   UNL     1       2.434   2.210   0.000  0.00  0.00    +0.000 C 
ATOM     28  C   UNL     1       1.650   2.466   0.000  0.00  0.00    +0.000 C 
ATOM     29  C   UNL     1       3.048   2.761   0.000  0.00  0.00    +0.000 C 
ENDBRANCH  26  27
ENDBRANCH  25  26
ENDBRANCH  24  25
ENDBRANCH  22  24
ENDBRANCH   6  22
TORSDOF 5
