REMARK  Name = 
REMARK  8 active torsions:
REMARK  status: ('A' for Active; 'I' for Inactive)
REMARK    1  A    between atoms: O_2  and  C_7
REMARK    2  A    between atoms: O_2  and  C_14
REMARK    3  A    between atoms: N_5  and  C_12
REMARK    4  A    between atoms: C_12  and  C_13
REMARK    5  A    between atoms: C_13  and  C_15
REMARK    6  A    between atoms: C_14  and  C_16
REMARK    7  A    between atoms: C_14  and  C_17
REMARK    8  A    between atoms: C_15  and  C_20
REMARK                            x       y       z     vdW  Elec       q    Type
REMARK                         _______ _______ _______ _____ _____    ______ ____
ROOT
ATOM      1  C   UNL     1       4.508  -1.572   0.000  0.00  0.00    +0.000 C 
ENDROOT
BRANCH   1   3
ATOM      2 CL   UNL     1       4.508  -4.872   0.000  0.00  0.00    +0.000 Cl
ATOM      3  C   UNL     1       4.508  -2.397   0.000  0.00  0.00    +0.000 A 
ATOM      4  C   UNL     1       5.222  -2.809   0.000  0.00  0.00    +0.000 A 
ATOM      5  C   UNL     1       3.793  -2.809   0.000  0.00  0.00    +0.000 A 
ATOM      6  C   UNL     1       5.222  -3.634   0.000  0.00  0.00    +0.000 A 
ATOM      7  C   UNL     1       3.793  -3.634   0.000  0.00  0.00    +0.000 A 
ATOM      8  C   UNL     1       4.508  -4.047   0.000  0.00  0.00    +0.000 A 
ENDBRANCH   1   3
BRANCH   1  10
ATOM      9  N   UNL     1       5.222  -0.334   0.000  0.00  0.00    +0.000 NA
ATOM     10  C   UNL     1       5.222  -1.159   0.000  0.00  0.00    +0.000 A 
ATOM     11  C   UNL     1       5.937  -1.572   0.000  0.00  0.00    +0.000 A 
ATOM     12  C   UNL     1       6.652  -1.159   0.000  0.00  0.00    +0.000 A 
ATOM     13  C   UNL     1       5.937   0.078   0.000  0.00  0.00    +0.000 A 
ATOM     14  C   UNL     1       6.652  -0.334   0.000  0.00  0.00    +0.000 A 
ENDBRANCH   1  10
BRANCH   1  15
ATOM     15  O   UNL     1       3.793  -1.159   0.000  0.00  0.00    +0.000 OA
BRANCH  15  17
ATOM     16  N   UNL     1       3.793   1.316   0.000  0.00  0.00    +0.000 NA
ATOM     17  C   UNL     1       3.793  -0.334   0.000  0.00  0.00    +0.000 C 
ATOM     18  C   UNL     1       3.079   0.078   0.000  0.00  0.00    +0.000 C 
ATOM     19  C   UNL     1       4.508   0.078   0.000  0.00  0.00    +0.000 C 
ATOM     20  C   UNL     1       3.079   0.903   0.000  0.00  0.00    +0.000 C 
ATOM     21  C   UNL     1       4.508   0.903   0.000  0.00  0.00    +0.000 C 
BRANCH  16  22
ATOM     22  C   UNL     1       3.793   2.141   0.000  0.00  0.00    +0.000 C 
BRANCH  22  23
ATOM     23  C   UNL     1       3.079   2.553   0.000  0.00  0.00    +0.000 C 
BRANCH  23  24
ATOM     24  C   UNL     1       3.079   3.378   0.000  0.00  0.00    +0.000 C 
BRANCH  24  27
ATOM     25  O   UNL     1       2.365   4.616   0.000  0.00  0.00    +0.000 OA
ATOM     26  O   UNL     1       1.650   3.378   0.000  0.00  0.00    +0.000 OA
ATOM     27  C   UNL     1       2.365   3.791   0.000  0.00  0.00    +0.000 C 
ENDBRANCH  24  27
ENDBRANCH  23  24
ENDBRANCH  22  23
ENDBRANCH  16  22
ENDBRANCH  15  17
ENDBRANCH   1  15
TORSDOF 8
