REMARK  Name = 
REMARK  1 active torsions:
REMARK  status: ('A' for Active; 'I' for Inactive)
REMARK    1  A    between atoms: C_11  and  C_14
REMARK                            x       y       z     vdW  Elec       q    Type
REMARK                         _______ _______ _______ _____ _____    ______ ____
ROOT
ATOM      1  C   UNL     1       0.715   1.238   0.000  0.00  0.00    +0.000 A 
ATOM      2  C   UNL     1       1.429   0.825   0.000  0.00  0.00    +0.000 A 
ATOM      3  C   UNL     1       3.572   1.238   0.000  0.00  0.00    +0.000 A 
ATOM      4  C   UNL     1       3.572   2.062   0.000  0.00  0.00    +0.000 A 
ATOM      5  C   UNL     1       1.429   2.475   0.000  0.00  0.00    +0.000 A 
ATOM      6  C   UNL     1       0.715   2.062   0.000  0.00  0.00    +0.000 A 
ATOM      7  C   UNL     1       2.143   1.238   0.000  0.00  0.00    +0.000 A 
ATOM      8  C   UNL     1       2.143   2.062   0.000  0.00  0.00    +0.000 A 
ATOM      9  N   UNL     1       2.858   0.825   0.000  0.00  0.00    +0.000 NA
ATOM     10  N   UNL     1       2.858   2.475   0.000  0.00  0.00    +0.000 NA
ENDROOT
BRANCH   6  16
ATOM     11  C   UNL     1       0.000   4.950   0.000  0.00  0.00    +0.000 C 
ATOM     12  C   UNL     1      -0.715   4.537   0.000  0.00  0.00    +0.000 C 
ATOM     13  C   UNL     1       0.715   4.537   0.000  0.00  0.00    +0.000 C 
ATOM     14  C   UNL     1      -0.715   3.712   0.000  0.00  0.00    +0.000 C 
ATOM     15  C   UNL     1       0.715   3.712   0.000  0.00  0.00    +0.000 C 
ATOM     16  C   UNL     1       0.000   2.475   0.000  0.00  0.00    +0.000 C 
ATOM     17  N   UNL     1       0.000   3.300   0.000  0.00  0.00    +0.000 N 
ATOM     18  O   UNL     1      -0.715   2.062   0.000  0.00  0.00    +0.000 OA
ENDBRANCH   6  16
TORSDOF 1
