REMARK  Name = 
REMARK  7 active torsions:
REMARK  status: ('A' for Active; 'I' for Inactive)
REMARK    1  A    between atoms: C_4  and  O_5
REMARK    2  A    between atoms: O_5  and  C_6
REMARK    3  A    between atoms: C_11  and  C_12
REMARK    4  A    between atoms: C_15  and  O_16
REMARK    5  A    between atoms: O_16  and  C_17
REMARK    6  A    between atoms: C_20  and  N_21
REMARK    7  A    between atoms: C_28  and  C_29
REMARK                            x       y       z     vdW  Elec       q    Type
REMARK                         _______ _______ _______ _____ _____    ______ ____
ROOT
ATOM      1  C   UNL     1       2.858  -4.950   0.000  0.00  0.00    +0.000 C 
ATOM      2  C   UNL     1       2.858  -4.125   0.000  0.00  0.00    +0.000 C 
ATOM      3  O   UNL     1       2.143  -3.712   0.000  0.00  0.00    +0.000 OA
ATOM      4  C   UNL     1       3.572  -3.712   0.000  0.00  0.00    +0.000 C 
ATOM      5  O   UNL     1       3.572  -2.888   0.000  0.00  0.00    +0.000 OA
ATOM      6  C   UNL     1       4.287  -4.125   0.000  0.00  0.00    +0.000 C 
ATOM      7  O   UNL     1       4.287  -4.950   0.000  0.00  0.00    +0.000 OA
ATOM      8  C   UNL     1       3.572  -5.362   0.000  0.00  0.00    +0.000 C 
ENDROOT
BRANCH   6   9
ATOM      9  C   UNL     1       5.001  -3.712   0.000  0.00  0.00    +0.000 C 
ATOM     10  O   UNL     1       5.716  -4.125   0.000  0.00  0.00    +0.000 OA
ENDBRANCH   6   9
BRANCH   1  11
ATOM     11  O   UNL     1       2.143  -5.362   0.000  0.00  0.00    +0.000 OA
BRANCH  11  15
ATOM     12  C   UNL     1       0.715  -2.888   0.000  0.00  0.00    +0.000 C 
ATOM     13  C   UNL     1       0.715  -3.712   0.000  0.00  0.00    +0.000 C 
ATOM     14  O   UNL     1       1.429  -4.125   0.000  0.00  0.00    +0.000 OA
ATOM     15  C   UNL     1       1.429  -4.950   0.000  0.00  0.00    +0.000 C 
ATOM     16  C   UNL     1       0.715  -5.362   0.000  0.00  0.00    +0.000 C 
ATOM     17  O   UNL     1       0.715  -6.188   0.000  0.00  0.00    +0.000 OA
ATOM     18  C   UNL     1       0.000  -4.950   0.000  0.00  0.00    +0.000 C 
ATOM     19  O   UNL     1      -0.715  -5.362   0.000  0.00  0.00    +0.000 OA
ATOM     20  C   UNL     1       0.000  -4.125   0.000  0.00  0.00    +0.000 C 
ATOM     21  O   UNL     1      -0.715  -3.712   0.000  0.00  0.00    +0.000 OA
ENDBRANCH  11  15
ENDBRANCH   1  11
BRANCH   8  22
ATOM     22  O   UNL     1       3.572  -6.188   0.000  0.00  0.00    +0.000 OA
BRANCH  22  23
ATOM     23  C   UNL     1       4.287  -6.600   0.000  0.00  0.00    +0.000 C 
ATOM     24  C   UNL     1       5.001  -6.188   0.000  0.00  0.00    +0.000 C 
ATOM     25  O   UNL     1       5.001  -5.362   0.000  0.00  0.00    +0.000 OA
ATOM     26  C   UNL     1       5.716  -6.600   0.000  0.00  0.00    +0.000 C 
ATOM     27  C   UNL     1       5.716  -7.425   0.000  0.00  0.00    +0.000 C 
ATOM     28  O   UNL     1       6.430  -7.838   0.000  0.00  0.00    +0.000 OA
ATOM     29  O   UNL     1       5.001  -7.838   0.000  0.00  0.00    +0.000 OA
ATOM     30  C   UNL     1       4.287  -7.425   0.000  0.00  0.00    +0.000 C 
BRANCH  26  31
ATOM     31  N   UNL     1       6.430  -6.188   0.000  0.00  0.00    +0.000 NA
ATOM     32  C   UNL     1       7.145  -6.600   0.000  0.00  0.00    +0.000 C 
ATOM     33  C   UNL     1       7.859  -6.188   0.000  0.00  0.00    +0.000 C 
ATOM     34  O   UNL     1       7.145  -7.425   0.000  0.00  0.00    +0.000 OA
ENDBRANCH  26  31
BRANCH  30  35
ATOM     35  C   UNL     1       3.572  -7.838   0.000  0.00  0.00    +0.000 C 
ATOM     36  O   UNL     1       2.858  -7.425   0.000  0.00  0.00    +0.000 OA
ENDBRANCH  30  35
ENDBRANCH  22  23
ENDBRANCH   8  22
TORSDOF 7
