REMARK  Name = 
REMARK  1 active torsions:
REMARK  status: ('A' for Active; 'I' for Inactive)
REMARK    1  A    between atoms: C_5  and  C_8
REMARK                            x       y       z     vdW  Elec       q    Type
REMARK                         _______ _______ _______ _____ _____    ______ ____
ROOT
ATOM      1  C   UNL     1       0.715  -1.238   0.000  0.00  0.00    +0.000 C 
ATOM      2  C   UNL     1       0.715  -0.412   0.000  0.00  0.00    +0.000 C 
ATOM      3  C   UNL     1       1.429   0.000   0.000  0.00  0.00    +0.000 C 
ATOM      4  O   UNL     1       1.429   0.825   0.000  0.00  0.00    +0.000 OA
ATOM      5  C   UNL     1       2.143  -0.412   0.000  0.00  0.00    +0.000 A 
ATOM      6  C   UNL     1       2.858   0.000   0.000  0.00  0.00    +0.000 A 
ATOM      7  C   UNL     1       3.572  -0.412   0.000  0.00  0.00    +0.000 A 
ATOM      8  C   UNL     1       3.572  -1.238   0.000  0.00  0.00    +0.000 A 
ATOM      9  C   UNL     1       2.858  -1.650   0.000  0.00  0.00    +0.000 A 
ATOM     10  C   UNL     1       2.143  -1.238   0.000  0.00  0.00    +0.000 A 
ATOM     11  O   UNL     1       1.429  -1.650   0.000  0.00  0.00    +0.000 OA
ENDROOT
BRANCH   1  16
ATOM     12  O   UNL     1      -2.143  -2.888   0.000  0.00  0.00    +0.000 OA
ATOM     13  C   UNL     1      -1.429  -2.475   0.000  0.00  0.00    +0.000 A 
ATOM     14  C   UNL     1      -1.429  -1.650   0.000  0.00  0.00    +0.000 A 
ATOM     15  C   UNL     1      -0.715  -1.238   0.000  0.00  0.00    +0.000 A 
ATOM     16  C   UNL     1       0.000  -1.650   0.000  0.00  0.00    +0.000 A 
ATOM     17  C   UNL     1       0.000  -2.475   0.000  0.00  0.00    +0.000 A 
ATOM     18  C   UNL     1      -0.715  -2.888   0.000  0.00  0.00    +0.000 A 
ENDBRANCH   1  16
TORSDOF 1
