REMARK  Name = 
REMARK  4 active torsions:
REMARK  status: ('A' for Active; 'I' for Inactive)
REMARK    1  A    between atoms: C_1  and  C_3
REMARK    2  A    between atoms: C_2  and  C_4
REMARK    3  A    between atoms: C_11  and  S_23
REMARK    4  A    between atoms: C_12  and  S_23
REMARK                            x       y       z     vdW  Elec       q    Type
REMARK                         _______ _______ _______ _____ _____    ______ ____
ROOT
ATOM      1  S   UNL     1       2.143   1.238   0.000  0.00  0.00    +0.000 S 
ENDROOT
BRANCH   1   6
ATOM      2  C   UNL     1       2.858   3.300   0.000  0.00  0.00    +0.000 C 
ATOM      3  C   UNL     1       2.143   3.712   0.000  0.00  0.00    +0.000 C 
ATOM      4  C   UNL     1       1.429   3.300   0.000  0.00  0.00    +0.000 C 
ATOM      5  C   UNL     1       1.429   2.475   0.000  0.00  0.00    +0.000 C 
ATOM      6  C   UNL     1       2.143   2.062   0.000  0.00  0.00    +0.000 C 
ATOM      7  O   UNL     1       2.143   4.537   0.000  0.00  0.00    +0.000 OA
ATOM      8  O   UNL     1       0.715   3.712   0.000  0.00  0.00    +0.000 OA
ATOM      9  O   UNL     1       0.715   2.062   0.000  0.00  0.00    +0.000 OA
ATOM     10  O   UNL     1       2.858   2.475   0.000  0.00  0.00    +0.000 OA
BRANCH   2  11
ATOM     11  C   UNL     1       3.572   3.712   0.000  0.00  0.00    +0.000 C 
ATOM     12  O   UNL     1       3.572   4.537   0.000  0.00  0.00    +0.000 OA
ENDBRANCH   2  11
ENDBRANCH   1   6
BRANCH   1  17
ATOM     13  C   UNL     1       3.572  -0.412   0.000  0.00  0.00    +0.000 C 
ATOM     14  C   UNL     1       4.287   0.000   0.000  0.00  0.00    +0.000 C 
ATOM     15  C   UNL     1       4.287   0.825   0.000  0.00  0.00    +0.000 C 
ATOM     16  C   UNL     1       3.572   1.238   0.000  0.00  0.00    +0.000 C 
ATOM     17  C   UNL     1       2.858   0.825   0.000  0.00  0.00    +0.000 C 
ATOM     18  O   UNL     1       5.001  -0.412   0.000  0.00  0.00    +0.000 OA
ATOM     19  O   UNL     1       5.001   1.238   0.000  0.00  0.00    +0.000 OA
ATOM     20  O   UNL     1       3.572   2.062   0.000  0.00  0.00    +0.000 OA
ATOM     21  O   UNL     1       2.858   0.000   0.000  0.00  0.00    +0.000 OA
BRANCH  13  22
ATOM     22  C   UNL     1       3.572  -1.238   0.000  0.00  0.00    +0.000 C 
ATOM     23  O   UNL     1       4.287  -1.650   0.000  0.00  0.00    +0.000 OA
ENDBRANCH  13  22
ENDBRANCH   1  17
TORSDOF 4
