REMARK  Name = 
REMARK  12 active torsions:
REMARK  status: ('A' for Active; 'I' for Inactive)
REMARK    1  A    between atoms: C_8  and  C_9
REMARK    2  A    between atoms: N_15  and  C_16
REMARK    3  A    between atoms: C_16  and  C_17
REMARK    4  A    between atoms: C_17  and  C_18
REMARK    5  A    between atoms: C_18  and  C_19
REMARK    6  A    between atoms: C_19  and  C_20
REMARK    7  A    between atoms: C_20  and  C_21
REMARK    8  A    between atoms: C_21  and  C_22
REMARK    9  A    between atoms: N_26  and  C_27
REMARK   10  A    between atoms: C_27  and  C_28
REMARK   11  A    between atoms: C_28  and  N_29
REMARK   12  A    between atoms: N_29  and  C_30
REMARK                            x       y       z     vdW  Elec       q    Type
REMARK                         _______ _______ _______ _____ _____    ______ ____
ROOT
ATOM      1  C   UNL     1      -0.143   9.857   0.000  0.00  0.00    +0.000 C 
ENDROOT
BRANCH   1   2
ATOM      2  C   UNL     1       0.270  10.572   0.000  0.00  0.00    +0.000 C 
BRANCH   2   3
ATOM      3  C   UNL     1      -0.143  11.287   0.000  0.00  0.00    +0.000 C 
BRANCH   3   4
ATOM      4  C   UNL     1      -0.968  11.287   0.000  0.00  0.00    +0.000 C 
BRANCH   4   5
ATOM      5  C   UNL     1      -1.381  10.572   0.000  0.00  0.00    +0.000 A 
ATOM      6  C   UNL     1      -1.045   9.818   0.000  0.00  0.00    +0.000 A 
ATOM      7  N   UNL     1      -1.658   9.266   0.000  0.00  0.00    +0.000 NA
ATOM      8  N   UNL     1      -2.373   9.679   0.000  0.00  0.00    +0.000 NA
ATOM      9  N   UNL     1      -2.201  10.486   0.000  0.00  0.00    +0.000 N 
BRANCH   9  10
ATOM     10  C   UNL     1      -2.753  11.099   0.000  0.00  0.00    +0.000 C 
BRANCH  10  11
ATOM     11  C   UNL     1      -3.560  10.927   0.000  0.00  0.00    +0.000 C 
BRANCH  11  12
ATOM     12  N   UNL     1      -4.112  11.540   0.000  0.00  0.00    +0.000 NA
BRANCH  12  13
ATOM     13  C   UNL     1      -4.919  11.369   0.000  0.00  0.00    +0.000 A 
ATOM     14  C   UNL     1      -5.471  11.982   0.000  0.00  0.00    +0.000 A 
ATOM     15  C   UNL     1      -5.216  12.767   0.000  0.00  0.00    +0.000 C 
ATOM     16  C   UNL     1      -5.768  13.380   0.000  0.00  0.00    +0.000 C 
ATOM     17  C   UNL     1      -6.575  13.208   0.000  0.00  0.00    +0.000 C 
ATOM     18  C   UNL     1      -6.830  12.424   0.000  0.00  0.00    +0.000 C 
ATOM     19  C   UNL     1      -6.278  11.810   0.000  0.00  0.00    +0.000 A 
ATOM     20  N   UNL     1      -6.533  11.026   0.000  0.00  0.00    +0.000 NA
ATOM     21  C   UNL     1      -5.981  10.413   0.000  0.00  0.00    +0.000 A 
ATOM     22  C   UNL     1      -5.174  10.584   0.000  0.00  0.00    +0.000 A 
ATOM     23  C   UNL     1      -4.622   9.971   0.000  0.00  0.00    +0.000 A 
ATOM     24  C   UNL     1      -4.877   9.187   0.000  0.00  0.00    +0.000 A 
ATOM     25  C   UNL     1      -5.684   9.015   0.000  0.00  0.00    +0.000 A 
ATOM     26  C   UNL     1      -6.236   9.628   0.000  0.00  0.00    +0.000 A 
ENDBRANCH  12  13
ENDBRANCH  11  12
ENDBRANCH  10  11
ENDBRANCH   9  10
ENDBRANCH   4   5
ENDBRANCH   3   4
ENDBRANCH   2   3
ENDBRANCH   1   2
BRANCH   1  27
ATOM     27  C   UNL     1       0.270   9.143   0.000  0.00  0.00    +0.000 C 
BRANCH  27  28
ATOM     28  C   UNL     1      -0.143   8.429   0.000  0.00  0.00    +0.000 C 
BRANCH  28  37
ATOM     29  N   UNL     1       3.570   6.285   0.000  0.00  0.00    +0.000 NA
ATOM     30  C   UNL     1       2.744   6.285   0.000  0.00  0.00    +0.000 A 
ATOM     31  C   UNL     1       2.332   5.571   0.000  0.00  0.00    +0.000 A 
ATOM     32  C   UNL     1       1.507   5.571   0.000  0.00  0.00    +0.000 A 
ATOM     33  C   UNL     1       1.095   6.285   0.000  0.00  0.00    +0.000 A 
ATOM     34  C   UNL     1       1.507   7.000   0.000  0.00  0.00    +0.000 A 
ATOM     35  C   UNL     1       2.332   7.000   0.000  0.00  0.00    +0.000 A 
ATOM     36  C   UNL     1       1.095   7.714   0.000  0.00  0.00    +0.000 A 
ATOM     37  N   UNL     1       0.270   7.714   0.000  0.00  0.00    +0.000 N 
ATOM     38  C   UNL     1      -0.143   7.000   0.000  0.00  0.00    +0.000 A 
ATOM     39  C   UNL     1       0.270   6.285   0.000  0.00  0.00    +0.000 A 
ATOM     40  C   UNL     1      -0.143   5.571   0.000  0.00  0.00    +0.000 A 
ATOM     41  C   UNL     1      -0.968   5.571   0.000  0.00  0.00    +0.000 A 
ATOM     42  C   UNL     1      -1.381   6.285   0.000  0.00  0.00    +0.000 A 
ATOM     43  N   UNL     1      -2.205   6.285   0.000  0.00  0.00    +0.000 NA
ATOM     44  C   UNL     1      -0.968   7.000   0.000  0.00  0.00    +0.000 A 
BRANCH  36  45
ATOM     45  C   UNL     1       1.507   8.429   0.000  0.00  0.00    +0.000 A 
ATOM     46  C   UNL     1       1.095   9.143   0.000  0.00  0.00    +0.000 A 
ATOM     47  C   UNL     1       1.507   9.857   0.000  0.00  0.00    +0.000 A 
ATOM     48  C   UNL     1       2.332   9.857   0.000  0.00  0.00    +0.000 A 
ATOM     49  C   UNL     1       2.744   9.143   0.000  0.00  0.00    +0.000 A 
ATOM     50  C   UNL     1       2.332   8.429   0.000  0.00  0.00    +0.000 A 
ENDBRANCH  36  45
ENDBRANCH  28  37
ENDBRANCH  27  28
ENDBRANCH   1  27
TORSDOF 12
