REMARK  Name = 
REMARK  3 active torsions:
REMARK  status: ('A' for Active; 'I' for Inactive)
REMARK    1  A    between atoms: C_5  and  C_7
REMARK    2  A    between atoms: C_6  and  C_9
REMARK    3  A    between atoms: C_8  and  C_12
REMARK                            x       y       z     vdW  Elec       q    Type
REMARK                         _______ _______ _______ _____ _____    ______ ____
ROOT
ATOM      1  C   UNL     1      -0.148   1.757   0.000  0.00  0.00    +0.000 C 
ATOM      2  C   UNL     1       1.462   0.677   0.000  0.00  0.00    +0.000 C 
ATOM      3  C   UNL     1       1.947   1.345   0.000  0.00  0.00    +0.000 C 
ATOM      4  C   UNL     1      -0.148   0.932   0.000  0.00  0.00    +0.000 C 
ATOM      5  C   UNL     1       0.677   1.757   0.000  0.00  0.00    +0.000 C 
ATOM      6  N   UNL     1       0.677   0.932   0.000  0.00  0.00    +0.000 N 
ATOM      7  O   UNL     1      -0.731   0.349   0.000  0.00  0.00    +0.000 OA
ATOM      8  S   UNL     1       1.462   2.012   0.000  0.00  0.00    +0.000 S 
ENDROOT
BRANCH   3  12
ATOM      9  C   UNL     1       4.041   1.757   0.000  0.00  0.00    +0.000 C 
ATOM     10  C   UNL     1       3.257   2.012   0.000  0.00  0.00    +0.000 C 
ATOM     11  C   UNL     1       4.041   0.932   0.000  0.00  0.00    +0.000 C 
ATOM     12  C   UNL     1       2.772   1.345   0.000  0.00  0.00    +0.000 C 
ATOM     13  O   UNL     1       3.257   0.677   0.000  0.00  0.00    +0.000 OA
ENDBRANCH   3  12
BRANCH   1  15
ATOM     14  C   UNL     1      -1.528   2.127   0.000  0.00  0.00    +0.000 C 
ATOM     15  C   UNL     1      -0.731   2.341   0.000  0.00  0.00    +0.000 C 
ATOM     16  O   UNL     1      -0.517   3.138   0.000  0.00  0.00    +0.000 OA
ENDBRANCH   1  15
BRANCH   2  17
ATOM     17  C   UNL     1       1.717  -0.107   0.000  0.00  0.00    +0.000 C 
ATOM     18  O   UNL     1       1.165  -0.720   0.000  0.00  0.00    +0.000 OA
ATOM     19  O   UNL     1       2.524  -0.279   0.000  0.00  0.00    +0.000 OA
ENDBRANCH   2  17
TORSDOF 3
