REMARK  Name = 
REMARK  8 active torsions:
REMARK  status: ('A' for Active; 'I' for Inactive)
REMARK    1  A    between atoms: O_2  and  C_19
REMARK    2  A    between atoms: O_2  and  C_26
REMARK    3  A    between atoms: C_4  and  C_6
REMARK    4  A    between atoms: C_4  and  C_8
REMARK    5  A    between atoms: C_5  and  C_7
REMARK    6  A    between atoms: C_5  and  C_9
REMARK    7  A    between atoms: C_6  and  C_12
REMARK    8  A    between atoms: C_26  and  C_27
REMARK                            x       y       z     vdW  Elec       q    Type
REMARK                         _______ _______ _______ _____ _____    ______ ____
ROOT
ATOM      1  C   UNL     1       3.793   1.906   0.000  0.00  0.00    +0.000 C 
ATOM      2  C   UNL     1       4.508   1.493   0.000  0.00  0.00    +0.000 C 
ENDROOT
BRANCH   2   3
ATOM      3  C   UNL     1       5.222   1.906   0.000  0.00  0.00    +0.000 A 
ATOM      4  C   UNL     1       5.222   2.731   0.000  0.00  0.00    +0.000 A 
ATOM      5  C   UNL     1       5.937   1.493   0.000  0.00  0.00    +0.000 A 
ATOM      6  C   UNL     1       5.937   3.143   0.000  0.00  0.00    +0.000 A 
ATOM      7  C   UNL     1       6.652   1.906   0.000  0.00  0.00    +0.000 A 
ATOM      8  C   UNL     1       6.652   2.731   0.000  0.00  0.00    +0.000 A 
ENDBRANCH   2   3
BRANCH   1   9
ATOM      9  C   UNL     1       3.079   1.493   0.000  0.00  0.00    +0.000 A 
ATOM     10  C   UNL     1       3.079   0.668   0.000  0.00  0.00    +0.000 A 
ATOM     11  C   UNL     1       2.365   1.906   0.000  0.00  0.00    +0.000 A 
ATOM     12  C   UNL     1       2.365   0.256   0.000  0.00  0.00    +0.000 A 
ATOM     13  C   UNL     1       1.650   1.493   0.000  0.00  0.00    +0.000 A 
ATOM     14  C   UNL     1       1.650   0.668   0.000  0.00  0.00    +0.000 A 
ENDBRANCH   1   9
BRANCH   2  15
ATOM     15  C   UNL     1       4.508   0.668   0.000  0.00  0.00    +0.000 A 
ATOM     16  C   UNL     1       5.222   0.256   0.000  0.00  0.00    +0.000 A 
ATOM     17  C   UNL     1       3.793   0.256   0.000  0.00  0.00    +0.000 A 
ATOM     18  C   UNL     1       5.222  -0.569   0.000  0.00  0.00    +0.000 A 
ATOM     19  C   UNL     1       3.793  -0.569   0.000  0.00  0.00    +0.000 A 
ATOM     20  C   UNL     1       4.508  -0.982   0.000  0.00  0.00    +0.000 A 
BRANCH  20  21
ATOM     21  O   UNL     1       4.508  -1.807   0.000  0.00  0.00    +0.000 OA
BRANCH  21  22
ATOM     22  C   UNL     1       3.793  -2.219   0.000  0.00  0.00    +0.000 C 
BRANCH  22  24
ATOM     23  O   UNL     1       3.079  -3.457   0.000  0.00  0.00    +0.000 OA
ATOM     24  C   UNL     1       3.793  -3.044   0.000  0.00  0.00    +0.000 C 
ENDBRANCH  22  24
ENDBRANCH  21  22
ENDBRANCH  20  21
ENDBRANCH   2  15
BRANCH   1  25
ATOM     25  C   UNL     1       3.793   2.731   0.000  0.00  0.00    +0.000 C 
BRANCH  25  27
ATOM     26 CL   UNL     1       3.079   3.968   0.000  0.00  0.00    +0.000 Cl
ATOM     27  C   UNL     1       3.079   3.143   0.000  0.00  0.00    +0.000 C 
ENDBRANCH  25  27
ENDBRANCH   1  25
TORSDOF 8
