REMARK  Name = 
REMARK  18 active torsions:
REMARK  status: ('A' for Active; 'I' for Inactive)
REMARK    1  A    between atoms: CA_1  and  CB_2
REMARK    2  A    between atoms: CB_2  and  CG_5
REMARK    3  A    between atoms: CG_5  and  CD_6
REMARK    4  A    between atoms: CD_6  and  CE_7
REMARK    5  A    between atoms: CA_12  and  CB_15
REMARK    6  A    between atoms: CB_15  and  CG_69
REMARK    7  A    between atoms: C_16  and  C_17
REMARK    8  A    between atoms: C_17  and  C_21
REMARK    9  A    between atoms: C_24  and  O_27
REMARK   10  A    between atoms: O_27  and  C_28
REMARK   11  A    between atoms: C_28  and  C_29
REMARK   12  A    between atoms: CA_35  and  CB_37
REMARK   13  A    between atoms: CB_37  and  CG_38
REMARK   14  A    between atoms: C_48  and  C_49
REMARK   15  A    between atoms: C_61  and  O_62
REMARK   16  A    between atoms: O_62  and  C_63
REMARK   17  A    between atoms: N_65  and  C_66
REMARK   18  A    between atoms: C_66  and  C_67
REMARK                            x       y       z     vdW  Elec       q    Type
REMARK                         _______ _______ _______ _____ _____    ______ ____
ROOT
ATOM      1  CA  LYS A   1      15.475  -6.257   0.000  0.00  0.00    +0.000 C 
ATOM      2  N   LYS A   1      14.764  -5.839   0.000  0.00  0.00    +0.000 NA
ATOM      3  C   LYS A   1      15.475  -7.094   0.000  0.00  0.00    +0.000 C 
ATOM      4  N   UNK A   2      16.186  -7.512   0.000  0.00  0.00    +0.000 NA
ATOM      5  O   LYS A   1      14.764  -7.512   0.000  0.00  0.00    +0.000 OA
ATOM      6  C   TRP A   6      14.053  -6.257   0.000  0.00  0.00    +0.000 C 
ATOM      7  CA  TRP A   6      13.342  -5.839   0.000  0.00  0.00    +0.000 C 
ATOM      8  O   TRP A   6      14.053  -7.094   0.000  0.00  0.00    +0.000 OA
ATOM      9  N   TRP A   6      12.631  -6.257   0.000  0.00  0.00    +0.000 NA
ATOM     10  C   UNK A   2      16.186  -8.349   0.000  0.00  0.00    +0.000 C 
ATOM     11  C   UNK A   2      15.475  -8.767   0.000  0.00  0.00    +0.000 C 
ATOM     12  O   UNK A   2      14.764  -8.349   0.000  0.00  0.00    +0.000 OA
ATOM     13  N   PHE A   3      15.475  -9.604   0.000  0.00  0.00    +0.000 NA
ATOM     14  CA  PHE A   3      14.764 -10.022   0.000  0.00  0.00    +0.000 C 
ATOM     15  C   PHE A   3      14.053  -9.604   0.000  0.00  0.00    +0.000 C 
ATOM     16  N   UNK A   4      13.342 -10.022   0.000  0.00  0.00    +0.000 N 
ATOM     17  O   PHE A   3      14.053  -8.767   0.000  0.00  0.00    +0.000 OA
ATOM     18  C   UNK A   5      12.631  -7.094   0.000  0.00  0.00    +0.000 C 
ATOM     19  O   UNK A   5      13.342  -7.512   0.000  0.00  0.00    +0.000 OA
ATOM     20  C   UNK A   5      11.920  -7.512   0.000  0.00  0.00    +0.000 C 
ATOM     21  N   UNK A   5      11.920  -8.349   0.000  0.00  0.00    +0.000 NA
ATOM     22  C   UNK A   4      12.631  -8.767   0.000  0.00  0.00    +0.000 C 
ATOM     23  O   UNK A   4      13.342  -8.349   0.000  0.00  0.00    +0.000 OA
ATOM     24  C   UNK A   4      12.631  -9.604   0.000  0.00  0.00    +0.000 C 
ATOM     25  C   UNK A   4      13.258 -10.775   0.000  0.00  0.00    +0.000 C 
ATOM     26  C   UNK A   4      12.040 -10.195   0.000  0.00  0.00    +0.000 C 
ATOM     27  C   UNK A   4      12.423 -10.961   0.000  0.00  0.00    +0.000 C 
ENDROOT
BRANCH  20  28
ATOM     28  C   UNK A   5      11.209  -7.094   0.000  0.00  0.00    +0.000 A 
ATOM     29  C   UNK A   5      10.498  -7.512   0.000  0.00  0.00    +0.000 A 
ATOM     30  C   UNK A   5       9.745  -7.094   0.000  0.00  0.00    +0.000 A 
ATOM     31  C   UNK A   5       9.745  -6.257   0.000  0.00  0.00    +0.000 A 
ATOM     32  C   UNK A   5      10.456  -5.839   0.000  0.00  0.00    +0.000 A 
ATOM     33  C   UNK A   5      11.209  -6.257   0.000  0.00  0.00    +0.000 A 
ENDBRANCH  20  28
BRANCH   1  34
ATOM     34  CB  LYS A   1      16.186  -5.839   0.000  0.00  0.00    +0.000 C 
BRANCH  34  35
ATOM     35  CG  LYS A   1      16.898  -6.257   0.000  0.00  0.00    +0.000 C 
BRANCH  35  36
ATOM     36  CD  LYS A   1      17.609  -5.839   0.000  0.00  0.00    +0.000 C 
BRANCH  36  37
ATOM     37  CE  LYS A   1      18.320  -6.257   0.000  0.00  0.00    +0.000 C 
ATOM     38  NZ  LYS A   1      19.031  -5.839   0.000  0.00  0.00    +0.000 NA
ENDBRANCH  36  37
ENDBRANCH  35  36
ENDBRANCH  34  35
ENDBRANCH   1  34
BRANCH  14  39
ATOM     39  CB  PHE A   3      14.764 -10.858   0.000  0.00  0.00    +0.000 C 
BRANCH  39  40
ATOM     40  CG  PHE A   3      15.475 -11.277   0.000  0.00  0.00    +0.000 A 
ATOM     41  CD1 PHE A   3      16.186 -10.858   0.000  0.00  0.00    +0.000 A 
ATOM     42  CE1 PHE A   3      16.939 -11.277   0.000  0.00  0.00    +0.000 A 
ATOM     43  CZ  PHE A   3      16.939 -12.113   0.000  0.00  0.00    +0.000 A 
ATOM     44  CE2 PHE A   3      16.228 -12.532   0.000  0.00  0.00    +0.000 A 
ATOM     45  CD2 PHE A   3      15.475 -12.113   0.000  0.00  0.00    +0.000 A 
ENDBRANCH  39  40
ENDBRANCH  14  39
BRANCH  10  46
ATOM     46  C   UNK A   2      16.898  -8.767   0.000  0.00  0.00    +0.000 C 
BRANCH  46  47
ATOM     47  C   UNK A   2      17.609  -8.349   0.000  0.00  0.00    +0.000 A 
ATOM     48  C   UNK A   2      17.609  -7.512   0.000  0.00  0.00    +0.000 A 
ATOM     49  C   UNK A   2      18.361  -7.094   0.000  0.00  0.00    +0.000 A 
ATOM     50  C   UNK A   2      19.073  -7.512   0.000  0.00  0.00    +0.000 A 
ATOM     51  C   UNK A   2      19.073  -8.349   0.000  0.00  0.00    +0.000 A 
ATOM     52  C   UNK A   2      18.361  -8.767   0.000  0.00  0.00    +0.000 A 
BRANCH  50  53
ATOM     53  O   UNK A   2      19.784  -7.094   0.000  0.00  0.00    +0.000 OA
BRANCH  53  54
ATOM     54  C   UNK A   2      20.495  -7.512   0.000  0.00  0.00    +0.000 C 
BRANCH  54  55
ATOM     55  C   UNK A   2      21.206  -7.094   0.000  0.00  0.00    +0.000 A 
ATOM     56  C   UNK A   2      21.206  -6.257   0.000  0.00  0.00    +0.000 A 
ATOM     57  C   UNK A   2      21.959  -5.839   0.000  0.00  0.00    +0.000 A 
ATOM     58  C   UNK A   2      22.670  -6.257   0.000  0.00  0.00    +0.000 A 
ATOM     59  C   UNK A   2      22.670  -7.094   0.000  0.00  0.00    +0.000 A 
ATOM     60  C   UNK A   2      21.959  -7.512   0.000  0.00  0.00    +0.000 A 
ENDBRANCH  54  55
ENDBRANCH  53  54
ENDBRANCH  50  53
ENDBRANCH  46  47
ENDBRANCH  10  46
BRANCH  27  61
ATOM     61  O   UNK A   4      12.072 -11.702   0.000  0.00  0.00    +0.000 OA
BRANCH  61  62
ATOM     62  C   UNK A   4      11.254 -11.684   0.000  0.00  0.00    +0.000 C 
ATOM     63  O   UNK A   4      10.814 -12.408   0.000  0.00  0.00    +0.000 OA
ATOM     64  N   UNK A   4      10.856 -10.957   0.000  0.00  0.00    +0.000 NA
BRANCH  64  65
ATOM     65  C   UNK A   4      10.038 -10.939   0.000  0.00  0.00    +0.000 C 
BRANCH  65  66
ATOM     66  C   UNK A   4       9.637 -10.208   0.000  0.00  0.00    +0.000 C 
ATOM     67  N   UNK A   4       8.783 -10.189   0.000  0.00  0.00    +0.000 NA
ENDBRANCH  65  66
ENDBRANCH  64  65
ENDBRANCH  61  62
ENDBRANCH  27  61
BRANCH   7  68
ATOM     68  CB  TRP A   6      13.342  -5.003   0.000  0.00  0.00    +0.000 C 
BRANCH  68  69
ATOM     69  CG  TRP A   6      14.057  -4.590   0.000  0.00  0.00    +0.000 A 
ATOM     70  CD2 TRP A   6      14.143  -3.770   0.000  0.00  0.00    +0.000 A 
ATOM     71  CD1 TRP A   6      14.810  -4.926   0.000  0.00  0.00    +0.000 A 
ATOM     72  CE2 TRP A   6      14.950  -3.598   0.000  0.00  0.00    +0.000 A 
ATOM     73  NE1 TRP A   6      15.362  -4.312   0.000  0.00  0.00    +0.000 NA
ATOM     74  CZ2 TRP A   6      15.184  -2.807   0.000  0.00  0.00    +0.000 A 
ATOM     75  CH2 TRP A   6      14.617  -2.208   0.000  0.00  0.00    +0.000 A 
ATOM     76  CZ3 TRP A   6      13.815  -2.401   0.000  0.00  0.00    +0.000 A 
ATOM     77  CE3 TRP A   6      13.580  -3.192   0.000  0.00  0.00    +0.000 A 
ENDBRANCH  68  69
ENDBRANCH   7  68
TORSDOF 18
