REMARK  Name = 
REMARK  3 active torsions:
REMARK  status: ('A' for Active; 'I' for Inactive)
REMARK    1  A    between atoms: C_2  and  C_13
REMARK    2  A    between atoms: C_9  and  C_16
REMARK    3  A    between atoms: C_15  and  C_16
REMARK                            x       y       z     vdW  Elec       q    Type
REMARK                         _______ _______ _______ _____ _____    ______ ____
ROOT
ATOM      1  C   UNL     1       3.352   1.110   0.000  0.00  0.00    +0.000 A 
ATOM      2  C   UNL     1       3.352   1.935   0.000  0.00  0.00    +0.000 A 
ATOM      3  C   UNL     1       2.638   0.698   0.000  0.00  0.00    +0.000 A 
ATOM      4  C   UNL     1       2.638   2.348   0.000  0.00  0.00    +0.000 A 
ATOM      5  C   UNL     1       1.923   1.110   0.000  0.00  0.00    +0.000 A 
ATOM      6  C   UNL     1       0.654   1.523   0.000  0.00  0.00    +0.000 A 
ATOM      7  C   UNL     1       1.923   1.935   0.000  0.00  0.00    +0.000 A 
ATOM      8  C   UNL     1       1.139   0.856   0.000  0.00  0.00    +0.000 A 
ATOM      9  O   UNL     1       1.139   2.190   0.000  0.00  0.00    +0.000 OA
ENDROOT
BRANCH   6  11
ATOM     10  C   UNL     1      -0.584   2.237   0.000  0.00  0.00    +0.000 C 
ATOM     11  C   UNL     1      -0.171   1.523   0.000  0.00  0.00    +0.000 C 
ENDBRANCH   6  11
BRANCH   8  12
ATOM     12  C   UNL     1       0.884   0.071   0.000  0.00  0.00    +0.000 C 
ATOM     13  O   UNL     1       1.436  -0.542   0.000  0.00  0.00    +0.000 OA
BRANCH  12  16
ATOM     14  C   UNL     1      -0.178  -0.885   0.000  0.00  0.00    +0.000 A 
ATOM     15  C   UNL     1      -0.475   0.512   0.000  0.00  0.00    +0.000 A 
ATOM     16  C   UNL     1       0.077  -0.101   0.000  0.00  0.00    +0.000 A 
ATOM     17  C   UNL     1      -0.985  -1.057   0.000  0.00  0.00    +0.000 A 
ATOM     18  C   UNL     1      -1.282   0.341   0.000  0.00  0.00    +0.000 A 
ATOM     19  C   UNL     1      -1.537  -0.444   0.000  0.00  0.00    +0.000 A 
ATOM     20 BR   UNL     1      -1.240  -1.841   0.000  0.00  0.00    +0.000 Br
ATOM     21 BR   UNL     1      -1.834   0.954   0.000  0.00  0.00    +0.000 Br
ATOM     22  O   UNL     1      -2.344  -0.615   0.000  0.00  0.00    +0.000 OA
ENDBRANCH  12  16
ENDBRANCH   8  12
TORSDOF 3
