REMARK  Name = 
REMARK  8 active torsions:
REMARK  status: ('A' for Active; 'I' for Inactive)
REMARK    1  A    between atoms: C_5  and  C_6
REMARK    2  A    between atoms: C_6  and  N_7
REMARK    3  A    between atoms: C_11  and  C_12
REMARK    4  A    between atoms: C_12  and  C_13
REMARK    5  A    between atoms: C_13  and  O_14
REMARK    6  A    between atoms: O_14  and  P_15
REMARK    7  A    between atoms: P_15  and  O_18
REMARK    8  A    between atoms: O_18  and  P_19
REMARK                            x       y       z     vdW  Elec       q    Type
REMARK                         _______ _______ _______ _____ _____    ______ ____
ROOT
ATOM      1  N   UNL     1       0.715  -0.412   0.000  0.00  0.00    +0.000 N 
ATOM      2  C   UNL     1       0.000   0.000   0.000  0.00  0.00    +0.000 A 
ATOM      3  C   UNL     1       0.000   0.825   0.000  0.00  0.00    +0.000 A 
ATOM      4  C   UNL     1       0.715   1.238   0.000  0.00  0.00    +0.000 A 
ATOM      5  C   UNL     1       1.429   0.825   0.000  0.00  0.00    +0.000 A 
ATOM      6  C   UNL     1       1.429   0.000   0.000  0.00  0.00    +0.000 A 
ATOM      7  C   UNL     1       2.143  -0.412   0.000  0.00  0.00    +0.000 C 
ENDROOT
BRANCH   5   8
ATOM      8  C   UNL     1       2.143   1.238   0.000  0.00  0.00    +0.000 C 
BRANCH   8   9
ATOM      9  C   UNL     1       2.858   0.825   0.000  0.00  0.00    +0.000 C 
BRANCH   9  10
ATOM     10  O   UNL     1       3.572   1.238   0.000  0.00  0.00    +0.000 OA
BRANCH  10  11
ATOM     11  P   UNL     1       4.287   0.825   0.000  0.00  0.00    +0.000 P 
ATOM     12  O   UNL     1       3.874   0.111   0.000  0.00  0.00    +0.000 OA
ATOM     13  O   UNL     1       4.699   1.540   0.000  0.00  0.00    +0.000 OA
BRANCH  11  14
ATOM     14  O   UNL     1       5.001   0.412   0.000  0.00  0.00    +0.000 OA
BRANCH  14  15
ATOM     15  P   UNL     1       5.716   0.825   0.000  0.00  0.00    +0.000 P 
ATOM     16  O   UNL     1       6.430   1.238   0.000  0.00  0.00    +0.000 OA
ATOM     17  O   UNL     1       6.128   0.111   0.000  0.00  0.00    +0.000 OA
ATOM     18  O   UNL     1       5.303   1.540   0.000  0.00  0.00    +0.000 OA
ENDBRANCH  14  15
ENDBRANCH  11  14
ENDBRANCH  10  11
ENDBRANCH   9  10
ENDBRANCH   8   9
ENDBRANCH   5   8
BRANCH   1  19
ATOM     19  C   UNL     1       0.715  -1.238   0.000  0.00  0.00    +0.000 C 
BRANCH  19  24
ATOM     20  C   UNL     1      -2.143  -2.888   0.000  0.00  0.00    +0.000 C 
ATOM     21  C   UNL     1      -1.429  -2.475   0.000  0.00  0.00    +0.000 A 
ATOM     22  N   UNL     1      -1.429  -1.650   0.000  0.00  0.00    +0.000 NA
ATOM     23  C   UNL     1      -0.715  -1.238   0.000  0.00  0.00    +0.000 A 
ATOM     24  C   UNL     1       0.000  -1.650   0.000  0.00  0.00    +0.000 A 
ATOM     25  C   UNL     1       0.000  -2.475   0.000  0.00  0.00    +0.000 A 
ATOM     26  N   UNL     1       0.715  -2.888   0.000  0.00  0.00    +0.000 NA
ATOM     27  N   UNL     1      -0.715  -2.888   0.000  0.00  0.00    +0.000 NA
ENDBRANCH  19  24
ENDBRANCH   1  19
TORSDOF 8
