REMARK  Name = 
REMARK  3 active torsions:
REMARK  status: ('A' for Active; 'I' for Inactive)
REMARK    1  A    between atoms: C_5  and  C_9
REMARK    2  A    between atoms: C_11  and  C_28
REMARK    3  A    between atoms: N_19  and  C_20
REMARK                            x       y       z     vdW  Elec       q    Type
REMARK                         _______ _______ _______ _____ _____    ______ ____
ROOT
ATOM      1  C   UNL     1       0.000   0.000   0.000  0.00  0.00    +0.000 A 
ATOM      2  C   UNL     1      -0.715  -0.412   0.000  0.00  0.00    +0.000 A 
ATOM      3  C   UNL     1      -0.715  -1.238   0.000  0.00  0.00    +0.000 A 
ATOM      4  C   UNL     1       0.000  -1.650   0.000  0.00  0.00    +0.000 A 
ATOM      5  C   UNL     1       0.715  -1.238   0.000  0.00  0.00    +0.000 A 
ATOM      6  C   UNL     1       0.715  -0.412   0.000  0.00  0.00    +0.000 A 
ATOM      7  C   UNL     1       1.429   0.000   0.000  0.00  0.00    +0.000 C 
ATOM      8  C   UNL     1       2.143  -0.412   0.000  0.00  0.00    +0.000 C 
ATOM      9  C   UNL     1       2.143  -1.238   0.000  0.00  0.00    +0.000 C 
ATOM     10  O   UNL     1       2.858  -1.650   0.000  0.00  0.00    +0.000 OA
ATOM     11  N   UNL     1       1.429  -1.650   0.000  0.00  0.00    +0.000 N 
ENDROOT
BRANCH   1  16
ATOM     12  F   UNL     1       0.000   3.300   0.000  0.00  0.00    +0.000 F 
ATOM     13  C   UNL     1       0.000   2.475   0.000  0.00  0.00    +0.000 A 
ATOM     14  C   UNL     1       0.715   2.062   0.000  0.00  0.00    +0.000 A 
ATOM     15  C   UNL     1       0.715   1.238   0.000  0.00  0.00    +0.000 A 
ATOM     16  C   UNL     1       0.000   0.825   0.000  0.00  0.00    +0.000 A 
ATOM     17  C   UNL     1      -0.715   1.238   0.000  0.00  0.00    +0.000 A 
ATOM     18  F   UNL     1      -1.429   0.825   0.000  0.00  0.00    +0.000 F 
ATOM     19  C   UNL     1      -0.715   2.062   0.000  0.00  0.00    +0.000 A 
ENDBRANCH   1  16
BRANCH  11  20
ATOM     20  C   UNL     1       1.429  -2.475   0.000  0.00  0.00    +0.000 A 
ATOM     21  C   UNL     1       2.143  -2.888   0.000  0.00  0.00    +0.000 A 
ATOM     22 CL   UNL     1       2.858  -2.475   0.000  0.00  0.00    +0.000 Cl
ATOM     23  C   UNL     1       2.143  -3.712   0.000  0.00  0.00    +0.000 A 
ATOM     24  C   UNL     1       1.429  -4.125   0.000  0.00  0.00    +0.000 A 
ATOM     25  C   UNL     1       0.715  -3.712   0.000  0.00  0.00    +0.000 A 
ATOM     26  C   UNL     1       0.715  -2.888   0.000  0.00  0.00    +0.000 A 
ATOM     27 CL   UNL     1       0.000  -2.475   0.000  0.00  0.00    +0.000 Cl
ENDBRANCH  11  20
BRANCH   3  28
ATOM     28  C   UNL     1      -1.429  -1.650   0.000  0.00  0.00    +0.000 C 
ATOM     29  C   UNL     1      -1.429  -2.475   0.000  0.00  0.00    +0.000 C 
ATOM     30  C   UNL     1      -2.143  -2.888   0.000  0.00  0.00    +0.000 C 
ATOM     31  N   UNL     1      -2.858  -2.475   0.000  0.00  0.00    +0.000 NA
ATOM     32  C   UNL     1      -2.858  -1.650   0.000  0.00  0.00    +0.000 C 
ATOM     33  C   UNL     1      -2.143  -1.238   0.000  0.00  0.00    +0.000 C 
ENDBRANCH   3  28
TORSDOF 3
