REMARK  Name = 
REMARK  5 active torsions:
REMARK  status: ('A' for Active; 'I' for Inactive)
REMARK    1  A    between atoms: CA_2  and  C_3
REMARK    2  A    between atoms: CA_2  and  C_11
REMARK    3  A    between atoms: C_3  and  C_4
REMARK    4  A    between atoms: C_4  and  O_6
REMARK    5  A    between atoms: O_6  and  P_7
REMARK                            x       y       z     vdW  Elec       q    Type
REMARK                         _______ _______ _______ _____ _____    ______ ____
ROOT
ATOM      1  C   UNL     1       3.189   1.841   0.000  0.00  0.00    +0.000 C 
ATOM      2  O   UNL     1       3.189   2.666   0.000  0.00  0.00    +0.000 OA
ENDROOT
BRANCH   1   3
ATOM      3  C   UNL     1       3.904   1.429   0.000  0.00  0.00    +0.000 C 
BRANCH   3   5
ATOM      4  N   UNL     1       4.618   2.666   0.000  0.00  0.00    +0.000 NA
ATOM      5  CA  UNL     1       4.618   1.841   0.000  0.00  0.00    +0.000 C 
BRANCH   5   6
ATOM      6  C   UNL     1       5.333   1.429   0.000  0.00  0.00    +0.000 C 
ATOM      7  O   UNL     1       6.047   1.841   0.000  0.00  0.00    +0.000 OA
ATOM      8  OXT UNL     1       5.333   0.604   0.000  0.00  0.00    +0.000 OA
ENDBRANCH   5   6
ENDBRANCH   3   5
ENDBRANCH   1   3
BRANCH   1   9
ATOM      9  O   UNL     1       2.475   1.429   0.000  0.00  0.00    +0.000 OA
BRANCH   9  10
ATOM     10  P   UNL     1       1.760   1.841   0.000  0.00  0.00    +0.000 P 
ATOM     11  O   UNL     1       1.046   2.254   0.000  0.00  0.00    +0.000 OA
ATOM     12  O   UNL     1       1.348   1.127   0.000  0.00  0.00    +0.000 OA
ATOM     13  O   UNL     1       2.173   2.556   0.000  0.00  0.00    +0.000 OA
ENDBRANCH   9  10
ENDBRANCH   1   9
TORSDOF 5
