REMARK  Name = 
REMARK  7 active torsions:
REMARK  status: ('A' for Active; 'I' for Inactive)
REMARK    1  A    between atoms: O_2  and  C_9
REMARK    2  A    between atoms: O_2  and  C_18
REMARK    3  A    between atoms: O_3  and  C_11
REMARK    4  A    between atoms: O_3  and  C_19
REMARK    5  A    between atoms: C_8  and  C_12
REMARK    6  A    between atoms: C_15  and  C_16
REMARK    7  A    between atoms: CA_21  and  C_26
REMARK                            x       y       z     vdW  Elec       q    Type
REMARK                         _______ _______ _______ _____ _____    ______ ____
ROOT
ATOM      1  S   UNL     1       6.335   1.075   0.000  0.00  0.00    +0.000 S 
ATOM      2  N   UNL     1       5.000   1.075   0.000  0.00  0.00    +0.000 NA
ATOM      3  C   UNL     1       5.667   0.590   0.000  0.00  0.00    +0.000 A 
ATOM      4  C   UNL     1       5.255   1.859   0.000  0.00  0.00    +0.000 A 
ATOM      5  C   UNL     1       6.080   1.859   0.000  0.00  0.00    +0.000 A 
ENDROOT
BRANCH   4   7
ATOM      6  N   UNL     1       3.949   2.441   0.000  0.00  0.00    +0.000 NA
ATOM      7  C   UNL     1       4.770   2.527   0.000  0.00  0.00    +0.000 A 
ATOM      8  C   UNL     1       5.105   3.280   0.000  0.00  0.00    +0.000 A 
ATOM      9  CA  UNL     1       3.464   3.108   0.000  0.00  0.00    +0.000 A 
ATOM     10  C   UNL     1       4.620   3.948   0.000  0.00  0.00    +0.000 A 
ATOM     11  C   UNL     1       3.800   3.862   0.000  0.00  0.00    +0.000 A 
BRANCH   9  14
ATOM     12  O   UNL     1       2.159   3.689   0.000  0.00  0.00    +0.000 OA
ATOM     13  OXT UNL     1       2.308   2.268   0.000  0.00  0.00    +0.000 OA
ATOM     14  C   UNL     1       2.644   3.022   0.000  0.00  0.00    +0.000 C 
ENDBRANCH   9  14
ENDBRANCH   4   7
BRANCH   3  15
ATOM     15  C   UNL     1       5.667  -0.235   0.000  0.00  0.00    +0.000 A 
ATOM     16  C   UNL     1       4.953  -1.473   0.000  0.00  0.00    +0.000 A 
ATOM     17  C   UNL     1       4.953  -0.648   0.000  0.00  0.00    +0.000 A 
ATOM     18  C   UNL     1       5.667  -1.885   0.000  0.00  0.00    +0.000 A 
ATOM     19  C   UNL     1       6.381  -0.648   0.000  0.00  0.00    +0.000 A 
ATOM     20  C   UNL     1       6.381  -1.473   0.000  0.00  0.00    +0.000 A 
BRANCH  18  21
ATOM     21  O   UNL     1       5.667  -2.710   0.000  0.00  0.00    +0.000 OA
BRANCH  21  22
ATOM     22  C   UNL     1       6.381  -3.123   0.000  0.00  0.00    +0.000 C 
ATOM     23  C   UNL     1       6.381  -3.948   0.000  0.00  0.00    +0.000 C 
ENDBRANCH  21  22
ENDBRANCH  18  21
BRANCH  16  24
ATOM     24  O   UNL     1       4.238  -1.885   0.000  0.00  0.00    +0.000 OA
BRANCH  24  25
ATOM     25  C   UNL     1       3.524  -1.473   0.000  0.00  0.00    +0.000 C 
ATOM     26  C   UNL     1       2.809  -1.885   0.000  0.00  0.00    +0.000 C 
ENDBRANCH  24  25
ENDBRANCH  16  24
ENDBRANCH   3  15
TORSDOF 7
