REMARK  Name = 
REMARK  5 active torsions:
REMARK  status: ('A' for Active; 'I' for Inactive)
REMARK    1  A    between atoms: C_5  and  C_9
REMARK    2  A    between atoms: C_5  and  N_24
REMARK    3  A    between atoms: C_6  and  C_9
REMARK    4  A    between atoms: C_11  and  N_22
REMARK    5  A    between atoms: C_14  and  N_22
REMARK                            x       y       z     vdW  Elec       q    Type
REMARK                         _______ _______ _______ _____ _____    ______ ____
ROOT
ATOM      1  C   UNL     1       0.715   2.062   0.000  0.00  0.00    +0.000 C 
ATOM      2  C   UNL     1      -1.429   0.825   0.000  0.00  0.00    +0.000 A 
ATOM      3  C   UNL     1       0.000   0.000   0.000  0.00  0.00    +0.000 A 
ATOM      4  C   UNL     1       1.429   0.000   0.000  0.00  0.00    +0.000 A 
ATOM      5  C   UNL     1       0.715  -0.412   0.000  0.00  0.00    +0.000 A 
ATOM      6  C   UNL     1       0.000   0.825   0.000  0.00  0.00    +0.000 A 
ATOM      7  C   UNL     1      -0.715  -0.412   0.000  0.00  0.00    +0.000 A 
ATOM      8  C   UNL     1       1.429   0.825   0.000  0.00  0.00    +0.000 A 
ATOM      9  F   UNL     1       2.143  -0.412   0.000  0.00  0.00    +0.000 F 
ATOM     10  N   UNL     1      -0.715   1.238   0.000  0.00  0.00    +0.000 NA
ATOM     11  N   UNL     1       0.715   1.238   0.000  0.00  0.00    +0.000 N 
ATOM     12  N   UNL     1      -1.429   0.000   0.000  0.00  0.00    +0.000 N 
ATOM     13  O   UNL     1      -0.715  -1.238   0.000  0.00  0.00    +0.000 OA
ATOM     14  O   UNL     1       2.143   1.238   0.000  0.00  0.00    +0.000 OA
ENDROOT
BRANCH  12  15
ATOM     15  C   UNL     1      -2.143  -0.412   0.000  0.00  0.00    +0.000 C 
BRANCH  15  16
ATOM     16  C   UNL     1      -2.143  -1.238   0.000  0.00  0.00    +0.000 C 
ATOM     17  O   UNL     1      -1.429  -1.650   0.000  0.00  0.00    +0.000 OA
BRANCH  16  18
ATOM     18  C   UNL     1      -2.858  -1.650   0.000  0.00  0.00    +0.000 C 
ATOM     19  O   UNL     1      -2.858  -2.475   0.000  0.00  0.00    +0.000 OA
ENDBRANCH  16  18
ENDBRANCH  15  16
ENDBRANCH  12  15
BRANCH   5  20
ATOM     20  N   UNL     1       0.715  -1.238   0.000  0.00  0.00    +0.000 NA
BRANCH  20  26
ATOM     21  C   UNL     1       2.858  -1.650   0.000  0.00  0.00    +0.000 A 
ATOM     22  C   UNL     1       2.143  -1.238   0.000  0.00  0.00    +0.000 A 
ATOM     23  C   UNL     1       2.143  -2.888   0.000  0.00  0.00    +0.000 A 
ATOM     24  C   UNL     1       2.858  -2.475   0.000  0.00  0.00    +0.000 A 
ATOM     25  C   UNL     1       1.429  -2.475   0.000  0.00  0.00    +0.000 A 
ATOM     26  C   UNL     1       1.429  -1.650   0.000  0.00  0.00    +0.000 A 
ATOM     27  F   UNL     1       0.715  -2.888   0.000  0.00  0.00    +0.000 F 
ATOM     28  I   UNL     1       3.572  -2.888   0.000  0.00  0.00    +0.000 I 
ENDBRANCH  20  26
ENDBRANCH   5  20
TORSDOF 5
