REMARK  Name = 
REMARK  4 active torsions:
REMARK  status: ('A' for Active; 'I' for Inactive)
REMARK    1  A    between atoms: C_1  and  C_3
REMARK    2  A    between atoms: C_15  and  N_20
REMARK    3  A    between atoms: C_18  and  C_22
REMARK    4  A    between atoms: C_22  and  C_23
REMARK                            x       y       z     vdW  Elec       q    Type
REMARK                         _______ _______ _______ _____ _____    ______ ____
ROOT
ATOM      1  C   UNL     1      -3.031   2.138   0.000  0.00  0.00    +0.000 A 
ATOM      2  C   UNL     1      -3.746   1.725   0.000  0.00  0.00    +0.000 A 
ATOM      3  N   UNL     1      -3.031   0.487   0.000  0.00  0.00    +0.000 NA
ATOM      4  C   UNL     1      -3.746   0.900   0.000  0.00  0.00    +0.000 A 
ATOM      5  O   UNL     1      -4.460   0.487   0.000  0.00  0.00    +0.000 OA
ATOM      6  C   UNL     1      -2.317   1.725   0.000  0.00  0.00    +0.000 A 
ATOM      7  C   UNL     1      -2.317   0.900   0.000  0.00  0.00    +0.000 A 
ATOM      8  C   UNL     1      -1.602   2.138   0.000  0.00  0.00    +0.000 A 
ATOM      9  C   UNL     1      -1.602   0.487   0.000  0.00  0.00    +0.000 A 
ATOM     10  C   UNL     1      -0.888   0.900   0.000  0.00  0.00    +0.000 A 
ATOM     11  C   UNL     1      -0.888   1.725   0.000  0.00  0.00    +0.000 A 
ENDROOT
BRANCH  11  16
ATOM     12  C   UNL     1       0.733   3.118   0.000  0.00  0.00    +0.000 C 
ATOM     13  C   UNL     1      -0.076   2.957   0.000  0.00  0.00    +0.000 C 
ATOM     14  C   UNL     1       0.576   1.792   0.000  0.00  0.00    +0.000 C 
ATOM     15  C   UNL     1       1.136   2.398   0.000  0.00  0.00    +0.000 C 
ATOM     16  N   UNL     1      -0.173   2.138   0.000  0.00  0.00    +0.000 N 
ATOM     17  C   UNL     1      -0.682   3.517   0.000  0.00  0.00    +0.000 C 
BRANCH  14  18
ATOM     18  C   UNL     1       0.737   0.983   0.000  0.00  0.00    +0.000 C 
ATOM     19  O   UNL     1       0.117   0.439   0.000  0.00  0.00    +0.000 OA
BRANCH  18  20
ATOM     20  C   UNL     1       1.518   0.718   0.000  0.00  0.00    +0.000 C 
ATOM     21  F   UNL     1       2.138   1.262   0.000  0.00  0.00    +0.000 F 
ATOM     22  F   UNL     1       2.299   0.453   0.000  0.00  0.00    +0.000 F 
ATOM     23  F   UNL     1       1.679  -0.091   0.000  0.00  0.00    +0.000 F 
ENDBRANCH  18  20
ENDBRANCH  14  18
ENDBRANCH  11  16
BRANCH   1  24
ATOM     24  C   UNL     1      -3.031   2.962   0.000  0.00  0.00    +0.000 C 
ATOM     25  F   UNL     1      -3.031   3.788   0.000  0.00  0.00    +0.000 F 
ATOM     26  F   UNL     1      -2.206   2.962   0.000  0.00  0.00    +0.000 F 
ATOM     27  F   UNL     1      -3.856   2.962   0.000  0.00  0.00    +0.000 F 
ENDBRANCH   1  24
TORSDOF 4
