REMARK  Name = 
REMARK  5 active torsions:
REMARK  status: ('A' for Active; 'I' for Inactive)
REMARK    1  A    between atoms: C_5  and  C_6
REMARK    2  A    between atoms: C_6  and  C_7
REMARK    3  A    between atoms: C_13  and  C_23
REMARK    4  A    between atoms: C_15  and  C_16
REMARK    5  A    between atoms: C_16  and  C_17
REMARK                            x       y       z     vdW  Elec       q    Type
REMARK                         _______ _______ _______ _____ _____    ______ ____
ROOT
ATOM      1  C   UNL     1      -2.858  -6.600   0.000  0.00  0.00    +0.000 C 
ATOM      2  O   UNL     1      -3.572  -6.188   0.000  0.00  0.00    +0.000 OA
ATOM      3  N   UNL     1      -2.858  -7.425   0.000  0.00  0.00    +0.000 NA
ATOM      4  C   UNL     1      -2.143  -7.838   0.000  0.00  0.00    +0.000 A 
ATOM      5  N   UNL     1      -1.429  -7.425   0.000  0.00  0.00    +0.000 NA
ATOM      6  C   UNL     1      -0.715  -7.838   0.000  0.00  0.00    +0.000 A 
ATOM      7  C   UNL     1      -0.715  -8.662   0.000  0.00  0.00    +0.000 A 
ATOM      8  N   UNL     1      -1.429  -9.075   0.000  0.00  0.00    +0.000 NA
ATOM      9  C   UNL     1      -2.143  -8.662   0.000  0.00  0.00    +0.000 A 
ENDROOT
BRANCH   7  10
ATOM     10  C   UNL     1       0.000  -9.075   0.000  0.00  0.00    +0.000 A 
ATOM     11  C   UNL     1       0.715  -8.662   0.000  0.00  0.00    +0.000 A 
ATOM     12  C   UNL     1       1.429  -9.075   0.000  0.00  0.00    +0.000 A 
ATOM     13  C   UNL     1       1.429  -9.900   0.000  0.00  0.00    +0.000 A 
ATOM     14  O   UNL     1       2.143 -10.312   0.000  0.00  0.00    +0.000 OA
ATOM     15  C   UNL     1       0.715 -10.312   0.000  0.00  0.00    +0.000 A 
ATOM     16  C   UNL     1       0.000  -9.900   0.000  0.00  0.00    +0.000 A 
ENDBRANCH   7  10
BRANCH   1  17
ATOM     17  C   UNL     1      -2.143  -6.188   0.000  0.00  0.00    +0.000 C 
BRANCH  17  22
ATOM     18  O   UNL     1      -2.143  -2.888   0.000  0.00  0.00    +0.000 OA
ATOM     19  C   UNL     1      -2.143  -3.712   0.000  0.00  0.00    +0.000 A 
ATOM     20  C   UNL     1      -1.429  -4.125   0.000  0.00  0.00    +0.000 A 
ATOM     21  C   UNL     1      -1.429  -4.950   0.000  0.00  0.00    +0.000 A 
ATOM     22  C   UNL     1      -2.143  -5.362   0.000  0.00  0.00    +0.000 A 
ATOM     23  C   UNL     1      -2.858  -4.950   0.000  0.00  0.00    +0.000 A 
ATOM     24  C   UNL     1      -2.858  -4.125   0.000  0.00  0.00    +0.000 A 
ENDBRANCH  17  22
ENDBRANCH   1  17
BRANCH   9  25
ATOM     25  C   UNL     1      -2.858  -9.075   0.000  0.00  0.00    +0.000 C 
BRANCH  25  26
ATOM     26  C   UNL     1      -3.572  -8.662   0.000  0.00  0.00    +0.000 A 
ATOM     27  C   UNL     1      -4.287  -9.075   0.000  0.00  0.00    +0.000 A 
ATOM     28  C   UNL     1      -5.001  -8.662   0.000  0.00  0.00    +0.000 A 
ATOM     29  C   UNL     1      -5.001  -7.838   0.000  0.00  0.00    +0.000 A 
ATOM     30  C   UNL     1      -4.287  -7.425   0.000  0.00  0.00    +0.000 A 
ATOM     31  C   UNL     1      -3.572  -7.838   0.000  0.00  0.00    +0.000 A 
ENDBRANCH  25  26
ENDBRANCH   9  25
TORSDOF 5
