REMARK  Name = 
REMARK  4 active torsions:
REMARK  status: ('A' for Active; 'I' for Inactive)
REMARK    1  A    between atoms: C_2  and  O_3
REMARK    2  A    between atoms: C_2  and  CA_8
REMARK    3  A    between atoms: O_3  and  P_4
REMARK    4  A    between atoms: CA_8  and  C_10
REMARK                            x       y       z     vdW  Elec       q    Type
REMARK                         _______ _______ _______ _____ _____    ______ ____
ROOT
ATOM      1  C   UNL     1       3.904   0.604   0.000  0.00  0.00    +0.000 C 
ATOM      2  C   UNL     1       3.904   1.429   0.000  0.00  0.00    +0.000 C 
ENDROOT
BRANCH   2   3
ATOM      3  CA  UNL     1       4.618   1.841   0.000  0.00  0.00    +0.000 C 
ATOM      4  N   UNL     1       4.618   2.666   0.000  0.00  0.00    +0.000 NA
BRANCH   3   5
ATOM      5  C   UNL     1       5.333   1.429   0.000  0.00  0.00    +0.000 C 
ATOM      6  O   UNL     1       6.047   1.841   0.000  0.00  0.00    +0.000 OA
ATOM      7  OXT UNL     1       5.333   0.604   0.000  0.00  0.00    +0.000 OA
ENDBRANCH   3   5
ENDBRANCH   2   3
BRANCH   2   8
ATOM      8  O   UNL     1       3.189   1.841   0.000  0.00  0.00    +0.000 OA
BRANCH   8   9
ATOM      9  P   UNL     1       2.475   1.429   0.000  0.00  0.00    +0.000 P 
ATOM     10  O   UNL     1       1.760   1.016   0.000  0.00  0.00    +0.000 OA
ATOM     11  O   UNL     1       2.888   0.715   0.000  0.00  0.00    +0.000 OA
ATOM     12  O   UNL     1       2.062   2.143   0.000  0.00  0.00    +0.000 OA
ENDBRANCH   8   9
ENDBRANCH   2   8
TORSDOF 4
