REMARK  Name = 
REMARK  5 active torsions:
REMARK  status: ('A' for Active; 'I' for Inactive)
REMARK    1  A    between atoms: C_2  and  C_3
REMARK    2  A    between atoms: C_2  and  N_9
REMARK    3  A    between atoms: C_3  and  N_10
REMARK    4  A    between atoms: C_6  and  N_11
REMARK    5  A    between atoms: N_9  and  S_16
REMARK                            x       y       z     vdW  Elec       q    Type
REMARK                         _______ _______ _______ _____ _____    ______ ____
ROOT
ATOM      1  C   UNL     1      -0.330  -0.823   0.000  0.00  0.00    +0.000 C 
ATOM      2  C   UNL     1       1.235   0.629   0.000  0.00  0.00    +0.000 A 
ATOM      3  C   UNL     1       0.155  -0.155   0.000  0.00  0.00    +0.000 A 
ATOM      4  C   UNL     1       0.568   1.114   0.000  0.00  0.00    +0.000 A 
ATOM      5  N   UNL     1       0.980  -0.155   0.000  0.00  0.00    +0.000 NA
ATOM      6  N   UNL     1      -0.100   0.629   0.000  0.00  0.00    +0.000 N 
ENDROOT
BRANCH   4   7
ATOM      7  N   UNL     1       0.568   1.939   0.000  0.00  0.00    +0.000 N 
ATOM      8  O   UNL     1      -0.147   2.352   0.000  0.00  0.00    +0.000 OA
ATOM      9  O   UNL     1       1.282   2.352   0.000  0.00  0.00    +0.000 OA
ENDBRANCH   4   7
BRANCH   6  10
ATOM     10  C   UNL     1      -0.884   0.884   0.000  0.00  0.00    +0.000 C 
BRANCH  10  11
ATOM     11  C   UNL     1      -1.497   0.332   0.000  0.00  0.00    +0.000 C 
BRANCH  11  12
ATOM     12  N   UNL     1      -2.282   0.587   0.000  0.00  0.00    +0.000 NA
BRANCH  12  16
ATOM     13  N   UNL     1      -3.508  -0.517   0.000  0.00  0.00    +0.000 NA
ATOM     14  O   UNL     1      -2.343  -0.578   0.000  0.00  0.00    +0.000 OA
ATOM     15  O   UNL     1      -3.447   0.648   0.000  0.00  0.00    +0.000 OA
ATOM     16  S   UNL     1      -2.895   0.035   0.000  0.00  0.00    +0.000 S 
ENDBRANCH  12  16
ENDBRANCH  11  12
ENDBRANCH  10  11
ENDBRANCH   6  10
TORSDOF 5
