REMARK  Name = 
REMARK  0 active torsions:
REMARK  status: ('A' for Active; 'I' for Inactive)
REMARK                            x       y       z     vdW  Elec       q    Type
REMARK                         _______ _______ _______ _____ _____    ______ ____
ROOT
ATOM      1  C   UNL     1       0.667   0.217   0.000  0.00  0.00    +0.000 A 
ATOM      2  C   UNL     1       0.000   0.702   0.000  0.00  0.00    +0.000 A 
ATOM      3  C   UNL     1      -0.412  -0.568   0.000  0.00  0.00    +0.000 A 
ATOM      4  N   UNL     1       0.412  -0.568   0.000  0.00  0.00    +0.000 NA
ATOM      5  N   UNL     1      -0.667   0.217   0.000  0.00  0.00    +0.000 NA
ENDROOT
TORSDOF 0
REMARK  Name = 
REMARK  0 active torsions:
REMARK  status: ('A' for Active; 'I' for Inactive)
REMARK                            x       y       z     vdW  Elec       q    Type
REMARK                         _______ _______ _______ _____ _____    ______ ____
ROOT
ATOM      1  C   UNL     1       4.124   0.217   0.000  0.00  0.00    +0.000 A 
ATOM      2  C   UNL     1       3.456   0.702   0.000  0.00  0.00    +0.000 A 
ATOM      3  C   UNL     1       3.044  -0.568   0.000  0.00  0.00    +0.000 A 
ATOM      4  N   UNL     1       3.869  -0.568   0.000  0.00  0.00    +0.000 NA
ATOM      5  N   UNL     1       2.789   0.217   0.000  0.00  0.00    +0.000 NA
ENDROOT
TORSDOF 0
REMARK  Name = 
REMARK  0 active torsions:
REMARK  status: ('A' for Active; 'I' for Inactive)
REMARK                            x       y       z     vdW  Elec       q    Type
REMARK                         _______ _______ _______ _____ _____    ______ ____
ROOT
ATOM      1  C   UNL     1       7.580   0.217   0.000  0.00  0.00    +0.000 A 
ATOM      2  C   UNL     1       6.913   0.702   0.000  0.00  0.00    +0.000 A 
ATOM      3  C   UNL     1       6.500  -0.568   0.000  0.00  0.00    +0.000 A 
ATOM      4  N   UNL     1       7.325  -0.568   0.000  0.00  0.00    +0.000 NA
ATOM      5  N   UNL     1       6.245   0.217   0.000  0.00  0.00    +0.000 NA
ENDROOT
TORSDOF 0
REMARK  Name = 
REMARK  0 active torsions:
REMARK  status: ('A' for Active; 'I' for Inactive)
REMARK                            x       y       z     vdW  Elec       q    Type
REMARK                         _______ _______ _______ _____ _____    ______ ____
ROOT
ATOM      1  C   UNL     1       0.667  -2.703   0.000  0.00  0.00    +0.000 A 
ATOM      2  C   UNL     1       0.000  -2.218   0.000  0.00  0.00    +0.000 A 
ATOM      3  C   UNL     1      -0.412  -3.487   0.000  0.00  0.00    +0.000 A 
ATOM      4  N   UNL     1       0.412  -3.487   0.000  0.00  0.00    +0.000 NA
ATOM      5  N   UNL     1      -0.667  -2.703   0.000  0.00  0.00    +0.000 NA
ENDROOT
TORSDOF 0
REMARK  Name = 
REMARK  0 active torsions:
REMARK  status: ('A' for Active; 'I' for Inactive)
REMARK                            x       y       z     vdW  Elec       q    Type
REMARK                         _______ _______ _______ _____ _____    ______ ____
ROOT
ATOM      1 CU   UNL     1       3.025  -2.920   0.000  0.00  0.00    +0.000 Cu
ENDROOT
TORSDOF 0
REMARK  Name = 
REMARK  0 active torsions:
REMARK  status: ('A' for Active; 'I' for Inactive)
REMARK                            x       y       z     vdW  Elec       q    Type
REMARK                         _______ _______ _______ _____ _____    ______ ____
ROOT
ATOM      1  O   HOH     1       5.264  -2.920   0.000  0.00  0.00    +0.000 OA
ENDROOT
TORSDOF 0
REMARK  Name = 
REMARK  0 active torsions:
REMARK  status: ('A' for Active; 'I' for Inactive)
REMARK                            x       y       z     vdW  Elec       q    Type
REMARK                         _______ _______ _______ _____ _____    ______ ____
ROOT
ATOM      1  O   HOH     1       0.000  -5.137   0.000  0.00  0.00    +0.000 OA
ENDROOT
TORSDOF 0
