REMARK  Name = 
REMARK  2 active torsions:
REMARK  status: ('A' for Active; 'I' for Inactive)
REMARK    1  A    between atoms: S_1  and  C_6
REMARK    2  A    between atoms: C_6  and  C_7
REMARK                            x       y       z     vdW  Elec       q    Type
REMARK                         _______ _______ _______ _____ _____    ______ ____
ROOT
ATOM      1  S   UNL     1      23.772 -10.775   0.000  0.00  0.00    +0.000 S 
ATOM      2  O   UNL     1      23.057 -11.188   0.000  0.00  0.00    +0.000 OA
ATOM      3  O   UNL     1      23.359 -10.061   0.000  0.00  0.00    +0.000 OA
ATOM      4  O   UNL     1      24.184 -11.490   0.000  0.00  0.00    +0.000 OA
ENDROOT
BRANCH   1   5
ATOM      5  C   UNL     1      24.486 -10.363   0.000  0.00  0.00    +0.000 C 
BRANCH   5   7
ATOM      6  S   UNL     1      25.915 -10.363   0.000  0.00  0.00    +0.000 S 
ATOM      7  C   UNL     1      25.201 -10.775   0.000  0.00  0.00    +0.000 C 
ENDBRANCH   5   7
ENDBRANCH   1   5
TORSDOF 2
