REMARK  Name = 
REMARK  4 active torsions:
REMARK  status: ('A' for Active; 'I' for Inactive)
REMARK    1  A    between atoms: N_5  and  N_6
REMARK    2  A    between atoms: N_7  and  C_20
REMARK    3  A    between atoms: C_14  and  C_15
REMARK    4  A    between atoms: C_17  and  C_18
REMARK                            x       y       z     vdW  Elec       q    Type
REMARK                         _______ _______ _______ _____ _____    ______ ____
ROOT
ATOM      1  N   UNL     1       5.158  -0.320   0.000  0.00  0.00    +0.000 N 
ATOM      2  N   UNL     1       4.491   0.165   0.000  0.00  0.00    +0.000 NA
ATOM      3  C   UNL     1       4.746   0.950   0.000  0.00  0.00    +0.000 A 
ATOM      4  C   UNL     1       5.571   0.950   0.000  0.00  0.00    +0.000 A 
ATOM      5  C   UNL     1       5.826   0.165   0.000  0.00  0.00    +0.000 A 
ATOM      6  C   UNL     1       6.056   1.617   0.000  0.00  0.00    +0.000 C 
ENDROOT
BRANCH   1   9
ATOM      7 CL   UNL     1       3.729  -1.145   0.000  0.00  0.00    +0.000 Cl
ATOM      8 CL   UNL     1       5.158  -3.620   0.000  0.00  0.00    +0.000 Cl
ATOM      9  C   UNL     1       5.158  -1.145   0.000  0.00  0.00    +0.000 A 
ATOM     10  C   UNL     1       4.444  -1.557   0.000  0.00  0.00    +0.000 A 
ATOM     11  C   UNL     1       5.873  -1.557   0.000  0.00  0.00    +0.000 A 
ATOM     12  C   UNL     1       4.444  -2.382   0.000  0.00  0.00    +0.000 A 
ATOM     13  C   UNL     1       5.873  -2.382   0.000  0.00  0.00    +0.000 A 
ATOM     14  C   UNL     1       5.158  -2.795   0.000  0.00  0.00    +0.000 A 
ENDBRANCH   1   9
BRANCH   5  16
ATOM     15 CL   UNL     1       8.964  -0.855   0.000  0.00  0.00    +0.000 Cl
ATOM     16  C   UNL     1       6.611  -0.090   0.000  0.00  0.00    +0.000 A 
ATOM     17  C   UNL     1       7.223   0.462   0.000  0.00  0.00    +0.000 A 
ATOM     18  C   UNL     1       6.782  -0.897   0.000  0.00  0.00    +0.000 A 
ATOM     19  C   UNL     1       8.008   0.207   0.000  0.00  0.00    +0.000 A 
ATOM     20  C   UNL     1       7.567  -1.152   0.000  0.00  0.00    +0.000 A 
ATOM     21  C   UNL     1       8.180  -0.600   0.000  0.00  0.00    +0.000 A 
ENDBRANCH   5  16
BRANCH   3  24
ATOM     22  O   UNL     1       4.596   2.371   0.000  0.00  0.00    +0.000 OA
ATOM     23  N   UNL     1       3.440   1.531   0.000  0.00  0.00    +0.000 NA
ATOM     24  C   UNL     1       4.261   1.617   0.000  0.00  0.00    +0.000 C 
BRANCH  23  25
ATOM     25  N   UNL     1       2.955   2.199   0.000  0.00  0.00    +0.000 NA
ATOM     26  C   UNL     1       1.986   3.534   0.000  0.00  0.00    +0.000 C 
ATOM     27  C   UNL     1       1.650   2.780   0.000  0.00  0.00    +0.000 C 
ATOM     28  C   UNL     1       2.806   3.620   0.000  0.00  0.00    +0.000 C 
ATOM     29  C   UNL     1       2.135   2.112   0.000  0.00  0.00    +0.000 C 
ATOM     30  C   UNL     1       3.291   2.952   0.000  0.00  0.00    +0.000 C 
ENDBRANCH  23  25
ENDBRANCH   3  24
TORSDOF 4
