REMARK  Name = 
REMARK  7 active torsions:
REMARK  status: ('A' for Active; 'I' for Inactive)
REMARK    1  A    between atoms: C_3  and  C_4
REMARK    2  A    between atoms: C_4  and  C_5
REMARK    3  A    between atoms: C_5  and  O_6
REMARK    4  A    between atoms: O_6  and  P_7
REMARK    5  A    between atoms: N_13  and  C_14
REMARK    6  A    between atoms: C_14  and  C_15
REMARK    7  A    between atoms: C_18  and  C_22
REMARK                            x       y       z     vdW  Elec       q    Type
REMARK                         _______ _______ _______ _____ _____    ______ ____
ROOT
ATOM      1  C   UNL     1       1.124  -4.624   0.000  0.00  0.00    +0.000 C 
ATOM      2  C   UNL     1       1.296  -3.817   0.000  0.00  0.00    +0.000 A 
ATOM      3  C   UNL     1       2.049  -3.482   0.000  0.00  0.00    +0.000 A 
ATOM      4  S   UNL     1       1.963  -2.661   0.000  0.00  0.00    +0.000 S 
ATOM      5  C   UNL     1       1.156  -2.490   0.000  0.00  0.00    +0.000 A 
ATOM      6  N   UNL     1       0.744  -3.204   0.000  0.00  0.00    +0.000 N 
ENDROOT
BRANCH   6   7
ATOM      7  C   UNL     1      -0.077  -3.291   0.000  0.00  0.00    +0.000 C 
BRANCH   7   8
ATOM      8  C   UNL     1      -0.562  -2.623   0.000  0.00  0.00    +0.000 A 
ATOM      9  C   UNL     1      -1.382  -2.709   0.000  0.00  0.00    +0.000 A 
ATOM     10  N   UNL     1      -1.867  -2.042   0.000  0.00  0.00    +0.000 NA
ATOM     11  C   UNL     1      -1.532  -1.288   0.000  0.00  0.00    +0.000 A 
ATOM     12  N   UNL     1      -0.711  -1.202   0.000  0.00  0.00    +0.000 NA
ATOM     13  C   UNL     1      -0.226  -1.869   0.000  0.00  0.00    +0.000 A 
ATOM     14  N   UNL     1       0.594  -1.783   0.000  0.00  0.00    +0.000 NA
BRANCH  11  15
ATOM     15  C   UNL     1      -2.017  -0.621   0.000  0.00  0.00    +0.000 C 
ATOM     16  F   UNL     1      -2.502   0.047   0.000  0.00  0.00    +0.000 F 
ATOM     17  F   UNL     1      -1.349  -0.136   0.000  0.00  0.00    +0.000 F 
ATOM     18  F   UNL     1      -2.684  -1.106   0.000  0.00  0.00    +0.000 F 
ENDBRANCH  11  15
ENDBRANCH   7   8
ENDBRANCH   6   7
BRANCH   3  19
ATOM     19  C   UNL     1       2.764  -3.894   0.000  0.00  0.00    +0.000 C 
BRANCH  19  20
ATOM     20  C   UNL     1       3.478  -3.482   0.000  0.00  0.00    +0.000 C 
BRANCH  20  21
ATOM     21  O   UNL     1       4.193  -3.894   0.000  0.00  0.00    +0.000 OA
BRANCH  21  22
ATOM     22  P   UNL     1       4.907  -3.482   0.000  0.00  0.00    +0.000 P 
ATOM     23  O   UNL     1       5.622  -3.069   0.000  0.00  0.00    +0.000 OA
ATOM     24  O   UNL     1       5.320  -4.196   0.000  0.00  0.00    +0.000 OA
ATOM     25  O   UNL     1       4.495  -2.767   0.000  0.00  0.00    +0.000 OA
ENDBRANCH  21  22
ENDBRANCH  20  21
ENDBRANCH  19  20
ENDBRANCH   3  19
TORSDOF 7
