REMARK  Name = 
REMARK  4 active torsions:
REMARK  status: ('A' for Active; 'I' for Inactive)
REMARK    1  A    between atoms: C_11  and  C_14
REMARK    2  A    between atoms: C_16  and  C_19
REMARK    3  A    between atoms: C_17  and  O_22
REMARK    4  A    between atoms: C_18  and  O_23
REMARK                            x       y       z     vdW  Elec       q    Type
REMARK                         _______ _______ _______ _____ _____    ______ ____
ROOT
ATOM      1  C   UNL     1      -2.143   6.188   0.000  0.00  0.00    +0.000 C 
ATOM      2  C   UNL     1      -2.858   5.775   0.000  0.00  0.00    +0.000 C 
ATOM      3  C   UNL     1      -1.429   5.775   0.000  0.00  0.00    +0.000 C 
ATOM      4  C   UNL     1      -3.572   4.537   0.000  0.00  0.00    +0.000 C 
ATOM      5  C   UNL     1      -2.858   4.950   0.000  0.00  0.00    +0.000 C 
ATOM      6  C   UNL     1      -2.143   4.537   0.000  0.00  0.00    +0.000 C 
ATOM      7  N   UNL     1      -1.429   4.950   0.000  0.00  0.00    +0.000 NA
ENDROOT
BRANCH   6  12
ATOM      8  C   UNL     1      -1.429   2.475   0.000  0.00  0.00    +0.000 A 
ATOM      9  C   UNL     1      -1.429   3.300   0.000  0.00  0.00    +0.000 A 
ATOM     10  C   UNL     1      -2.143   2.062   0.000  0.00  0.00    +0.000 A 
ATOM     11  C   UNL     1      -2.858   3.300   0.000  0.00  0.00    +0.000 A 
ATOM     12  C   UNL     1      -2.143   3.712   0.000  0.00  0.00    +0.000 A 
ATOM     13  N   UNL     1      -2.858   2.475   0.000  0.00  0.00    +0.000 NA
ENDBRANCH   6  12
BRANCH   4  17
ATOM     14  C   UNL     1      -4.287   5.775   0.000  0.00  0.00    +0.000 A 
ATOM     15  C   UNL     1      -5.001   6.188   0.000  0.00  0.00    +0.000 A 
ATOM     16  C   UNL     1      -5.716   4.950   0.000  0.00  0.00    +0.000 A 
ATOM     17  C   UNL     1      -4.287   4.950   0.000  0.00  0.00    +0.000 A 
ATOM     18  C   UNL     1      -5.716   5.775   0.000  0.00  0.00    +0.000 A 
ATOM     19  C   UNL     1      -5.001   4.537   0.000  0.00  0.00    +0.000 A 
BRANCH  18  21
ATOM     20  C   UNL     1      -7.145   5.775   0.000  0.00  0.00    +0.000 C 
ATOM     21  O   UNL     1      -6.430   6.188   0.000  0.00  0.00    +0.000 OA
ENDBRANCH  18  21
BRANCH  19  23
ATOM     22  C   UNL     1      -4.287   3.300   0.000  0.00  0.00    +0.000 C 
ATOM     23  O   UNL     1      -5.001   3.712   0.000  0.00  0.00    +0.000 OA
ENDBRANCH  19  23
ENDBRANCH   4  17
TORSDOF 4
