REMARK  Name = 
REMARK  8 active torsions:
REMARK  status: ('A' for Active; 'I' for Inactive)
REMARK    1  A    between atoms: C_2  and  C_3
REMARK    2  A    between atoms: C_9  and  C_10
REMARK    3  A    between atoms: C_28  and  C_29
REMARK    4  A    between atoms: C_29  and  C_30
REMARK    5  A    between atoms: C_30  and  C_31
REMARK    6  A    between atoms: C_34  and  C_35
REMARK    7  A    between atoms: C_35  and  C_36
REMARK    8  A    between atoms: C_36  and  C_37
REMARK                            x       y       z     vdW  Elec       q    Type
REMARK                         _______ _______ _______ _____ _____    ______ ____
ROOT
ATOM      1  C   UNL     1       0.392  -1.845   0.000  0.00  0.00    +0.000 C 
ATOM      2  C   UNL     1       0.446  -1.022   0.000  0.00  0.00    +0.000 C 
ATOM      3  C   UNL     1      -0.188  -0.495   0.000  0.00  0.00    +0.000 C 
ATOM      4  C   UNL     1       1.246  -0.819   0.000  0.00  0.00    +0.000 C 
ATOM      5  C   UNL     1       1.766   0.119   0.000  0.00  0.00    +0.000 C 
ATOM      6  C   UNL     1       2.481   0.531   0.000  0.00  0.00    +0.000 A 
ATOM      7  C   UNL     1       2.786   1.298   0.000  0.00  0.00    +0.000 A 
ATOM      8  C   UNL     1       3.609   1.244   0.000  0.00  0.00    +0.000 A 
ATOM      9  C   UNL     1       4.137   1.878   0.000  0.00  0.00    +0.000 C 
ATOM     10  C   UNL     1       3.813   0.444   0.000  0.00  0.00    +0.000 A 
ATOM     11  C   UNL     1       4.750  -0.076   0.000  0.00  0.00    +0.000 C 
ATOM     12  C   UNL     1       5.163  -0.791   0.000  0.00  0.00    +0.000 C 
ATOM     13  N   UNL     1       4.635  -1.425   0.000  0.00  0.00    +0.000 NA
ATOM     14  C   UNL     1       5.076  -2.123   0.000  0.00  0.00    +0.000 C 
ATOM     15  C   UNL     1       4.555  -3.060   0.000  0.00  0.00    +0.000 C 
ATOM     16  C   UNL     1       3.841  -3.473   0.000  0.00  0.00    +0.000 A 
ATOM     17  N   UNL     1       3.207  -2.945   0.000  0.00  0.00    +0.000 NA
ATOM     18  C   UNL     1       2.509  -3.386   0.000  0.00  0.00    +0.000 A 
ATOM     19  C   UNL     1       1.571  -2.865   0.000  0.00  0.00    +0.000 C 
ATOM     20  C   UNL     1       1.159  -2.151   0.000  0.00  0.00    +0.000 C 
ATOM     21  N   UNL     1       1.686  -1.516   0.000  0.00  0.00    +0.000 NA
ATOM     22  C   UNL     1       2.712  -4.185   0.000  0.00  0.00    +0.000 A 
ATOM     23  C   UNL     1       2.185  -4.820   0.000  0.00  0.00    +0.000 C 
ATOM     24  C   UNL     1       3.535  -4.239   0.000  0.00  0.00    +0.000 A 
ATOM     25  C   UNL     1       5.875  -1.919   0.000  0.00  0.00    +0.000 C 
ATOM     26  C   UNL     1       5.929  -1.096   0.000  0.00  0.00    +0.000 C 
ATOM     27  C   UNL     1       6.627  -0.656   0.000  0.00  0.00    +0.000 C 
ATOM     28  N   UNL     1       3.115   0.004   0.000  0.00  0.00    +0.000 N 
ATOM     29  C   UNL     1       3.061  -0.819   0.000  0.00  0.00    +0.000 C 
ENDROOT
BRANCH   1  31
ATOM     30  C   UNL     1      -0.273  -3.110   0.000  0.00  0.00    +0.000 C 
ATOM     31  C   UNL     1      -0.305  -2.286   0.000  0.00  0.00    +0.000 C 
ENDBRANCH   1  31
BRANCH   7  32
ATOM     32  C   UNL     1       2.346   1.995   0.000  0.00  0.00    +0.000 C 
ATOM     33  C   UNL     1       1.521   1.963   0.000  0.00  0.00    +0.000 C 
ENDBRANCH   7  32
BRANCH  24  34
ATOM     34  C   UNL     1       3.976  -4.937   0.000  0.00  0.00    +0.000 C 
BRANCH  34  35
ATOM     35  C   UNL     1       4.800  -4.904   0.000  0.00  0.00    +0.000 C 
BRANCH  35  36
ATOM     36  C   UNL     1       5.241  -5.602   0.000  0.00  0.00    +0.000 C 
ATOM     37  O   UNL     1       6.065  -5.569   0.000  0.00  0.00    +0.000 OA
ATOM     38  O   UNL     1       4.857  -6.332   0.000  0.00  0.00    +0.000 OA
ENDBRANCH  35  36
ENDBRANCH  34  35
ENDBRANCH  24  34
BRANCH  25  39
ATOM     39  C   UNL     1       6.510  -2.447   0.000  0.00  0.00    +0.000 C 
BRANCH  39  40
ATOM     40  C   UNL     1       7.284  -2.161   0.000  0.00  0.00    +0.000 C 
BRANCH  40  41
ATOM     41  C   UNL     1       7.918  -2.688   0.000  0.00  0.00    +0.000 C 
ATOM     42  O   UNL     1       7.779  -3.502   0.000  0.00  0.00    +0.000 OA
ATOM     43  O   UNL     1       8.692  -2.403   0.000  0.00  0.00    +0.000 OA
ENDBRANCH  40  41
ENDBRANCH  39  40
ENDBRANCH  25  39
TORSDOF 8
