REMARK  Name = 
REMARK  2 active torsions:
REMARK  status: ('A' for Active; 'I' for Inactive)
REMARK    1  A    between atoms: C_1  and  C_4
REMARK    2  A    between atoms: C_4  and  C_14
REMARK                            x       y       z     vdW  Elec       q    Type
REMARK                         _______ _______ _______ _____ _____    ______ ____
ROOT
ATOM      1  C   UNL     1       4.705  -3.367   0.000  0.00  0.00    +0.000 C 
ENDROOT
BRANCH   1   2
ATOM      2  C   UNL     1       3.729  -3.924   0.000  0.00  0.00    +0.000 A 
ATOM      3  C   UNL     1       3.015  -3.512   0.000  0.00  0.00    +0.000 A 
ATOM      4  C   UNL     1       3.729  -4.744   0.000  0.00  0.00    +0.000 A 
ATOM      5  O   UNL     1       3.015  -5.156   0.000  0.00  0.00    +0.000 OA
ATOM      6  C   UNL     1       2.311  -3.924   0.000  0.00  0.00    +0.000 A 
ATOM      7  C   UNL     1       2.311  -4.744   0.000  0.00  0.00    +0.000 A 
ATOM      8  O   UNL     1       4.444  -5.161   0.000  0.00  0.00    +0.000 OA
ATOM      9  O   UNL     1       3.015  -2.687   0.000  0.00  0.00    +0.000 OA
ATOM     10  C   UNL     1       1.596  -3.512   0.000  0.00  0.00    +0.000 A 
ATOM     11  C   UNL     1       1.596  -5.156   0.000  0.00  0.00    +0.000 A 
ATOM     12  C   UNL     1       0.882  -3.924   0.000  0.00  0.00    +0.000 A 
ATOM     13  C   UNL     1       0.882  -4.744   0.000  0.00  0.00    +0.000 A 
ENDBRANCH   1   2
BRANCH   1  14
ATOM     14  C   UNL     1       5.680  -3.924   0.000  0.00  0.00    +0.000 A 
ATOM     15  C   UNL     1       6.395  -3.512   0.000  0.00  0.00    +0.000 A 
ATOM     16  C   UNL     1       5.680  -4.744   0.000  0.00  0.00    +0.000 A 
ATOM     17  O   UNL     1       6.395  -5.156   0.000  0.00  0.00    +0.000 OA
ATOM     18  C   UNL     1       7.098  -3.924   0.000  0.00  0.00    +0.000 A 
ATOM     19  C   UNL     1       7.098  -4.744   0.000  0.00  0.00    +0.000 A 
ATOM     20  O   UNL     1       4.965  -5.161   0.000  0.00  0.00    +0.000 OA
ATOM     21  O   UNL     1       6.395  -2.687   0.000  0.00  0.00    +0.000 OA
ATOM     22  C   UNL     1       7.813  -3.512   0.000  0.00  0.00    +0.000 A 
ATOM     23  C   UNL     1       7.813  -5.156   0.000  0.00  0.00    +0.000 A 
ATOM     24  C   UNL     1       8.528  -3.924   0.000  0.00  0.00    +0.000 A 
ATOM     25  C   UNL     1       8.528  -4.744   0.000  0.00  0.00    +0.000 A 
ENDBRANCH   1  14
TORSDOF 2
