REMARK  Name = 
REMARK  24 active torsions:
REMARK  status: ('A' for Active; 'I' for Inactive)
REMARK    1  A    between atoms: CA_2  and  N_3
REMARK    2  A    between atoms: CA_2  and  C_62
REMARK    3  A    between atoms: C_4  and  CA_6
REMARK    4  A    between atoms: CA_6  and  C_7
REMARK    5  A    between atoms: CA_6  and  N_15
REMARK    6  A    between atoms: C_7  and  C_8
REMARK    7  A    between atoms: C_8  and  C_9
REMARK    8  A    between atoms: C_9  and  CA_10
REMARK    9  A    between atoms: CA_10  and  C_12
REMARK   10  A    between atoms: CD_16  and  CG_18
REMARK   11  A    between atoms: CG_18  and  CB_19
REMARK   12  A    between atoms: CB_19  and  CA_20
REMARK   13  A    between atoms: CA_20  and  N_21
REMARK   14  A    between atoms: CA_20  and  C_59
REMARK   15  A    between atoms: C_22  and  CA_24
REMARK   16  A    between atoms: CA_24  and  N_26
REMARK   17  A    between atoms: C_27  and  C_29
REMARK   18  A    between atoms: C_29  and  O_31
REMARK   19  A    between atoms: O_31  and  C_32
REMARK   20  A    between atoms: C_33  and  N_34
REMARK   21  A    between atoms: C_43  and  O_44
REMARK   22  A    between atoms: O_44  and  C_45
REMARK   23  A    between atoms: C_47  and  C_48
REMARK   24  A    between atoms: C_54  and  N_55
REMARK                            x       y       z     vdW  Elec       q    Type
REMARK                         _______ _______ _______ _____ _____    ______ ____
ROOT
ATOM      1  N   ALA A   1       4.603  -1.361   0.000  0.00  0.00    +0.000 NA
ATOM      2  C   UNK A   0       3.777  -1.361   0.000  0.00  0.00    +0.000 C 
ATOM      3  O   UNK A   0       3.366  -0.646   0.000  0.00  0.00    +0.000 OA
ENDROOT
BRANCH   2   4
ATOM      4  C   UNK A   0       3.364  -2.075   0.000  0.00  0.00    +0.000 C 
ATOM      5  C   UNK A   0       3.776  -2.790   0.000  0.00  0.00    +0.000 C 
BRANCH   4   6
ATOM      6  O   UNK A   0       2.539  -2.074   0.000  0.00  0.00    +0.000 OA
BRANCH   6   7
ATOM      7  C   UNK A   0       2.127  -1.359   0.000  0.00  0.00    +0.000 C 
ATOM      8  C   UNK A   0       1.611  -0.930   0.000  0.00  0.00    +0.000 C 
ATOM      9  C   UNK A   0       0.640  -0.930   0.000  0.00  0.00    +0.000 C 
ATOM     10  O   UNK A   0       0.120  -1.643   0.000  0.00  0.00    +0.000 OA
ATOM     11  C   UNK A   0       0.740  -1.266   0.000  0.00  0.00    +0.000 C 
ATOM     12  C   UNK A   0       1.060  -0.557   0.000  0.00  0.00    +0.000 C 
ATOM     13  O   UNK A   0       0.500  -0.117   0.000  0.00  0.00    +0.000 OA
ATOM     14  C   UNK A   0       1.989  -0.542   0.000  0.00  0.00    +0.000 C 
BRANCH   8  15
ATOM     15  N   UNK A   0       1.331  -1.706   0.000  0.00  0.00    +0.000 NA
ATOM     16  C   UNK A   0       1.863  -2.337   0.000  0.00  0.00    +0.000 C 
ATOM     17  C   UNK A   0       2.680  -2.450   0.000  0.00  0.00    +0.000 C 
ATOM     18  O   UNK A   0       1.583  -3.113   0.000  0.00  0.00    +0.000 OA
ENDBRANCH   8  15
BRANCH  14  19
ATOM     19  O   UNK A   0       2.517   0.093   0.000  0.00  0.00    +0.000 OA
BRANCH  19  20
ATOM     20  C   UNK A   0       2.231   0.867   0.000  0.00  0.00    +0.000 C 
ATOM     21  O   UNK A   0       1.417   1.006   0.000  0.00  0.00    +0.000 OA
ATOM     22  C   UNK A   0       1.132   1.780   0.000  0.00  0.00    +0.000 C 
ATOM     23  C   UNK A   0       1.659   2.414   0.000  0.00  0.00    +0.000 C 
ATOM     24  O   UNK A   0       1.373   3.188   0.000  0.00  0.00    +0.000 OA
ATOM     25  C   UNK A   0       2.472   2.275   0.000  0.00  0.00    +0.000 C 
ATOM     26  O   UNK A   0       2.999   2.910   0.000  0.00  0.00    +0.000 OA
ATOM     27  C   UNK A   0       2.758   1.501   0.000  0.00  0.00    +0.000 C 
BRANCH  27  28
ATOM     28  N   UNK A   0       3.571   1.362   0.000  0.00  0.00    +0.000 NA
ATOM     29  C   UNK A   0       4.098   1.996   0.000  0.00  0.00    +0.000 C 
ATOM     30  C   UNK A   0       3.812   2.770   0.000  0.00  0.00    +0.000 C 
ATOM     31  O   UNK A   0       4.911   1.857   0.000  0.00  0.00    +0.000 OA
ENDBRANCH  27  28
BRANCH  22  32
ATOM     32  C   UNK A   0       0.318   1.919   0.000  0.00  0.00    +0.000 C 
ATOM     33  O   UNK A   0      -0.209   1.285   0.000  0.00  0.00    +0.000 OA
ENDBRANCH  22  32
ENDBRANCH  19  20
ENDBRANCH  14  19
ENDBRANCH   6   7
ENDBRANCH   4   6
ENDBRANCH   2   4
BRANCH   1  34
ATOM     34  CA  ALA A   1       5.016  -0.647   0.000  0.00  0.00    +0.000 C 
ATOM     35  CB  ALA A   1       4.604   0.067   0.000  0.00  0.00    +0.000 C 
BRANCH  34  37
ATOM     36  N   GLN A   2       6.254   0.066   0.000  0.00  0.00    +0.000 NA
ATOM     37  C   ALA A   1       5.841  -0.648   0.000  0.00  0.00    +0.000 C 
ATOM     38  O   ALA A   1       6.253  -1.363   0.000  0.00  0.00    +0.000 OA
BRANCH  36  39
ATOM     39  CA  GLN A   2       7.079   0.065   0.000  0.00  0.00    +0.000 C 
BRANCH  39  40
ATOM     40  C   GLN A   2       7.491  -0.650   0.000  0.00  0.00    +0.000 C 
ATOM     41  O   GLN A   2       7.077  -1.364   0.000  0.00  0.00    +0.000 OA
ATOM     42  OXT GLN A   2       8.316  -0.651   0.000  0.00  0.00    +0.000 OA
ENDBRANCH  39  40
BRANCH  39  43
ATOM     43  CB  GLN A   2       7.492   0.779   0.000  0.00  0.00    +0.000 C 
BRANCH  43  44
ATOM     44  CG  GLN A   2       8.317   0.778   0.000  0.00  0.00    +0.000 C 
BRANCH  44  46
ATOM     45  N   GLN A   2       9.555   1.492   0.000  0.00  0.00    +0.000 NA
ATOM     46  CD  GLN A   2       8.730   1.492   0.000  0.00  0.00    +0.000 C 
ATOM     47  OE1 GLN A   2       8.319   2.207   0.000  0.00  0.00    +0.000 OA
BRANCH  45  48
ATOM     48  CA  ALA A   1       9.969   2.205   0.000  0.00  0.00    +0.000 C 
BRANCH  48  50
ATOM     49  N   GLN A   2       8.732   2.921   0.000  0.00  0.00    +0.000 NA
ATOM     50  C   ALA A   1       9.557   2.920   0.000  0.00  0.00    +0.000 C 
ATOM     51  O   ALA A   1       9.970   3.635   0.000  0.00  0.00    +0.000 OA
BRANCH  49  53
ATOM     52  CB  GLN A   2       8.733   4.350   0.000  0.00  0.00    +0.000 C 
ATOM     53  CA  GLN A   2       8.320   3.636   0.000  0.00  0.00    +0.000 C 
BRANCH  53  54
ATOM     54  C   GLN A   2       7.495   3.637   0.000  0.00  0.00    +0.000 C 
ATOM     55  O   GLN A   2       7.082   2.923   0.000  0.00  0.00    +0.000 OA
ATOM     56  OXT GLN A   2       7.083   4.352   0.000  0.00  0.00    +0.000 OA
ENDBRANCH  53  54
ENDBRANCH  49  53
ENDBRANCH  48  50
BRANCH  48  57
ATOM     57  C   ALA A   1      10.793   2.205   0.000  0.00  0.00    +0.000 C 
BRANCH  57  58
ATOM     58  C   ALA A   1      11.207   2.919   0.000  0.00  0.00    +0.000 C 
BRANCH  58  59
ATOM     59  C   ALA A   1      12.032   2.918   0.000  0.00  0.00    +0.000 C 
BRANCH  59  60
ATOM     60  CA  ALA A   1      12.445   3.632   0.000  0.00  0.00    +0.000 C 
ATOM     61  N   ALA A   1      12.033   4.347   0.000  0.00  0.00    +0.000 NA
BRANCH  60  62
ATOM     62  C   ALA A   1      13.270   3.631   0.000  0.00  0.00    +0.000 C 
ATOM     63  O   ALA A   1      13.683   4.345   0.000  0.00  0.00    +0.000 OA
ATOM     64  OXT ALA A   1      13.682   2.916   0.000  0.00  0.00    +0.000 OA
ENDBRANCH  60  62
ENDBRANCH  59  60
ENDBRANCH  58  59
ENDBRANCH  57  58
ENDBRANCH  48  57
ENDBRANCH  45  48
ENDBRANCH  44  46
ENDBRANCH  43  44
ENDBRANCH  39  43
ENDBRANCH  36  39
ENDBRANCH  34  37
ENDBRANCH   1  34
TORSDOF 24
