REMARK  Name = 
REMARK  8 active torsions:
REMARK  status: ('A' for Active; 'I' for Inactive)
REMARK    1  A    between atoms: C_1  and  O_13
REMARK    2  A    between atoms: C_2  and  O_23
REMARK    3  A    between atoms: C_7  and  O_13
REMARK    4  A    between atoms: C_14  and  O_35
REMARK    5  A    between atoms: C_15  and  N_28
REMARK    6  A    between atoms: C_16  and  O_36
REMARK    7  A    between atoms: C_17  and  O_23
REMARK    8  A    between atoms: C_21  and  C_44
REMARK                            x       y       z     vdW  Elec       q    Type
REMARK                         _______ _______ _______ _____ _____    ______ ____
ROOT
ATOM      1  C   UNL     1       4.667 -11.750   0.000  0.00  0.00    +0.000 C 
ATOM      2  C   UNL     1       3.229 -11.754   0.000  0.00  0.00    +0.000 C 
ATOM      3  C   UNL     1       2.504  -9.692   0.000  0.00  0.00    +0.000 C 
ATOM      4  C   UNL     1       3.954 -12.162   0.000  0.00  0.00    +0.000 C 
ATOM      5  C   UNL     1       5.375 -10.517   0.000  0.00  0.00    +0.000 C 
ATOM      6  C   UNL     1       4.662 -10.925   0.000  0.00  0.00    +0.000 C 
ATOM      7  C   UNL     1       3.229  -8.454   0.000  0.00  0.00    +0.000 C 
ATOM      8  O   UNL     1       3.229 -10.929   0.000  0.00  0.00    +0.000 OA
ATOM      9  C   UNL     1       3.229  -9.279   0.000  0.00  0.00    +0.000 C 
ATOM     10  C   UNL     1       3.942  -8.042   0.000  0.00  0.00    +0.000 C 
ATOM     11  C   UNL     1       5.375  -9.692   0.000  0.00  0.00    +0.000 C 
ATOM     12  C   UNL     1       2.517 -10.517   0.000  0.00  0.00    +0.000 C 
ATOM     13  C   UNL     1       4.662  -8.454   0.000  0.00  0.00    +0.000 C 
ATOM     14  C   UNL     1       4.662  -9.279   0.000  0.00  0.00    +0.000 C 
ATOM     15  O   UNL     1       2.517 -12.167   0.000  0.00  0.00    +0.000 OA
ATOM     16  O   UNL     1       3.942  -7.217   0.000  0.00  0.00    +0.000 OA
ATOM     17  O   UNL     1       2.004  -9.042   0.000  0.00  0.00    +0.000 OA
ATOM     18  O   UNL     1       3.942  -9.692   0.000  0.00  0.00    +0.000 OA
ATOM     19  C   UNL     1       1.842  -9.938   0.000  0.00  0.00    +0.000 C 
ATOM     20  C   UNL     1       3.888 -12.850   0.000  0.00  0.00    +0.000 C 
ATOM     21  C   UNL     1       3.942 -10.512   0.000  0.00  0.00    +0.000 C 
ATOM     22  C   UNL     1       2.517  -8.042   0.000  0.00  0.00    +0.000 C 
ATOM     23  C   UNL     1       6.088 -10.104   0.000  0.00  0.00    +0.000 C 
ATOM     24  C   UNL     1       5.375  -8.042   0.000  0.00  0.00    +0.000 C 
ENDROOT
BRANCH  12  25
ATOM     25  C   UNL     1       1.804 -10.929   0.000  0.00  0.00    +0.000 C 
ATOM     26  C   UNL     1       1.087 -10.517   0.000  0.00  0.00    +0.000 C 
ENDBRANCH  12  25
BRANCH  11  27
ATOM     27  O   UNL     1       5.367  -8.863   0.000  0.00  0.00    +0.000 OA
ATOM     28  C   UNL     1       6.079  -8.442   0.000  0.00  0.00    +0.000 C 
ENDBRANCH  11  27
BRANCH   5  29
ATOM     29  O   UNL     1       6.088 -10.929   0.000  0.00  0.00    +0.000 OA
BRANCH  29  30
ATOM     30  C   UNL     1       6.604 -11.567   0.000  0.00  0.00    +0.000 C 
ATOM     31  C   UNL     1       7.317 -11.142   0.000  0.00  0.00    +0.000 C 
ATOM     32  C   UNL     1       8.042 -11.550   0.000  0.00  0.00    +0.000 C 
ATOM     33  O   UNL     1       6.617 -12.392   0.000  0.00  0.00    +0.000 OA
ATOM     34  C   UNL     1       8.054 -12.379   0.000  0.00  0.00    +0.000 C 
ATOM     35  C   UNL     1       7.342 -12.792   0.000  0.00  0.00    +0.000 C 
ATOM     36  O   UNL     1       7.312 -10.317   0.000  0.00  0.00    +0.000 OA
ATOM     37  C   UNL     1       7.354 -13.550   0.000  0.00  0.00    +0.000 C 
BRANCH  32  38
ATOM     38  N   UNL     1       8.754 -11.129   0.000  0.00  0.00    +0.000 NA
ATOM     39  C   UNL     1       8.742 -10.304   0.000  0.00  0.00    +0.000 C 
ATOM     40  C   UNL     1       9.475 -11.537   0.000  0.00  0.00    +0.000 C 
ENDBRANCH  32  38
ENDBRANCH  29  30
ENDBRANCH   5  29
BRANCH   1  41
ATOM     41  O   UNL     1       5.092 -12.575   0.000  0.00  0.00    +0.000 OA
BRANCH  41  43
ATOM     42  C   UNL     1       4.500 -14.838   0.000  0.00  0.00    +0.000 C 
ATOM     43  C   UNL     1       4.513 -13.304   0.000  0.00  0.00    +0.000 C 
ATOM     44  C   UNL     1       4.929 -14.129   0.000  0.00  0.00    +0.000 C 
ATOM     45  O   UNL     1       3.704 -13.379   0.000  0.00  0.00    +0.000 OA
ATOM     46  C   UNL     1       3.675 -14.812   0.000  0.00  0.00    +0.000 C 
ATOM     47  C   UNL     1       3.275 -14.079   0.000  0.00  0.00    +0.000 C 
ATOM     48  O   UNL     1       3.229 -15.504   0.000  0.00  0.00    +0.000 OA
ATOM     49  C   UNL     1       5.317 -14.863   0.000  0.00  0.00    +0.000 C 
ATOM     50  C   UNL     1       2.442 -14.067   0.000  0.00  0.00    +0.000 C 
BRANCH  42  51
ATOM     51  O   UNL     1       4.054 -15.537   0.000  0.00  0.00    +0.000 OA
ATOM     52  C   UNL     1       4.450 -16.267   0.000  0.00  0.00    +0.000 C 
ENDBRANCH  42  51
ENDBRANCH  41  43
ENDBRANCH   1  41
TORSDOF 8
