REMARK  Name = 
REMARK  4 active torsions:
REMARK  status: ('A' for Active; 'I' for Inactive)
REMARK    1  A    between atoms: N_4  and  C_5
REMARK    2  A    between atoms: C_8  and  C_15
REMARK    3  A    between atoms: C_10  and  N_11
REMARK    4  A    between atoms: N_11  and  C_12
REMARK                            x       y       z     vdW  Elec       q    Type
REMARK                         _______ _______ _______ _____ _____    ______ ____
ROOT
ATOM      1  C   UNL     1       1.429   0.825   0.000  0.00  0.00    +0.000 A 
ATOM      2  C   UNL     1       1.429   0.000   0.000  0.00  0.00    +0.000 A 
ATOM      3  C   UNL     1       0.715  -0.412   0.000  0.00  0.00    +0.000 A 
ATOM      4  C   UNL     1       0.000   0.000   0.000  0.00  0.00    +0.000 A 
ATOM      5  C   UNL     1       0.000   0.825   0.000  0.00  0.00    +0.000 A 
ATOM      6  C   UNL     1       0.715   1.238   0.000  0.00  0.00    +0.000 A 
ENDROOT
BRANCH   1  10
ATOM      7  C   UNL     1       2.858   2.475   0.000  0.00  0.00    +0.000 C 
ATOM      8  C   UNL     1       2.143   2.062   0.000  0.00  0.00    +0.000 C 
ATOM      9  O   UNL     1       1.429   2.475   0.000  0.00  0.00    +0.000 OA
ATOM     10  N   UNL     1       2.143   1.238   0.000  0.00  0.00    +0.000 NA
ENDBRANCH   1  10
BRANCH   4  11
ATOM     11  C   UNL     1      -0.715  -0.412   0.000  0.00  0.00    +0.000 C 
ATOM     12  O   UNL     1      -0.715  -1.238   0.000  0.00  0.00    +0.000 OA
ATOM     13  O   UNL     1      -1.429   0.000   0.000  0.00  0.00    +0.000 OA
ENDBRANCH   4  11
BRANCH   6  14
ATOM     14  N   UNL     1       0.715   2.062   0.000  0.00  0.00    +0.000 NA
BRANCH  14  15
ATOM     15  C   UNL     1       0.000   2.475   0.000  0.00  0.00    +0.000 C 
ATOM     16  N   UNL     1      -0.715   2.062   0.000  0.00  0.00    +0.000 NA
ATOM     17  N   UNL     1       0.000   3.300   0.000  0.00  0.00    +0.000 NA
ENDBRANCH  14  15
ENDBRANCH   6  14
TORSDOF 4
