REMARK  Name = 
REMARK  9 active torsions:
REMARK  status: ('A' for Active; 'I' for Inactive)
REMARK    1  A    between atoms: C_9  and  O_10
REMARK    2  A    between atoms: O_10  and  C_11
REMARK    3  A    between atoms: C_13  and  C_14
REMARK    4  A    between atoms: C_16  and  O_17
REMARK    5  A    between atoms: O_17  and  C_18
REMARK    6  A    between atoms: C_20  and  C_21
REMARK    7  A    between atoms: C_27  and  N_28
REMARK    8  A    between atoms: C_34  and  N_35
REMARK    9  A    between atoms: C_39  and  C_40
REMARK                            x       y       z     vdW  Elec       q    Type
REMARK                         _______ _______ _______ _____ _____    ______ ____
ROOT
ATOM      1  C   UNL     1       4.561  -0.969   0.000  0.00  0.00    +0.000 C 
ATOM      2  O   UNL     1       4.149  -1.684   0.000  0.00  0.00    +0.000 OA
ATOM      3  C   UNL     1       4.561  -2.398   0.000  0.00  0.00    +0.000 C 
ATOM      4  C   UNL     1       5.386  -2.398   0.000  0.00  0.00    +0.000 C 
ATOM      5  C   UNL     1       5.799  -1.684   0.000  0.00  0.00    +0.000 C 
ATOM      6  O   UNL     1       6.624  -1.684   0.000  0.00  0.00    +0.000 OA
ATOM      7  C   UNL     1       5.386  -0.969   0.000  0.00  0.00    +0.000 C 
ENDROOT
BRANCH   7   8
ATOM      8  N   UNL     1       5.799  -0.255   0.000  0.00  0.00    +0.000 NA
ATOM      9  C   UNL     1       6.624  -0.255   0.000  0.00  0.00    +0.000 C 
ATOM     10  C   UNL     1       7.036  -0.969   0.000  0.00  0.00    +0.000 C 
ATOM     11  O   UNL     1       7.036   0.460   0.000  0.00  0.00    +0.000 OA
ENDBRANCH   7   8
BRANCH   3  12
ATOM     12  C   UNL     1       4.149  -3.113   0.000  0.00  0.00    +0.000 C 
ATOM     13  O   UNL     1       4.561  -3.827   0.000  0.00  0.00    +0.000 OA
ENDBRANCH   3  12
BRANCH   1  14
ATOM     14  O   UNL     1       4.149  -0.255   0.000  0.00  0.00    +0.000 OA
BRANCH  14  23
ATOM     15  C   UNL     1      -0.453  -0.969   0.000  0.00  0.00    +0.000 C 
ATOM     16  N   UNL     1      -0.040  -0.255   0.000  0.00  0.00    +0.000 N 
ATOM     17  C   UNL     1      -0.453   0.460   0.000  0.00  0.00    +0.000 C 
ATOM     18  C   UNL     1       0.785  -0.255   0.000  0.00  0.00    +0.000 C 
ATOM     19  N   UNL     1       1.270   0.412   0.000  0.00  0.00    +0.000 NA
ATOM     20  C   UNL     1       2.054   0.158   0.000  0.00  0.00    +0.000 C 
ATOM     21  C   UNL     1       2.839   0.412   0.000  0.00  0.00    +0.000 C 
ATOM     22  O   UNL     1       3.094   1.197   0.000  0.00  0.00    +0.000 OA
ATOM     23  C   UNL     1       3.324  -0.255   0.000  0.00  0.00    +0.000 C 
ATOM     24  C   UNL     1       2.839  -0.922   0.000  0.00  0.00    +0.000 C 
ATOM     25  C   UNL     1       2.054  -0.667   0.000  0.00  0.00    +0.000 C 
ATOM     26  O   UNL     1       1.270  -0.922   0.000  0.00  0.00    +0.000 OA
BRANCH  24  27
ATOM     27  C   UNL     1       3.094  -1.707   0.000  0.00  0.00    +0.000 C 
ATOM     28  O   UNL     1       2.542  -2.320   0.000  0.00  0.00    +0.000 OA
ENDBRANCH  24  27
ENDBRANCH  14  23
ENDBRANCH   1  14
BRANCH   4  29
ATOM     29  O   UNL     1       5.799  -3.113   0.000  0.00  0.00    +0.000 OA
BRANCH  29  30
ATOM     30  C   UNL     1       6.624  -3.113   0.000  0.00  0.00    +0.000 C 
ATOM     31  O   UNL     1       7.036  -2.398   0.000  0.00  0.00    +0.000 OA
ATOM     32  C   UNL     1       7.861  -2.398   0.000  0.00  0.00    +0.000 C 
ATOM     33  C   UNL     1       8.274  -3.113   0.000  0.00  0.00    +0.000 C 
ATOM     34  O   UNL     1       9.099  -3.113   0.000  0.00  0.00    +0.000 OA
ATOM     35  C   UNL     1       7.861  -3.827   0.000  0.00  0.00    +0.000 C 
ATOM     36  O   UNL     1       8.274  -4.542   0.000  0.00  0.00    +0.000 OA
ATOM     37  C   UNL     1       7.036  -3.827   0.000  0.00  0.00    +0.000 C 
BRANCH  37  38
ATOM     38  N   UNL     1       6.624  -4.542   0.000  0.00  0.00    +0.000 NA
ATOM     39  C   UNL     1       7.036  -5.256   0.000  0.00  0.00    +0.000 C 
ATOM     40  C   UNL     1       7.861  -5.256   0.000  0.00  0.00    +0.000 C 
ATOM     41  O   UNL     1       6.624  -5.971   0.000  0.00  0.00    +0.000 OA
ENDBRANCH  37  38
BRANCH  32  42
ATOM     42  C   UNL     1       8.274  -1.684   0.000  0.00  0.00    +0.000 C 
ATOM     43  O   UNL     1       7.861  -0.969   0.000  0.00  0.00    +0.000 OA
ENDBRANCH  32  42
ENDBRANCH  29  30
ENDBRANCH   4  29
TORSDOF 9
