REMARK  Name = 
REMARK  19 active torsions:
REMARK  status: ('A' for Active; 'I' for Inactive)
REMARK    1  A    between atoms: C_23  and  C_27
REMARK    2  A    between atoms: C_23  and  O_55
REMARK    3  A    between atoms: C_24  and  C_28
REMARK    4  A    between atoms: C_24  and  O_56
REMARK    5  A    between atoms: C_25  and  C_33
REMARK    6  A    between atoms: C_26  and  C_34
REMARK    7  A    between atoms: C_29  and  C_31
REMARK    8  A    between atoms: C_30  and  C_32
REMARK    9  A    between atoms: C_33  and  C_39
REMARK   10  A    between atoms: C_33  and  N_47
REMARK   11  A    between atoms: C_34  and  C_40
REMARK   12  A    between atoms: C_34  and  N_48
REMARK   13  A    between atoms: C_35  and  C_36
REMARK   14  A    between atoms: C_35  and  C_37
REMARK   15  A    between atoms: C_36  and  C_38
REMARK   16  A    between atoms: C_37  and  C_41
REMARK   17  A    between atoms: C_37  and  O_55
REMARK   18  A    between atoms: C_38  and  C_42
REMARK   19  A    between atoms: C_38  and  O_56
REMARK                            x       y       z     vdW  Elec       q    Type
REMARK                         _______ _______ _______ _____ _____    ______ ____
ROOT
ATOM      1  C   UNL     1      -1.429   4.950   0.000  0.00  0.00    +0.000 C 
ATOM      2  O   UNL     1      -1.429   4.125   0.000  0.00  0.00    +0.000 OA
ENDROOT
BRANCH   1   3
ATOM      3  C   UNL     1      -0.715   5.362   0.000  0.00  0.00    +0.000 C 
ATOM      4  O   UNL     1      -0.715   6.188   0.000  0.00  0.00    +0.000 OA
BRANCH   3   5
ATOM      5  C   UNL     1       0.000   4.950   0.000  0.00  0.00    +0.000 C 
BRANCH   5   6
ATOM      6  C   UNL     1       0.000   4.125   0.000  0.00  0.00    +0.000 C 
ATOM      7  N   UNL     1       0.715   3.712   0.000  0.00  0.00    +0.000 NA
ATOM      8  O   UNL     1      -0.715   3.712   0.000  0.00  0.00    +0.000 OA
BRANCH   7   9
ATOM      9  C   UNL     1       0.715   2.888   0.000  0.00  0.00    +0.000 C 
BRANCH   9  11
ATOM     10  C   UNL     1      -0.715   1.238   0.000  0.00  0.00    +0.000 C 
ATOM     11  C   UNL     1       0.000   2.475   0.000  0.00  0.00    +0.000 C 
ATOM     12  N   UNL     1       0.000   1.650   0.000  0.00  0.00    +0.000 NA
ATOM     13  O   UNL     1      -0.715   2.888   0.000  0.00  0.00    +0.000 OA
ENDBRANCH   9  11
BRANCH   9  16
ATOM     14  C   UNL     1       1.429   1.650   0.000  0.00  0.00    +0.000 C 
ATOM     15  C   UNL     1       2.143   2.888   0.000  0.00  0.00    +0.000 C 
ATOM     16  C   UNL     1       1.429   2.475   0.000  0.00  0.00    +0.000 C 
ENDBRANCH   9  16
ENDBRANCH   7   9
ENDBRANCH   5   6
BRANCH   5  17
ATOM     17  O   UNL     1       0.715   5.362   0.000  0.00  0.00    +0.000 OA
BRANCH  17  18
ATOM     18  C   UNL     1       1.429   4.950   0.000  0.00  0.00    +0.000 C 
BRANCH  18  23
ATOM     19  C   UNL     1       2.858   4.950   0.000  0.00  0.00    +0.000 A 
ATOM     20  C   UNL     1       2.143   6.188   0.000  0.00  0.00    +0.000 A 
ATOM     21  C   UNL     1       3.572   5.362   0.000  0.00  0.00    +0.000 A 
ATOM     22  C   UNL     1       2.858   6.600   0.000  0.00  0.00    +0.000 A 
ATOM     23  C   UNL     1       2.143   5.362   0.000  0.00  0.00    +0.000 A 
ATOM     24  C   UNL     1       3.572   6.188   0.000  0.00  0.00    +0.000 A 
BRANCH  24  29
ATOM     25  C   UNL     1       5.001   7.838   0.000  0.00  0.00    +0.000 A 
ATOM     26  C   UNL     1       4.287   7.425   0.000  0.00  0.00    +0.000 A 
ATOM     27  C   UNL     1       5.716   7.425   0.000  0.00  0.00    +0.000 A 
ATOM     28  C   UNL     1       5.001   6.188   0.000  0.00  0.00    +0.000 A 
ATOM     29  C   UNL     1       4.287   6.600   0.000  0.00  0.00    +0.000 A 
ATOM     30  N   UNL     1       5.716   6.600   0.000  0.00  0.00    +0.000 NA
ENDBRANCH  24  29
ENDBRANCH  18  23
ENDBRANCH  17  18
ENDBRANCH   5  17
ENDBRANCH   3   5
ENDBRANCH   1   3
BRANCH   1  31
ATOM     31  C   UNL     1      -2.143   5.362   0.000  0.00  0.00    +0.000 C 
BRANCH  31  32
ATOM     32  C   UNL     1      -2.143   6.188   0.000  0.00  0.00    +0.000 C 
ATOM     33  N   UNL     1      -2.858   6.600   0.000  0.00  0.00    +0.000 NA
ATOM     34  O   UNL     1      -1.429   6.600   0.000  0.00  0.00    +0.000 OA
BRANCH  33  35
ATOM     35  C   UNL     1      -2.858   7.425   0.000  0.00  0.00    +0.000 C 
BRANCH  35  37
ATOM     36  C   UNL     1      -1.429   9.075   0.000  0.00  0.00    +0.000 C 
ATOM     37  C   UNL     1      -2.143   7.838   0.000  0.00  0.00    +0.000 C 
ATOM     38  N   UNL     1      -2.143   8.662   0.000  0.00  0.00    +0.000 NA
ATOM     39  O   UNL     1      -1.429   7.425   0.000  0.00  0.00    +0.000 OA
ENDBRANCH  35  37
BRANCH  35  42
ATOM     40  C   UNL     1      -3.572   8.662   0.000  0.00  0.00    +0.000 C 
ATOM     41  C   UNL     1      -4.287   7.425   0.000  0.00  0.00    +0.000 C 
ATOM     42  C   UNL     1      -3.572   7.838   0.000  0.00  0.00    +0.000 C 
ENDBRANCH  35  42
ENDBRANCH  33  35
ENDBRANCH  31  32
BRANCH  31  43
ATOM     43  O   UNL     1      -2.858   4.950   0.000  0.00  0.00    +0.000 OA
BRANCH  43  44
ATOM     44  C   UNL     1      -3.572   5.362   0.000  0.00  0.00    +0.000 C 
BRANCH  44  49
ATOM     45  C   UNL     1      -5.001   5.362   0.000  0.00  0.00    +0.000 A 
ATOM     46  C   UNL     1      -4.287   4.125   0.000  0.00  0.00    +0.000 A 
ATOM     47  C   UNL     1      -5.716   4.950   0.000  0.00  0.00    +0.000 A 
ATOM     48  C   UNL     1      -5.001   3.712   0.000  0.00  0.00    +0.000 A 
ATOM     49  C   UNL     1      -4.287   4.950   0.000  0.00  0.00    +0.000 A 
ATOM     50  C   UNL     1      -5.716   4.125   0.000  0.00  0.00    +0.000 A 
BRANCH  50  55
ATOM     51  C   UNL     1      -7.145   2.475   0.000  0.00  0.00    +0.000 A 
ATOM     52  C   UNL     1      -6.430   2.888   0.000  0.00  0.00    +0.000 A 
ATOM     53  C   UNL     1      -7.859   2.888   0.000  0.00  0.00    +0.000 A 
ATOM     54  C   UNL     1      -7.145   4.125   0.000  0.00  0.00    +0.000 A 
ATOM     55  C   UNL     1      -6.430   3.712   0.000  0.00  0.00    +0.000 A 
ATOM     56  N   UNL     1      -7.859   3.712   0.000  0.00  0.00    +0.000 NA
ENDBRANCH  50  55
ENDBRANCH  44  49
ENDBRANCH  43  44
ENDBRANCH  31  43
ENDBRANCH   1  31
TORSDOF 19
