REMARK  Name = 
REMARK  20 active torsions:
REMARK  status: ('A' for Active; 'I' for Inactive)
REMARK    1  A    between atoms: C_12  and  C_18
REMARK    2  A    between atoms: C_12  and  C_19
REMARK    3  A    between atoms: C_13  and  C_20
REMARK    4  A    between atoms: C_13  and  C_21
REMARK    5  A    between atoms: C_14  and  C_22
REMARK    6  A    between atoms: C_14  and  C_23
REMARK    7  A    between atoms: C_15  and  C_24
REMARK    8  A    between atoms: C_15  and  C_25
REMARK    9  A    between atoms: C_16  and  C_26
REMARK   10  A    between atoms: C_16  and  C_27
REMARK   11  A    between atoms: C_17  and  C_28
REMARK   12  A    between atoms: C_17  and  C_29
REMARK   13  A    between atoms: C_19  and  C_35
REMARK   14  A    between atoms: C_21  and  C_36
REMARK   15  A    between atoms: C_23  and  C_37
REMARK   16  A    between atoms: C_25  and  C_38
REMARK   17  A    between atoms: C_27  and  C_39
REMARK   18  A    between atoms: C_29  and  C_40
REMARK   19  A    between atoms: C_32  and  C_33
REMARK   20  A    between atoms: C_33  and  C_42
REMARK                            x       y       z     vdW  Elec       q    Type
REMARK                         _______ _______ _______ _____ _____    ______ ____
ROOT
ATOM      1  C   UNL     1       7.145   7.425   0.000  0.00  0.00    +0.000 C 
ENDROOT
BRANCH   1   3
ATOM      2  C   UNL     1       8.574   8.250   0.000  0.00  0.00    +0.000 C 
ATOM      3  C   UNL     1       7.145   8.250   0.000  0.00  0.00    +0.000 C 
ATOM      4  C   UNL     1       7.859   8.662   0.000  0.00  0.00    +0.000 C 
BRANCH   4   5
ATOM      5  C   UNL     1       7.859   9.488   0.000  0.00  0.00    +0.000 C 
BRANCH   5   6
ATOM      6  C   UNL     1       8.574   9.900   0.000  0.00  0.00    +0.000 C 
BRANCH   6   8
ATOM      7  C   UNL     1      10.003  10.725   0.000  0.00  0.00    +0.000 C 
ATOM      8  C   UNL     1       8.574  10.725   0.000  0.00  0.00    +0.000 C 
ATOM      9  C   UNL     1       9.288  11.137   0.000  0.00  0.00    +0.000 C 
BRANCH   9  10
ATOM     10  C   UNL     1       9.288  11.963   0.000  0.00  0.00    +0.000 C 
BRANCH  10  11
ATOM     11  C   UNL     1      10.003  12.375   0.000  0.00  0.00    +0.000 C 
BRANCH  11  13
ATOM     12  C   UNL     1      11.431  13.200   0.000  0.00  0.00    +0.000 C 
ATOM     13  C   UNL     1      10.003  13.200   0.000  0.00  0.00    +0.000 C 
ATOM     14  C   UNL     1      10.717  13.613   0.000  0.00  0.00    +0.000 C 
BRANCH  14  15
ATOM     15  C   UNL     1      10.717  14.438   0.000  0.00  0.00    +0.000 C 
BRANCH  15  16
ATOM     16  C   UNL     1      11.431  14.850   0.000  0.00  0.00    +0.000 C 
BRANCH  16  18
ATOM     17  C   UNL     1      12.861  15.675   0.000  0.00  0.00    +0.000 C 
ATOM     18  C   UNL     1      11.431  15.675   0.000  0.00  0.00    +0.000 C 
ATOM     19  C   UNL     1      12.146  16.087   0.000  0.00  0.00    +0.000 C 
BRANCH  19  20
ATOM     20  C   UNL     1      12.146  16.913   0.000  0.00  0.00    +0.000 C 
BRANCH  20  21
ATOM     21  C   UNL     1      12.861  17.325   0.000  0.00  0.00    +0.000 C 
BRANCH  21  24
ATOM     22  C   UNL     1      13.575  19.387   0.000  0.00  0.00    +0.000 C 
ATOM     23  C   UNL     1      14.289  18.150   0.000  0.00  0.00    +0.000 C 
ATOM     24  C   UNL     1      12.861  18.150   0.000  0.00  0.00    +0.000 C 
ATOM     25  C   UNL     1      13.575  18.562   0.000  0.00  0.00    +0.000 C 
ENDBRANCH  21  24
ENDBRANCH  20  21
ENDBRANCH  19  20
ENDBRANCH  16  18
ENDBRANCH  15  16
ENDBRANCH  14  15
ENDBRANCH  11  13
ENDBRANCH  10  11
ENDBRANCH   9  10
ENDBRANCH   6   8
ENDBRANCH   5   6
ENDBRANCH   4   5
ENDBRANCH   1   3
BRANCH   1  26
ATOM     26  C   UNL     1       6.430   7.013   0.000  0.00  0.00    +0.000 C 
BRANCH  26  29
ATOM     27  C   UNL     1       7.145   5.775   0.000  0.00  0.00    +0.000 C 
ATOM     28  C   UNL     1       5.716   5.775   0.000  0.00  0.00    +0.000 C 
ATOM     29  C   UNL     1       6.430   6.188   0.000  0.00  0.00    +0.000 C 
BRANCH  28  30
ATOM     30  C   UNL     1       5.716   4.950   0.000  0.00  0.00    +0.000 C 
BRANCH  30  31
ATOM     31  C   UNL     1       5.001   4.537   0.000  0.00  0.00    +0.000 C 
BRANCH  31  34
ATOM     32  C   UNL     1       5.716   3.300   0.000  0.00  0.00    +0.000 C 
ATOM     33  C   UNL     1       4.287   3.300   0.000  0.00  0.00    +0.000 C 
ATOM     34  C   UNL     1       5.001   3.712   0.000  0.00  0.00    +0.000 C 
BRANCH  33  35
ATOM     35  C   UNL     1       4.287   2.475   0.000  0.00  0.00    +0.000 C 
BRANCH  35  42
ATOM     36  C   UNL     1       4.287   0.825   0.000  0.00  0.00    +0.000 C 
ATOM     37  C   UNL     1       0.715   1.238   0.000  0.00  0.00    +0.000 A 
ATOM     38  C   UNL     1       0.715   2.062   0.000  0.00  0.00    +0.000 A 
ATOM     39  C   UNL     1       1.429   0.825   0.000  0.00  0.00    +0.000 A 
ATOM     40  C   UNL     1       1.429   2.475   0.000  0.00  0.00    +0.000 A 
ATOM     41  C   UNL     1       3.572   1.238   0.000  0.00  0.00    +0.000 C 
ATOM     42  C   UNL     1       3.572   2.062   0.000  0.00  0.00    +0.000 C 
ATOM     43  C   UNL     1       2.143   1.238   0.000  0.00  0.00    +0.000 A 
ATOM     44  C   UNL     1       2.143   2.062   0.000  0.00  0.00    +0.000 A 
ATOM     45  C   UNL     1       2.858   0.825   0.000  0.00  0.00    +0.000 C 
ATOM     46  C   UNL     1       2.858   2.475   0.000  0.00  0.00    +0.000 C 
ATOM     47  O   UNL     1       2.858   0.000   0.000  0.00  0.00    +0.000 OA
ATOM     48  O   UNL     1       2.858   3.300   0.000  0.00  0.00    +0.000 OA
ENDBRANCH  35  42
ENDBRANCH  33  35
ENDBRANCH  31  34
ENDBRANCH  30  31
ENDBRANCH  28  30
ENDBRANCH  26  29
ENDBRANCH   1  26
TORSDOF 20
