REMARK  Name = 
REMARK  6 active torsions:
REMARK  status: ('A' for Active; 'I' for Inactive)
REMARK    1  A    between atoms: C_6  and  C_9
REMARK    2  A    between atoms: C_6  and  C_14
REMARK    3  A    between atoms: C_7  and  C_16
REMARK    4  A    between atoms: C_8  and  C_9
REMARK    5  A    between atoms: C_9  and  C_18
REMARK    6  A    between atoms: C_10  and  C_17
REMARK                            x       y       z     vdW  Elec       q    Type
REMARK                         _______ _______ _______ _____ _____    ______ ____
ROOT
ATOM      1  C   UNL     1       3.744  -1.016   0.000  0.00  0.00    +0.000 A 
ATOM      2  C   UNL     1       4.459   0.221   0.000  0.00  0.00    +0.000 A 
ATOM      3  C   UNL     1       4.459  -0.604   0.000  0.00  0.00    +0.000 A 
ATOM      4  C   UNL     1       3.030  -0.604   0.000  0.00  0.00    +0.000 A 
ATOM      5  C   UNL     1       3.744   0.634   0.000  0.00  0.00    +0.000 A 
ATOM      6  C   UNL     1       3.030   0.221   0.000  0.00  0.00    +0.000 A 
ATOM      7 BR   UNL     1       3.744   1.459   0.000  0.00  0.00    +0.000 Br
ATOM      8  O   UNL     1       2.316   0.634   0.000  0.00  0.00    +0.000 OA
ENDROOT
BRANCH   4  15
ATOM      9  C   UNL     1       0.185  -2.723   0.000  0.00  0.00    +0.000 A 
ATOM     10  C   UNL     1       1.010  -2.723   0.000  0.00  0.00    +0.000 A 
ATOM     11  C   UNL     1       0.185  -1.294   0.000  0.00  0.00    +0.000 A 
ATOM     12  C   UNL     1      -0.228  -2.008   0.000  0.00  0.00    +0.000 A 
ATOM     13  C   UNL     1       1.422  -2.008   0.000  0.00  0.00    +0.000 A 
ATOM     14  C   UNL     1       1.010  -1.294   0.000  0.00  0.00    +0.000 A 
ATOM     15  C   UNL     1       2.316  -1.016   0.000  0.00  0.00    +0.000 A 
ATOM     16  N   UNL     1       2.229  -1.837   0.000  0.00  0.00    +0.000 NA
ATOM     17  N   UNL     1       1.562  -0.681   0.000  0.00  0.00    +0.000 NA
BRANCH  12  18
ATOM     18  C   UNL     1      -1.053  -2.008   0.000  0.00  0.00    +0.000 C 
ATOM     19  N   UNL     1      -1.465  -2.723   0.000  0.00  0.00    +0.000 NA
ATOM     20  N   UNL     1      -1.465  -1.294   0.000  0.00  0.00    +0.000 NA
ENDBRANCH  12  18
ENDBRANCH   4  15
BRANCH   3  21
ATOM     21  C   UNL     1       5.173  -1.016   0.000  0.00  0.00    +0.000 C 
BRANCH  21  22
ATOM     22  C   UNL     1       5.173  -1.841   0.000  0.00  0.00    +0.000 C 
ATOM     23  O   UNL     1       5.888  -2.254   0.000  0.00  0.00    +0.000 OA
ATOM     24  O   UNL     1       4.459  -2.254   0.000  0.00  0.00    +0.000 OA
ENDBRANCH  21  22
BRANCH  21  25
ATOM     25  C   UNL     1       5.888  -0.604   0.000  0.00  0.00    +0.000 C 
BRANCH  25  26
ATOM     26  C   UNL     1       6.602  -1.016   0.000  0.00  0.00    +0.000 C 
ATOM     27  O   UNL     1       7.317  -0.604   0.000  0.00  0.00    +0.000 OA
ATOM     28  O   UNL     1       6.602  -1.841   0.000  0.00  0.00    +0.000 OA
ENDBRANCH  25  26
ENDBRANCH  21  25
ENDBRANCH   3  21
TORSDOF 6
