REMARK  Name = 
REMARK  3 active torsions:
REMARK  status: ('A' for Active; 'I' for Inactive)
REMARK    1  A    between atoms: C_1  and  C_4
REMARK    2  A    between atoms: C_8  and  O_19
REMARK    3  A    between atoms: C_10  and  O_19
REMARK                            x       y       z     vdW  Elec       q    Type
REMARK                         _______ _______ _______ _____ _____    ______ ____
ROOT
ATOM      1  O   UNL     1       1.246  -3.175   0.000  0.00  0.00    +0.000 OA
ENDROOT
BRANCH   1   5
ATOM      2  C   UNL     1       2.738  -4.768   0.000  0.00  0.00    +0.000 C 
ATOM      3  C   UNL     1       2.402  -4.014   0.000  0.00  0.00    +0.000 C 
ATOM      4  C   UNL     1       1.097  -4.596   0.000  0.00  0.00    +0.000 C 
ATOM      5  C   UNL     1       1.581  -3.928   0.000  0.00  0.00    +0.000 C 
ATOM      6  C   UNL     1       1.432  -5.349   0.000  0.00  0.00    +0.000 C 
ATOM      7  O   UNL     1       2.887  -3.347   0.000  0.00  0.00    +0.000 OA
ATOM      8  O   UNL     1       0.276  -4.509   0.000  0.00  0.00    +0.000 OA
ATOM      9  O   UNL     1       0.947  -6.017   0.000  0.00  0.00    +0.000 OA
ATOM     10  O   UNL     1       2.253  -5.436   0.000  0.00  0.00    +0.000 OA
ENDBRANCH   1   5
BRANCH   1  14
ATOM     11  C   UNL     1       2.811  -1.722   0.000  0.00  0.00    +0.000 C 
ATOM     12  C   UNL     1       2.143  -1.238   0.000  0.00  0.00    +0.000 C 
ATOM     13  C   UNL     1       1.476  -1.722   0.000  0.00  0.00    +0.000 C 
ATOM     14  C   UNL     1       1.731  -2.507   0.000  0.00  0.00    +0.000 C 
ATOM     15  O   UNL     1       2.143  -0.412   0.000  0.00  0.00    +0.000 OA
ATOM     16  O   UNL     1       0.691  -1.468   0.000  0.00  0.00    +0.000 OA
ATOM     17  O   UNL     1       2.556  -2.507   0.000  0.00  0.00    +0.000 OA
BRANCH  11  18
ATOM     18  C   UNL     1       3.595  -1.468   0.000  0.00  0.00    +0.000 C 
ATOM     19  O   UNL     1       3.767  -0.660   0.000  0.00  0.00    +0.000 OA
ENDBRANCH  11  18
ENDBRANCH   1  14
TORSDOF 3
