REMARK  Name = 
REMARK  0 active torsions:
REMARK  status: ('A' for Active; 'I' for Inactive)
REMARK                            x       y       z     vdW  Elec       q    Type
REMARK                         _______ _______ _______ _____ _____    ______ ____
ROOT
ATOM      1  S   UNL     1      -1.374   1.802   0.000  0.00  0.00    +0.000 S 
ATOM      2  C   UNL     1      -1.610   1.012   0.000  0.00  0.00    +0.000 A 
ATOM      3  N   UNL     1      -1.109   0.356   0.000  0.00  0.00    +0.000 NA
ATOM      4  C   UNL     1      -1.577  -0.323   0.000  0.00  0.00    +0.000 A 
ATOM      5  C   UNL     1      -1.386  -1.125   0.000  0.00  0.00    +0.000 A 
ATOM      6  C   UNL     1      -1.985  -1.692   0.000  0.00  0.00    +0.000 A 
ATOM      7  C   UNL     1      -2.776  -1.457   0.000  0.00  0.00    +0.000 A 
ATOM      8  C   UNL     1      -2.967  -0.654   0.000  0.00  0.00    +0.000 A 
ATOM      9  C   UNL     1      -2.368  -0.087   0.000  0.00  0.00    +0.000 A 
ATOM     10  S   UNL     1      -2.388   0.738   0.000  0.00  0.00    +0.000 S 
ENDROOT
TORSDOF 0
