REMARK  Name = 
REMARK  5 active torsions:
REMARK  status: ('A' for Active; 'I' for Inactive)
REMARK    1  A    between atoms: O_2  and  C_20
REMARK    2  A    between atoms: O_2  and  C_21
REMARK    3  A    between atoms: N_4  and  C_8
REMARK    4  A    between atoms: N_6  and  C_11
REMARK    5  A    between atoms: C_8  and  C_9
REMARK                            x       y       z     vdW  Elec       q    Type
REMARK                         _______ _______ _______ _____ _____    ______ ____
ROOT
ATOM      1  N   UNL     1       5.937  -1.444   0.000  0.00  0.00    +0.000 NA
ATOM      2  N   UNL     1       4.508  -1.444   0.000  0.00  0.00    +0.000 NA
ATOM      3  N   UNL     1       3.079  -1.444   0.000  0.00  0.00    +0.000 NA
ATOM      4  C   UNL     1       5.222  -1.031   0.000  0.00  0.00    +0.000 A 
ATOM      5  C   UNL     1       3.793  -0.206   0.000  0.00  0.00    +0.000 A 
ATOM      6  C   UNL     1       5.222  -0.206   0.000  0.00  0.00    +0.000 A 
ATOM      7  C   UNL     1       3.793  -1.031   0.000  0.00  0.00    +0.000 A 
ATOM      8  C   UNL     1       4.508   0.206   0.000  0.00  0.00    +0.000 A 
ENDROOT
BRANCH   5  10
ATOM      9  O   UNL     1       3.793   1.444   0.000  0.00  0.00    +0.000 OA
ATOM     10  N   UNL     1       3.079   0.206   0.000  0.00  0.00    +0.000 NA
ATOM     11  C   UNL     1       3.079   1.031   0.000  0.00  0.00    +0.000 C 
BRANCH  11  12
ATOM     12  O   UNL     1       2.365   1.444   0.000  0.00  0.00    +0.000 OA
BRANCH  12  13
ATOM     13  C   UNL     1       2.365   2.269   0.000  0.00  0.00    +0.000 C 
ATOM     14  C   UNL     1       1.650   2.681   0.000  0.00  0.00    +0.000 C 
ENDBRANCH  12  13
ENDBRANCH  11  12
ENDBRANCH   5  10
BRANCH   1  15
ATOM     15  C   UNL     1       6.652  -1.031   0.000  0.00  0.00    +0.000 C 
BRANCH  15  17
ATOM     16  F   UNL     1       9.509  -2.681   0.000  0.00  0.00    +0.000 F 
ATOM     17  C   UNL     1       7.366  -1.444   0.000  0.00  0.00    +0.000 A 
ATOM     18  C   UNL     1       8.080  -1.031   0.000  0.00  0.00    +0.000 A 
ATOM     19  C   UNL     1       7.366  -2.269   0.000  0.00  0.00    +0.000 A 
ATOM     20  C   UNL     1       8.795  -1.444   0.000  0.00  0.00    +0.000 A 
ATOM     21  C   UNL     1       8.080  -2.681   0.000  0.00  0.00    +0.000 A 
ATOM     22  C   UNL     1       8.795  -2.269   0.000  0.00  0.00    +0.000 A 
ENDBRANCH  15  17
ENDBRANCH   1  15
TORSDOF 5
