REMARK  Name = 
REMARK  6 active torsions:
REMARK  status: ('A' for Active; 'I' for Inactive)
REMARK    1  A    between atoms: C_2  and  C_3
REMARK    2  A    between atoms: C_2  and  C_6
REMARK    3  A    between atoms: C_2  and  C_9
REMARK    4  A    between atoms: C_3  and  C_4
REMARK    5  A    between atoms: C_6  and  C_7
REMARK    6  A    between atoms: C_9  and  C_10
REMARK                            x       y       z     vdW  Elec       q    Type
REMARK                         _______ _______ _______ _____ _____    ______ ____
ROOT
ATOM      1  N   UNL     1      -0.405  -2.678   0.000  0.00  0.00    +0.000 NA
ATOM      2  C   UNL     1       0.178  -2.095   0.000  0.00  0.00    +0.000 C 
ENDROOT
BRANCH   2   3
ATOM      3  C   UNL     1       0.762  -2.678   0.000  0.00  0.00    +0.000 C 
BRANCH   3   4
ATOM      4  C   UNL     1       0.548  -3.475   0.000  0.00  0.00    +0.000 C 
ATOM      5  O   UNL     1       1.132  -4.058   0.000  0.00  0.00    +0.000 OA
ENDBRANCH   3   4
ENDBRANCH   2   3
BRANCH   2   6
ATOM      6  C   UNL     1       0.762  -1.511   0.000  0.00  0.00    +0.000 C 
BRANCH   6   7
ATOM      7  C   UNL     1       0.548  -0.715   0.000  0.00  0.00    +0.000 C 
ATOM      8  O   UNL     1       1.132  -0.131   0.000  0.00  0.00    +0.000 OA
ENDBRANCH   6   7
ENDBRANCH   2   6
BRANCH   2   9
ATOM      9  C   UNL     1      -0.405  -1.511   0.000  0.00  0.00    +0.000 C 
BRANCH   9  10
ATOM     10  C   UNL     1      -0.191  -0.715   0.000  0.00  0.00    +0.000 C 
ATOM     11  O   UNL     1      -0.775  -0.131   0.000  0.00  0.00    +0.000 OA
ENDBRANCH   9  10
ENDBRANCH   2   9
TORSDOF 6
