REMARK  Name = 
REMARK  7 active torsions:
REMARK  status: ('A' for Active; 'I' for Inactive)
REMARK    1  A    between atoms: C_17  and  C_25
REMARK    2  A    between atoms: C_18  and  C_26
REMARK    3  A    between atoms: C_19  and  C_27
REMARK    4  A    between atoms: C_21  and  C_25
REMARK    5  A    between atoms: C_22  and  N_29
REMARK    6  A    between atoms: C_24  and  O_35
REMARK    7  A    between atoms: C_27  and  O_35
REMARK                            x       y       z     vdW  Elec       q    Type
REMARK                         _______ _______ _______ _____ _____    ______ ____
ROOT
ATOM      1  O   UNL     1      -1.884  -6.272   0.000  0.00  0.00    +0.000 OA
ENDROOT
BRANCH   1   7
ATOM      2  C   UNL     1      -3.142  -8.069   0.000  0.00  0.00    +0.000 C 
ATOM      3  C   UNL     1      -2.537  -7.508   0.000  0.00  0.00    +0.000 C 
ATOM      4  C   UNL     1      -3.958  -7.946   0.000  0.00  0.00    +0.000 C 
ATOM      5  C   UNL     1      -4.069  -6.463   0.000  0.00  0.00    +0.000 C 
ATOM      6  C   UNL     1      -3.280  -6.220   0.000  0.00  0.00    +0.000 C 
ATOM      7  C   UNL     1      -2.599  -6.685   0.000  0.00  0.00    +0.000 C 
ATOM      8  N   UNL     1      -4.370  -7.231   0.000  0.00  0.00    +0.000 NA
BRANCH   6  10
ATOM      9  C   UNL     1      -3.803  -4.890   0.000  0.00  0.00    +0.000 C 
ATOM     10  N   UNL     1      -3.158  -5.404   0.000  0.00  0.00    +0.000 NA
ATOM     11  O   UNL     1      -3.679  -4.074   0.000  0.00  0.00    +0.000 OA
BRANCH   9  16
ATOM     12  C   UNL     1      -5.215  -4.677   0.000  0.00  0.00    +0.000 A 
ATOM     13  C   UNL     1      -4.693  -6.007   0.000  0.00  0.00    +0.000 A 
ATOM     14  C   UNL     1      -5.983  -4.978   0.000  0.00  0.00    +0.000 A 
ATOM     15  C   UNL     1      -5.461  -6.309   0.000  0.00  0.00    +0.000 A 
ATOM     16  C   UNL     1      -4.570  -5.191   0.000  0.00  0.00    +0.000 A 
ATOM     17  C   UNL     1      -6.106  -5.794   0.000  0.00  0.00    +0.000 A 
ATOM     18  O   UNL     1      -6.874  -6.096   0.000  0.00  0.00    +0.000 OA
ENDBRANCH   9  16
ENDBRANCH   6  10
ENDBRANCH   1   7
BRANCH   1  19
ATOM     19  C   UNL     1      -1.170  -6.685   0.000  0.00  0.00    +0.000 C 
ATOM     20  O   UNL     1      -1.170  -7.510   0.000  0.00  0.00    +0.000 OA
BRANCH  19  26
ATOM     21  C   UNL     1       0.259  -5.035   0.000  0.00  0.00    +0.000 A 
ATOM     22  C   UNL     1       0.974  -6.272   0.000  0.00  0.00    +0.000 A 
ATOM     23  C   UNL     1      -0.455  -5.447   0.000  0.00  0.00    +0.000 A 
ATOM     24  C   UNL     1       0.259  -6.685   0.000  0.00  0.00    +0.000 A 
ATOM     25  C   UNL     1       0.974  -5.447   0.000  0.00  0.00    +0.000 A 
ATOM     26  C   UNL     1      -0.455  -6.272   0.000  0.00  0.00    +0.000 A 
BRANCH  25  27
ATOM     27  C   UNL     1       1.688  -5.035   0.000  0.00  0.00    +0.000 C 
ATOM     28  O   UNL     1       1.688  -4.210   0.000  0.00  0.00    +0.000 OA
BRANCH  27  33
ATOM     29  C   UNL     1       3.117  -6.685   0.000  0.00  0.00    +0.000 A 
ATOM     30  C   UNL     1       3.832  -6.272   0.000  0.00  0.00    +0.000 A 
ATOM     31  C   UNL     1       2.402  -6.272   0.000  0.00  0.00    +0.000 A 
ATOM     32  C   UNL     1       3.832  -5.447   0.000  0.00  0.00    +0.000 A 
ATOM     33  C   UNL     1       2.402  -5.447   0.000  0.00  0.00    +0.000 A 
ATOM     34  C   UNL     1       3.117  -5.035   0.000  0.00  0.00    +0.000 A 
ATOM     35  O   UNL     1       3.117  -4.210   0.000  0.00  0.00    +0.000 OA
ENDBRANCH  27  33
ENDBRANCH  25  27
ENDBRANCH  19  26
ENDBRANCH   1  19
TORSDOF 7
