REMARK  Name = 
REMARK  4 active torsions:
REMARK  status: ('A' for Active; 'I' for Inactive)
REMARK    1  A    between atoms: CA_2  and  C_3
REMARK    2  A    between atoms: CA_2  and  C_13
REMARK    3  A    between atoms: C_3  and  C_4
REMARK    4  A    between atoms: N_8  and  P_9
REMARK                            x       y       z     vdW  Elec       q    Type
REMARK                         _______ _______ _______ _____ _____    ______ ____
ROOT
ATOM      1  C   UNL     1       1.235   0.629   0.000  0.00  0.00    +0.000 A 
ATOM      2  C   UNL     1       0.980  -0.155   0.000  0.00  0.00    +0.000 A 
ATOM      3  N   UNL     1       0.155  -0.155   0.000  0.00  0.00    +0.000 NA
ATOM      4  C   UNL     1      -0.100   0.629   0.000  0.00  0.00    +0.000 A 
ATOM      5  N   UNL     1       0.568   1.114   0.000  0.00  0.00    +0.000 N 
ENDROOT
BRANCH   5   6
ATOM      6  P   UNL     1       0.568   1.939   0.000  0.00  0.00    +0.000 P 
ATOM      7  O   UNL     1       0.568   2.764   0.000  0.00  0.00    +0.000 OA
ATOM      8  O   UNL     1      -0.257   1.939   0.000  0.00  0.00    +0.000 OA
ATOM      9  O   UNL     1       1.393   1.939   0.000  0.00  0.00    +0.000 OA
ENDBRANCH   5   6
BRANCH   1  10
ATOM     10  C   UNL     1       2.020   0.884   0.000  0.00  0.00    +0.000 C 
BRANCH  10  12
ATOM     11  N   UNL     1       1.578   2.243   0.000  0.00  0.00    +0.000 NA
ATOM     12  CA  UNL     1       2.191   1.691   0.000  0.00  0.00    +0.000 C 
BRANCH  12  13
ATOM     13  C   UNL     1       2.976   1.946   0.000  0.00  0.00    +0.000 C 
ATOM     14  O   UNL     1       3.147   2.753   0.000  0.00  0.00    +0.000 OA
ATOM     15  OXT UNL     1       3.589   1.394   0.000  0.00  0.00    +0.000 OA
ENDBRANCH  12  13
ENDBRANCH  10  12
ENDBRANCH   1  10
TORSDOF 4
