REMARK  Name = 
REMARK  5 active torsions:
REMARK  status: ('A' for Active; 'I' for Inactive)
REMARK    1  A    between atoms: C_1  and  C_3
REMARK    2  A    between atoms: C_1  and  O_15
REMARK    3  A    between atoms: C_2  and  C_4
REMARK    4  A    between atoms: C_2  and  P_17
REMARK    5  A    between atoms: O_15  and  P_18
REMARK                            x       y       z     vdW  Elec       q    Type
REMARK                         _______ _______ _______ _____ _____    ______ ____
ROOT
ATOM      1  C   UNL     1       1.235   0.629   0.000  0.00  0.00    +0.000 C 
ATOM      2  C   UNL     1       0.155  -0.155   0.000  0.00  0.00    +0.000 C 
ATOM      3  C   UNL     1       0.568   1.114   0.000  0.00  0.00    +0.000 C 
ATOM      4  C   UNL     1      -0.100   0.629   0.000  0.00  0.00    +0.000 C 
ATOM      5  O   UNL     1       0.568   1.939   0.000  0.00  0.00    +0.000 OA
ATOM      6  O   UNL     1      -0.884   0.884   0.000  0.00  0.00    +0.000 OA
ATOM      7  O   UNL     1       0.980  -0.155   0.000  0.00  0.00    +0.000 OA
ENDROOT
BRANCH   1   8
ATOM      8  C   UNL     1       2.020   0.884   0.000  0.00  0.00    +0.000 C 
BRANCH   8   9
ATOM      9  O   UNL     1       2.633   0.332   0.000  0.00  0.00    +0.000 OA
BRANCH   9  13
ATOM     10  O   UNL     1       4.202   0.842   0.000  0.00  0.00    +0.000 OA
ATOM     11  O   UNL     1       3.672  -0.197   0.000  0.00  0.00    +0.000 OA
ATOM     12  O   UNL     1       3.163   1.372   0.000  0.00  0.00    +0.000 OA
ATOM     13  P   UNL     1       3.417   0.587   0.000  0.00  0.00    +0.000 P 
ENDBRANCH   9  13
ENDBRANCH   8   9
ENDBRANCH   1   8
BRANCH   2  14
ATOM     14  C   UNL     1      -0.330  -0.823   0.000  0.00  0.00    +0.000 C 
BRANCH  14  18
ATOM     15  O   UNL     1      -1.971  -0.650   0.000  0.00  0.00    +0.000 OA
ATOM     16  O   UNL     1      -1.236  -1.557   0.000  0.00  0.00    +0.000 OA
ATOM     17  O   UNL     1      -1.064   0.084   0.000  0.00  0.00    +0.000 OA
ATOM     18  P   UNL     1      -1.150  -0.737   0.000  0.00  0.00    +0.000 P 
ENDBRANCH  14  18
ENDBRANCH   2  14
TORSDOF 5
