REMARK  Name = 
REMARK  4 active torsions:
REMARK  status: ('A' for Active; 'I' for Inactive)
REMARK    1  A    between atoms: C_2  and  C_5
REMARK    2  A    between atoms: C_3  and  C_6
REMARK    3  A    between atoms: C_3  and  N_12
REMARK    4  A    between atoms: C_4  and  C_7
REMARK                            x       y       z     vdW  Elec       q    Type
REMARK                         _______ _______ _______ _____ _____    ______ ____
ROOT
ATOM      1  C   UNL     1       0.155  -0.155   0.000  0.00  0.00    +0.000 C 
ATOM      2  C   UNL     1       0.568   1.114   0.000  0.00  0.00    +0.000 C 
ATOM      3  C   UNL     1       0.980  -0.155   0.000  0.00  0.00    +0.000 C 
ATOM      4  N   UNL     1      -0.100   0.629   0.000  0.00  0.00    +0.000 NA
ATOM      5  N   UNL     1       1.235   0.629   0.000  0.00  0.00    +0.000 N 
ATOM      6  O   UNL     1       1.465  -0.823   0.000  0.00  0.00    +0.000 OA
ENDROOT
BRANCH   2   8
ATOM      7  C   UNL     1       1.282   2.352   0.000  0.00  0.00    +0.000 C 
ATOM      8  C   UNL     1       0.568   1.939   0.000  0.00  0.00    +0.000 C 
ATOM      9  N   UNL     1      -0.147   2.352   0.000  0.00  0.00    +0.000 NA
ENDBRANCH   2   8
BRANCH   1  10
ATOM     10  C   UNL     1      -0.330  -0.823   0.000  0.00  0.00    +0.000 C 
ATOM     11  N   UNL     1      -1.150  -0.737   0.000  0.00  0.00    +0.000 NA
ENDBRANCH   1  10
BRANCH   5  12
ATOM     12  C   UNL     1       2.020   0.884   0.000  0.00  0.00    +0.000 C 
BRANCH  12  13
ATOM     13  C   UNL     1       2.633   0.332   0.000  0.00  0.00    +0.000 C 
ATOM     14  O   UNL     1       3.417   0.587   0.000  0.00  0.00    +0.000 OA
ATOM     15  O   UNL     1       2.461  -0.475   0.000  0.00  0.00    +0.000 OA
ENDBRANCH  12  13
ENDBRANCH   5  12
TORSDOF 4
