REMARK  Name = 
REMARK  2 active torsions:
REMARK  status: ('A' for Active; 'I' for Inactive)
REMARK    1  A    between atoms: N_2  and  C_3
REMARK    2  A    between atoms: C_3  and  C_11
REMARK                            x       y       z     vdW  Elec       q    Type
REMARK                         _______ _______ _______ _____ _____    ______ ____
ROOT
ATOM      1  C   UNL     1       3.300  -0.247   0.000  0.00  0.00    +0.000 C 
ATOM      2  C   UNL     1       4.014  -0.659   0.000  0.00  0.00    +0.000 C 
ATOM      3  C   UNL     1       2.586  -0.659   0.000  0.00  0.00    +0.000 C 
ATOM      4  C   UNL     1       4.014  -1.484   0.000  0.00  0.00    +0.000 C 
ATOM      5  C   UNL     1       2.586  -1.484   0.000  0.00  0.00    +0.000 C 
ATOM      6  C   UNL     1       3.300  -1.897   0.000  0.00  0.00    +0.000 C 
ENDROOT
BRANCH   1   7
ATOM      7  N   UNL     1       2.888   0.468   0.000  0.00  0.00    +0.000 NA
ATOM      8  C   UNL     1       2.062   0.468   0.000  0.00  0.00    +0.000 C 
ATOM      9  C   UNL     1       3.300   1.182   0.000  0.00  0.00    +0.000 C 
ATOM     10  C   UNL     1       1.650   1.182   0.000  0.00  0.00    +0.000 C 
ATOM     11  C   UNL     1       2.888   1.897   0.000  0.00  0.00    +0.000 C 
ATOM     12  C   UNL     1       2.062   1.897   0.000  0.00  0.00    +0.000 C 
ENDBRANCH   1   7
BRANCH   1  14
ATOM     13  S   UNL     1       4.759  -0.426   0.000  0.00  0.00    +0.000 S 
ATOM     14  C   UNL     1       4.075   0.035   0.000  0.00  0.00    +0.000 A 
ATOM     15  C   UNL     1       4.303   0.829   0.000  0.00  0.00    +0.000 A 
ATOM     16  C   UNL     1       5.127   0.857   0.000  0.00  0.00    +0.000 A 
ATOM     17  C   UNL     1       5.409   0.082   0.000  0.00  0.00    +0.000 A 
ENDBRANCH   1  14
TORSDOF 2
