REMARK  Name = 
REMARK  4 active torsions:
REMARK  status: ('A' for Active; 'I' for Inactive)
REMARK    1  A    between atoms: C_1  and  N_7
REMARK    2  A    between atoms: N_7  and  C_10
REMARK    3  A    between atoms: C_12  and  C_17
REMARK    4  A    between atoms: C_17  and  C_18
REMARK                            x       y       z     vdW  Elec       q    Type
REMARK                         _______ _______ _______ _____ _____    ______ ____
ROOT
ATOM      1  C   UNL     1      -1.116   0.634   0.000  0.00  0.00    +0.000 A 
ATOM      2  C   UNL     1      -1.831   0.221   0.000  0.00  0.00    +0.000 A 
ATOM      3  C   UNL     1      -1.116   1.459   0.000  0.00  0.00    +0.000 A 
ATOM      4  C   UNL     1      -1.831   1.871   0.000  0.00  0.00    +0.000 A 
ATOM      5  C   UNL     1      -2.545   1.459   0.000  0.00  0.00    +0.000 A 
ATOM      6  C   UNL     1      -2.545   0.634   0.000  0.00  0.00    +0.000 A 
ATOM      7  C   UNL     1      -3.260   1.871   0.000  0.00  0.00    +0.000 C 
ENDROOT
BRANCH   1   8
ATOM      8  N   UNL     1      -0.402   0.221   0.000  0.00  0.00    +0.000 NA
BRANCH   8   9
ATOM      9  C   UNL     1      -0.402  -0.604   0.000  0.00  0.00    +0.000 A 
ATOM     10  C   UNL     1      -1.116  -1.016   0.000  0.00  0.00    +0.000 A 
ATOM     11  C   UNL     1      -1.116  -1.841   0.000  0.00  0.00    +0.000 A 
ATOM     12  C   UNL     1      -0.402  -2.253   0.000  0.00  0.00    +0.000 A 
ATOM     13  C   UNL     1       0.313  -1.841   0.000  0.00  0.00    +0.000 A 
ATOM     14  C   UNL     1       0.313  -1.016   0.000  0.00  0.00    +0.000 A 
ATOM     15 CL   UNL     1       1.027  -0.604   0.000  0.00  0.00    +0.000 Cl
ATOM     16  F   UNL     1      -1.831  -0.604   0.000  0.00  0.00    +0.000 F 
ENDBRANCH   8   9
ENDBRANCH   1   8
BRANCH   3  17
ATOM     17  C   UNL     1      -0.402   1.871   0.000  0.00  0.00    +0.000 C 
BRANCH  17  18
ATOM     18  C   UNL     1      -0.402   2.696   0.000  0.00  0.00    +0.000 C 
ATOM     19  O   UNL     1      -1.116   3.109   0.000  0.00  0.00    +0.000 OA
ATOM     20  O   UNL     1       0.313   3.109   0.000  0.00  0.00    +0.000 OA
ENDBRANCH  17  18
ENDBRANCH   3  17
TORSDOF 4
