REMARK  Name = 
REMARK  5 active torsions:
REMARK  status: ('A' for Active; 'I' for Inactive)
REMARK    1  A    between atoms: C_11  and  C_15
REMARK    2  A    between atoms: C_12  and  C_14
REMARK    3  A    between atoms: C_12  and  N_21
REMARK    4  A    between atoms: C_13  and  C_14
REMARK    5  A    between atoms: C_13  and  N_22
REMARK                            x       y       z     vdW  Elec       q    Type
REMARK                         _______ _______ _______ _____ _____    ______ ____
ROOT
ATOM      1  C   UNL     1      -2.143   2.888   0.000  0.00  0.00    +0.000 A 
ATOM      2  C   UNL     1      -2.858   3.300   0.000  0.00  0.00    +0.000 A 
ATOM      3  C   UNL     1      -2.143   2.062   0.000  0.00  0.00    +0.000 A 
ATOM      4  C   UNL     1      -3.572   2.888   0.000  0.00  0.00    +0.000 A 
ATOM      5  C   UNL     1      -5.001  -0.412   0.000  0.00  0.00    +0.000 A 
ATOM      6  C   UNL     1      -5.001   0.412   0.000  0.00  0.00    +0.000 A 
ATOM      7  C   UNL     1      -3.572  -0.412   0.000  0.00  0.00    +0.000 A 
ATOM      8  C   UNL     1      -4.287  -0.825   0.000  0.00  0.00    +0.000 A 
ATOM      9  C   UNL     1      -2.858   1.650   0.000  0.00  0.00    +0.000 A 
ATOM     10  C   UNL     1      -3.572   0.412   0.000  0.00  0.00    +0.000 A 
ATOM     11  C   UNL     1      -3.572   2.062   0.000  0.00  0.00    +0.000 A 
ATOM     12  C   UNL     1      -4.287   0.825   0.000  0.00  0.00    +0.000 A 
ATOM     13  N   UNL     1      -2.858   0.825   0.000  0.00  0.00    +0.000 N 
ATOM     14  S   UNL     1      -4.287   1.650   0.000  0.00  0.00    +0.000 S 
ENDROOT
BRANCH   8  15
ATOM     15  C   UNL     1      -4.287  -1.650   0.000  0.00  0.00    +0.000 C 
ATOM     16  N   UNL     1      -4.287  -2.475   0.000  0.00  0.00    +0.000 NA
ENDBRANCH   8  15
BRANCH  13  17
ATOM     17  C   UNL     1      -2.143   0.412   0.000  0.00  0.00    +0.000 C 
BRANCH  17  19
ATOM     18  C   UNL     1      -1.429   1.650   0.000  0.00  0.00    +0.000 C 
ATOM     19  C   UNL     1      -1.429   0.825   0.000  0.00  0.00    +0.000 C 
BRANCH  19  20
ATOM     20  C   UNL     1      -0.714   0.412   0.000  0.00  0.00    +0.000 C 
BRANCH  20  23
ATOM     21  C   UNL     1       0.714   0.412   0.000  0.00  0.00    +0.000 C 
ATOM     22  C   UNL     1       0.000   1.650   0.000  0.00  0.00    +0.000 C 
ATOM     23  N   UNL     1       0.000   0.825   0.000  0.00  0.00    +0.000 NA
ENDBRANCH  20  23
ENDBRANCH  19  20
ENDBRANCH  17  19
ENDBRANCH  13  17
TORSDOF 5
