REMARK  Name = 
REMARK  7 active torsions:
REMARK  status: ('A' for Active; 'I' for Inactive)
REMARK    1  A    between atoms: C_1  and  C_2
REMARK    2  A    between atoms: C_1  and  C_6
REMARK    3  A    between atoms: C_2  and  CA_7
REMARK    4  A    between atoms: C_3  and  C_6
REMARK    5  A    between atoms: C_3  and  C_8
REMARK    6  A    between atoms: CA_7  and  C_15
REMARK    7  A    between atoms: C_14  and  N_22
REMARK                            x       y       z     vdW  Elec       q    Type
REMARK                         _______ _______ _______ _____ _____    ______ ____
ROOT
ATOM      1  C   UNL     1       4.439   7.721   0.000  0.00  0.00    +0.000 C 
ATOM      2  C   UNL     1       5.193   7.385   0.000  0.00  0.00    +0.000 C 
ATOM      3  C   UNL     1       5.745   7.998   0.000  0.00  0.00    +0.000 C 
ATOM      4  C   UNL     1       5.333   8.713   0.000  0.00  0.00    +0.000 C 
ATOM      5  O   UNL     1       5.365   6.578   0.000  0.00  0.00    +0.000 OA
ATOM      6  O   UNL     1       6.566   7.912   0.000  0.00  0.00    +0.000 OA
ATOM      7  O   UNL     1       4.526   8.541   0.000  0.00  0.00    +0.000 OA
ENDROOT
BRANCH   4  17
ATOM      8  C   UNL     1       7.896   9.489   0.000  0.00  0.00    +0.000 A 
ATOM      9  C   UNL     1       5.256  10.181   0.000  0.00  0.00    +0.000 A 
ATOM     10  C   UNL     1       6.561  10.459   0.000  0.00  0.00    +0.000 A 
ATOM     11  C   UNL     1       7.315  10.794   0.000  0.00  0.00    +0.000 A 
ATOM     12  C   UNL     1       6.475   9.638   0.000  0.00  0.00    +0.000 A 
ATOM     13  N   UNL     1       7.401  11.615   0.000  0.00  0.00    +0.000 NA
ATOM     14  N   UNL     1       7.983  10.309   0.000  0.00  0.00    +0.000 NA
ATOM     15  N   UNL     1       7.143   9.153   0.000  0.00  0.00    +0.000 NA
ATOM     16  N   UNL     1       5.808  10.794   0.000  0.00  0.00    +0.000 NA
ATOM     17  N   UNL     1       5.668   9.466   0.000  0.00  0.00    +0.000 N 
ENDBRANCH   4  17
BRANCH   1  18
ATOM     18  C   UNL     1       3.725   7.308   0.000  0.00  0.00    +0.000 C 
BRANCH  18  19
ATOM     19  C   UNL     1       3.011   7.721   0.000  0.00  0.00    +0.000 C 
ATOM     20  N   UNL     1       3.011   8.546   0.000  0.00  0.00    +0.000 NA
BRANCH  19  21
ATOM     21  C   UNL     1       2.296   7.308   0.000  0.00  0.00    +0.000 C 
BRANCH  21  22
ATOM     22  C   UNL     1       1.582   7.721   0.000  0.00  0.00    +0.000 C 
BRANCH  22  23
ATOM     23  CA  UNL     1       0.867   7.308   0.000  0.00  0.00    +0.000 C 
ATOM     24  N   UNL     1       0.867   6.483   0.000  0.00  0.00    +0.000 NA
BRANCH  23  25
ATOM     25  C   UNL     1       0.153   7.721   0.000  0.00  0.00    +0.000 C 
ATOM     26  O   UNL     1      -0.562   7.308   0.000  0.00  0.00    +0.000 OA
ATOM     27  OXT UNL     1       0.153   8.546   0.000  0.00  0.00    +0.000 OA
ENDBRANCH  23  25
ENDBRANCH  22  23
ENDBRANCH  21  22
ENDBRANCH  19  21
ENDBRANCH  18  19
ENDBRANCH   1  18
TORSDOF 7
