REMARK  Name = 
REMARK  4 active torsions:
REMARK  status: ('A' for Active; 'I' for Inactive)
REMARK    1  A    between atoms: S_2  and  C_5
REMARK    2  A    between atoms: C_5  and  C_6
REMARK    3  A    between atoms: C_6  and  N_7
REMARK    4  A    between atoms: N_7  and  C_8
REMARK                            x       y       z     vdW  Elec       q    Type
REMARK                         _______ _______ _______ _____ _____    ______ ____
ROOT
ATOM      1  N   UNL     1       0.000  -1.650   0.000  0.00  0.00    +0.000 NA
ENDROOT
BRANCH   1   2
ATOM      2  C   UNL     1       0.715  -2.062   0.000  0.00  0.00    +0.000 C 
ATOM      3  C   UNL     1       1.429  -1.650   0.000  0.00  0.00    +0.000 C 
ATOM      4  C   UNL     1       2.143  -2.062   0.000  0.00  0.00    +0.000 C 
ATOM      5  C   UNL     1       2.143  -2.888   0.000  0.00  0.00    +0.000 C 
ATOM      6  C   UNL     1       1.429  -3.300   0.000  0.00  0.00    +0.000 C 
ATOM      7  C   UNL     1       0.715  -2.888   0.000  0.00  0.00    +0.000 C 
ENDBRANCH   1   2
BRANCH   1   8
ATOM      8  C   UNL     1      -0.715  -2.062   0.000  0.00  0.00    +0.000 C 
BRANCH   8   9
ATOM      9  C   UNL     1      -1.429  -1.650   0.000  0.00  0.00    +0.000 C 
BRANCH   9  11
ATOM     10  O   UNL     1      -2.858  -2.475   0.000  0.00  0.00    +0.000 OA
ATOM     11  S   UNL     1      -2.143  -2.062   0.000  0.00  0.00    +0.000 S 
ATOM     12  O   UNL     1      -1.731  -2.777   0.000  0.00  0.00    +0.000 OA
ATOM     13  O   UNL     1      -2.556  -1.348   0.000  0.00  0.00    +0.000 OA
ENDBRANCH   9  11
ENDBRANCH   8   9
ENDBRANCH   1   8
TORSDOF 4
