REMARK  Name = 
REMARK  6 active torsions:
REMARK  status: ('A' for Active; 'I' for Inactive)
REMARK    1  A    between atoms: C_2  and  N_17
REMARK    2  A    between atoms: C_3  and  C_6
REMARK    3  A    between atoms: C_3  and  O_23
REMARK    4  A    between atoms: C_12  and  N_18
REMARK    5  A    between atoms: N_17  and  S_25
REMARK    6  A    between atoms: O_23  and  S_25
REMARK                            x       y       z     vdW  Elec       q    Type
REMARK                         _______ _______ _______ _____ _____    ______ ____
ROOT
ATOM      1  C   UNL     1       0.099  -1.009   0.000  0.00  0.00    +0.000 C 
ATOM      2  C   UNL     1       0.884  -1.264   0.000  0.00  0.00    +0.000 C 
ATOM      3  C   UNL     1       1.369  -0.597   0.000  0.00  0.00    +0.000 C 
ATOM      4  C   UNL     1       0.884   0.071   0.000  0.00  0.00    +0.000 C 
ATOM      5  O   UNL     1       1.139  -2.049   0.000  0.00  0.00    +0.000 OA
ATOM      6  O   UNL     1       2.194  -0.597   0.000  0.00  0.00    +0.000 OA
ATOM      7  O   UNL     1       0.099  -0.184   0.000  0.00  0.00    +0.000 OA
ENDROOT
BRANCH   4  17
ATOM      8  C   UNL     1       3.352   1.110   0.000  0.00  0.00    +0.000 A 
ATOM      9  C   UNL     1       0.654   1.523   0.000  0.00  0.00    +0.000 A 
ATOM     10  C   UNL     1       1.923   1.935   0.000  0.00  0.00    +0.000 A 
ATOM     11  C   UNL     1       2.638   2.348   0.000  0.00  0.00    +0.000 A 
ATOM     12  C   UNL     1       1.923   1.110   0.000  0.00  0.00    +0.000 A 
ATOM     13  N   UNL     1       2.638   3.173   0.000  0.00  0.00    +0.000 NA
ATOM     14  N   UNL     1       3.352   1.935   0.000  0.00  0.00    +0.000 NA
ATOM     15  N   UNL     1       2.638   0.698   0.000  0.00  0.00    +0.000 NA
ATOM     16  N   UNL     1       1.139   2.190   0.000  0.00  0.00    +0.000 NA
ATOM     17  N   UNL     1       1.139   0.856   0.000  0.00  0.00    +0.000 N 
ENDBRANCH   4  17
BRANCH   1  18
ATOM     18  C   UNL     1      -0.568  -1.494   0.000  0.00  0.00    +0.000 C 
BRANCH  18  19
ATOM     19  O   UNL     1      -0.482  -2.314   0.000  0.00  0.00    +0.000 OA
BRANCH  19  22
ATOM     20  O   UNL     1      -0.665  -3.467   0.000  0.00  0.00    +0.000 OA
ATOM     21  O   UNL     1      -1.634  -2.132   0.000  0.00  0.00    +0.000 OA
ATOM     22  S   UNL     1      -1.149  -2.799   0.000  0.00  0.00    +0.000 S 
BRANCH  22  23
ATOM     23  N   UNL     1      -1.817  -3.284   0.000  0.00  0.00    +0.000 NA
BRANCH  23  25
ATOM     24  C   UNL     1      -2.398  -4.590   0.000  0.00  0.00    +0.000 C 
ATOM     25  C   UNL     1      -1.731  -4.105   0.000  0.00  0.00    +0.000 C 
ENDBRANCH  23  25
ENDBRANCH  22  23
ENDBRANCH  19  22
ENDBRANCH  18  19
ENDBRANCH   1  18
TORSDOF 6
