REMARK  Name = 
REMARK  0 active torsions:
REMARK  status: ('A' for Active; 'I' for Inactive)
REMARK                            x       y       z     vdW  Elec       q    Type
REMARK                         _______ _______ _______ _____ _____    ______ ____
ROOT
ATOM      1  C   UNL     1      -0.474   0.039   0.000  0.00  0.00    +0.000 C 
ATOM      2  C   UNL     1      -1.299   0.039   0.000  0.00  0.00    +0.000 C 
ATOM      3  C   UNL     1      -1.712  -0.676   0.000  0.00  0.00    +0.000 C 
ATOM      4  N   UNL     1      -1.299  -1.390   0.000  0.00  0.00    +0.000 NA
ATOM      5  C   UNL     1      -0.474  -1.390   0.000  0.00  0.00    +0.000 C 
ATOM      6  C   UNL     1      -0.474  -0.786   0.000  0.00  0.00    +0.000 C 
ATOM      7  C   UNL     1      -1.299  -0.786   0.000  0.00  0.00    +0.000 C 
ATOM      8  C   UNL     1       0.334   0.048   0.000  0.00  0.00    +0.000 C 
ATOM      9  C   UNL     1      -0.062  -0.676   0.000  0.00  0.00    +0.000 C 
ATOM     10  O   UNL     1       0.504  -1.276   0.000  0.00  0.00    +0.000 OA
ATOM     11  C   UNL     1       1.250  -0.923   0.000  0.00  0.00    +0.000 C 
ATOM     12  S   UNL     1       1.145  -0.105   0.000  0.00  0.00    +0.000 S 
ATOM     13  C   UNL     1       1.974  -1.319   0.000  0.00  0.00    +0.000 C 
ENDROOT
TORSDOF 0
