REMARK  Name = 
REMARK  2 active torsions:
REMARK  status: ('A' for Active; 'I' for Inactive)
REMARK    1  A    between atoms: N_4  and  C_10
REMARK    2  A    between atoms: C_14  and  C_15
REMARK                            x       y       z     vdW  Elec       q    Type
REMARK                         _______ _______ _______ _____ _____    ______ ____
ROOT
ATOM      1  C   UNL     1       1.757   3.193   0.000  0.00  0.00    +0.000 C 
ATOM      2  C   UNL     1       1.272   2.526   0.000  0.00  0.00    +0.000 A 
ATOM      3  C   UNL     1       1.607   1.772   0.000  0.00  0.00    +0.000 A 
ATOM      4  N   UNL     1       1.122   1.105   0.000  0.00  0.00    +0.000 N 
ATOM      5  C   UNL     1       0.302   1.191   0.000  0.00  0.00    +0.000 A 
ATOM      6  O   UNL     1      -0.183   0.524   0.000  0.00  0.00    +0.000 OA
ATOM      7  N   UNL     1      -0.034   1.945   0.000  0.00  0.00    +0.000 NA
ATOM      8  C   UNL     1       0.451   2.612   0.000  0.00  0.00    +0.000 A 
ATOM      9  O   UNL     1       0.116   3.366   0.000  0.00  0.00    +0.000 OA
ENDROOT
BRANCH   4  10
ATOM     10  C   UNL     1       1.458   0.351   0.000  0.00  0.00    +0.000 C 
ATOM     11  C   UNL     1       2.243   0.606   0.000  0.00  0.00    +0.000 C 
ATOM     12  C   UNL     1       2.728  -0.061   0.000  0.00  0.00    +0.000 C 
ATOM     13  O   UNL     1       3.553  -0.061   0.000  0.00  0.00    +0.000 OA
ATOM     14  C   UNL     1       2.243  -0.729   0.000  0.00  0.00    +0.000 C 
ATOM     15  C   UNL     1       1.458  -0.474   0.000  0.00  0.00    +0.000 C 
ATOM     16  C   UNL     1       0.743  -0.061   0.000  0.00  0.00    +0.000 C 
BRANCH  14  17
ATOM     17  C   UNL     1       2.498  -1.513   0.000  0.00  0.00    +0.000 C 
ATOM     18  O   UNL     1       3.304  -1.685   0.000  0.00  0.00    +0.000 OA
ENDBRANCH  14  17
ENDBRANCH   4  10
TORSDOF 2
