REMARK  Name = 
REMARK  2 active torsions:
REMARK  status: ('A' for Active; 'I' for Inactive)
REMARK    1  A    between atoms: C_2  and  N_3
REMARK    2  A    between atoms: C_4  and  O_6
REMARK                            x       y       z     vdW  Elec       q    Type
REMARK                         _______ _______ _______ _____ _____    ______ ____
ROOT
ATOM      1  N   UNL     1       1.238   0.715   0.000  0.00  0.00    +0.000 NA
ATOM      2  C   UNL     1       1.952   1.127   0.000  0.00  0.00    +0.000 C 
ATOM      3  O   UNL     1       1.952   1.952   0.000  0.00  0.00    +0.000 OA
ENDROOT
BRANCH   1   5
ATOM      4  C   UNL     1      -0.191   0.715   0.000  0.00  0.00    +0.000 C 
ATOM      5  C   UNL     1       0.523   1.127   0.000  0.00  0.00    +0.000 C 
ENDBRANCH   1   5
BRANCH   2   6
ATOM      6  O   UNL     1       2.667   0.715   0.000  0.00  0.00    +0.000 OA
ATOM      7  C   UNL     1       3.381   1.127   0.000  0.00  0.00    +0.000 C 
ENDBRANCH   2   6
TORSDOF 2
