REMARK  Name = 
REMARK  4 active torsions:
REMARK  status: ('A' for Active; 'I' for Inactive)
REMARK    1  A    between atoms: C_2  and  C_3
REMARK    2  A    between atoms: C_3  and  O_4
REMARK    3  A    between atoms: C_3  and  C_9
REMARK    4  A    between atoms: O_4  and  P_5
REMARK                            x       y       z     vdW  Elec       q    Type
REMARK                         _______ _______ _______ _____ _____    ______ ____
ROOT
ATOM      1  C   UNL     1       1.952   1.127   0.000  0.00  0.00    +0.000 C 
ENDROOT
BRANCH   1   2
ATOM      2  C   UNL     1       2.666   0.715   0.000  0.00  0.00    +0.000 C 
ATOM      3  O   UNL     1       3.381   1.127   0.000  0.00  0.00    +0.000 OA
ATOM      4  O   UNL     1       2.666  -0.111   0.000  0.00  0.00    +0.000 OA
ENDBRANCH   1   2
BRANCH   1   6
ATOM      5  C   UNL     1       2.666   2.365   0.000  0.00  0.00    +0.000 C 
ATOM      6  C   UNL     1       1.952   1.952   0.000  0.00  0.00    +0.000 C 
ENDBRANCH   1   6
BRANCH   1   7
ATOM      7  O   UNL     1       1.238   0.715   0.000  0.00  0.00    +0.000 OA
BRANCH   7   8
ATOM      8  P   UNL     1       1.238  -0.111   0.000  0.00  0.00    +0.000 P 
ATOM      9  O   UNL     1       1.238  -0.935   0.000  0.00  0.00    +0.000 OA
ATOM     10  O   UNL     1       0.412  -0.111   0.000  0.00  0.00    +0.000 OA
ATOM     11  O   UNL     1       2.062  -0.111   0.000  0.00  0.00    +0.000 OA
ENDBRANCH   7   8
ENDBRANCH   1   7
TORSDOF 4
