REMARK  Name = 
REMARK  10 active torsions:
REMARK  status: ('A' for Active; 'I' for Inactive)
REMARK    1  A    between atoms: C_5  and  C_6
REMARK    2  A    between atoms: C_6  and  O_7
REMARK    3  A    between atoms: O_7  and  P_8
REMARK    4  A    between atoms: C_12  and  C_13
REMARK    5  A    between atoms: C_13  and  N_14
REMARK    6  A    between atoms: N_14  and  CA_15
REMARK    7  A    between atoms: CA_15  and  CB_16
REMARK    8  A    between atoms: CA_15  and  C_21
REMARK    9  A    between atoms: CB_16  and  CG_17
REMARK   10  A    between atoms: CG_17  and  CD_18
REMARK                            x       y       z     vdW  Elec       q    Type
REMARK                         _______ _______ _______ _____ _____    ______ ____
ROOT
ATOM      1  C   UNL     1       0.000  -3.300   0.000  0.00  0.00    +0.000 C 
ATOM      2  C   UNL     1       0.000  -2.475   0.000  0.00  0.00    +0.000 A 
ATOM      3  N   UNL     1      -0.715  -2.062   0.000  0.00  0.00    +0.000 NA
ATOM      4  C   UNL     1      -0.715  -1.238   0.000  0.00  0.00    +0.000 A 
ATOM      5  C   UNL     1       0.000  -0.825   0.000  0.00  0.00    +0.000 A 
ATOM      6  C   UNL     1       0.715  -1.238   0.000  0.00  0.00    +0.000 A 
ATOM      7  C   UNL     1       0.715  -2.062   0.000  0.00  0.00    +0.000 A 
ATOM      8  O   UNL     1       1.429  -2.475   0.000  0.00  0.00    +0.000 OA
ENDROOT
BRANCH   6   9
ATOM      9  C   ACE A   0       1.429  -0.825   0.000  0.00  0.00    +0.000 C 
BRANCH   9  10
ATOM     10  N   UNL     1       2.143  -1.238   0.000  0.00  0.00    +0.000 NA
BRANCH  10  11
ATOM     11  CA  UNL     1       2.858  -0.825   0.000  0.00  0.00    +0.000 C 
BRANCH  11  12
ATOM     12  C   UNL     1       2.858   0.000   0.000  0.00  0.00    +0.000 C 
ATOM     13  O   UNL     1       3.572   0.412   0.000  0.00  0.00    +0.000 OA
ATOM     14  OXT UNL     1       2.143   0.412   0.000  0.00  0.00    +0.000 OA
ENDBRANCH  11  12
BRANCH  11  15
ATOM     15  CB  UNL     1       3.572  -1.238   0.000  0.00  0.00    +0.000 C 
BRANCH  15  16
ATOM     16  CG  UNL     1       4.287  -0.825   0.000  0.00  0.00    +0.000 C 
BRANCH  16  17
ATOM     17  CD  UNL     1       5.001  -1.238   0.000  0.00  0.00    +0.000 C 
ATOM     18  OE1 UNL     1       5.716  -0.825   0.000  0.00  0.00    +0.000 OA
ATOM     19  OE2 UNL     1       5.001  -2.062   0.000  0.00  0.00    +0.000 OA
ENDBRANCH  16  17
ENDBRANCH  15  16
ENDBRANCH  11  15
ENDBRANCH  10  11
ENDBRANCH   9  10
ENDBRANCH   6   9
BRANCH   5  20
ATOM     20  C   UNL     1       0.000   0.000   0.000  0.00  0.00    +0.000 C 
BRANCH  20  21
ATOM     21  O   UNL     1      -0.715   0.412   0.000  0.00  0.00    +0.000 OA
BRANCH  21  22
ATOM     22  P   UNL     1      -0.715   1.238   0.000  0.00  0.00    +0.000 P 
ATOM     23  O   UNL     1      -0.715   2.062   0.000  0.00  0.00    +0.000 OA
ATOM     24  O   UNL     1      -1.540   1.238   0.000  0.00  0.00    +0.000 OA
ATOM     25  O   UNL     1       0.111   1.238   0.000  0.00  0.00    +0.000 OA
ENDBRANCH  21  22
ENDBRANCH  20  21
ENDBRANCH   5  20
TORSDOF 10
