REMARK  Name = 
REMARK  12 active torsions:
REMARK  status: ('A' for Active; 'I' for Inactive)
REMARK    1  A    between atoms: O_2  and  C_3
REMARK    2  A    between atoms: C_3  and  C_4
REMARK    3  A    between atoms: C_3  and  C_25
REMARK    4  A    between atoms: C_5  and  C_6
REMARK    5  A    between atoms: C_9  and  C_11
REMARK    6  A    between atoms: C_14  and  C_16
REMARK    7  A    between atoms: C_16  and  C_18
REMARK    8  A    between atoms: C_19  and  C_20
REMARK    9  A    between atoms: C_21  and  C_22
REMARK   10  A    between atoms: C_25  and  C_27
REMARK   11  A    between atoms: C_27  and  O_28
REMARK   12  A    between atoms: C_30  and  C_31
REMARK                            x       y       z     vdW  Elec       q    Type
REMARK                         _______ _______ _______ _____ _____    ______ ____
ROOT
ATOM      1  C   UNL     1       1.256  -1.005   0.000  0.00  0.00    +0.000 A 
ATOM      2  C   UNL     1       1.924  -1.490   0.000  0.00  0.00    +0.000 A 
ATOM      3  S   UNL     1       1.669  -2.275   0.000  0.00  0.00    +0.000 S 
ATOM      4  C   UNL     1       0.844  -2.275   0.000  0.00  0.00    +0.000 A 
ATOM      5  N   UNL     1       0.589  -1.490   0.000  0.00  0.00    +0.000 NA
ENDROOT
BRANCH   4   6
ATOM      6  C   UNL     1       0.359  -2.942   0.000  0.00  0.00    +0.000 A 
ATOM      7  C   UNL     1       0.614  -3.727   0.000  0.00  0.00    +0.000 A 
ATOM      8  S   UNL     1      -0.053  -4.212   0.000  0.00  0.00    +0.000 S 
ATOM      9  C   UNL     1      -0.721  -3.727   0.000  0.00  0.00    +0.000 A 
ATOM     10  N   UNL     1      -0.466  -2.942   0.000  0.00  0.00    +0.000 NA
BRANCH   9  11
ATOM     11  C   UNL     1      -1.506  -3.982   0.000  0.00  0.00    +0.000 C 
ATOM     12  C   UNL     1      -2.119  -3.430   0.000  0.00  0.00    +0.000 C 
BRANCH  11  13
ATOM     13  C   UNL     1      -1.677  -4.789   0.000  0.00  0.00    +0.000 C 
ATOM     14  C   UNL     1      -2.462  -5.044   0.000  0.00  0.00    +0.000 C 
BRANCH  14  15
ATOM     15  C   UNL     1      -2.633  -5.851   0.000  0.00  0.00    +0.000 C 
ATOM     16  C   UNL     1      -3.418  -6.106   0.000  0.00  0.00    +0.000 C 
BRANCH  16  17
ATOM     17  C   UNL     1      -3.589  -6.913   0.000  0.00  0.00    +0.000 C 
ATOM     18  C   UNL     1      -4.374  -7.168   0.000  0.00  0.00    +0.000 C 
ATOM     19  C   UNL     1      -2.976  -7.465   0.000  0.00  0.00    +0.000 C 
ENDBRANCH  16  17
ENDBRANCH  14  15
ENDBRANCH  11  13
ENDBRANCH   9  11
ENDBRANCH   4   6
BRANCH   1  21
ATOM     20  C   UNL     1       1.971   0.232   0.000  0.00  0.00    +0.000 C 
ATOM     21  C   UNL     1       1.256  -0.180   0.000  0.00  0.00    +0.000 C 
BRANCH  20  22
ATOM     22  C   UNL     1       1.971   1.057   0.000  0.00  0.00    +0.000 C 
BRANCH  22  24
ATOM     23  C   UNL     1       1.256   2.295   0.000  0.00  0.00    +0.000 C 
ATOM     24  O   UNL     1       1.256   1.470   0.000  0.00  0.00    +0.000 OA
ENDBRANCH  22  24
BRANCH  22  25
ATOM     25  C   UNL     1       2.685   1.470   0.000  0.00  0.00    +0.000 C 
ATOM     26  C   UNL     1       2.685   2.295   0.000  0.00  0.00    +0.000 C 
BRANCH  25  27
ATOM     27  C   UNL     1       3.400   1.057   0.000  0.00  0.00    +0.000 C 
ATOM     28  C   UNL     1       4.114   1.470   0.000  0.00  0.00    +0.000 C 
BRANCH  28  29
ATOM     29  C   UNL     1       4.114   2.295   0.000  0.00  0.00    +0.000 C 
ATOM     30  N   UNL     1       4.829   2.707   0.000  0.00  0.00    +0.000 NA
ATOM     31  O   UNL     1       3.400   2.707   0.000  0.00  0.00    +0.000 OA
ENDBRANCH  28  29
BRANCH  27  32
ATOM     32  O   UNL     1       3.400   0.232   0.000  0.00  0.00    +0.000 OA
ATOM     33  C   UNL     1       4.114  -0.180   0.000  0.00  0.00    +0.000 C 
ENDBRANCH  27  32
ENDBRANCH  25  27
ENDBRANCH  22  25
ENDBRANCH  20  22
ENDBRANCH   1  21
TORSDOF 12
