REMARK  Name = 
REMARK  4 active torsions:
REMARK  status: ('A' for Active; 'I' for Inactive)
REMARK    1  A    between atoms: N_1  and  C_3
REMARK    2  A    between atoms: C_3  and  C_4
REMARK    3  A    between atoms: C_3  and  C_5
REMARK    4  A    between atoms: C_8  and  C_15
REMARK                            x       y       z     vdW  Elec       q    Type
REMARK                         _______ _______ _______ _____ _____    ______ ____
ROOT
ATOM      1  C   UNL     1       3.793   1.650   0.000  0.00  0.00    +0.000 C 
ENDROOT
BRANCH   1   2
ATOM      2  C   UNL     1       3.793   0.825   0.000  0.00  0.00    +0.000 A 
ATOM      3  C   UNL     1       3.079   0.412   0.000  0.00  0.00    +0.000 A 
ATOM      4  C   UNL     1       4.508   0.412   0.000  0.00  0.00    +0.000 A 
ATOM      5  C   UNL     1       3.793  -0.825   0.000  0.00  0.00    +0.000 A 
ATOM      6  C   UNL     1       3.079  -0.412   0.000  0.00  0.00    +0.000 A 
ATOM      7  C   UNL     1       4.508  -0.412   0.000  0.00  0.00    +0.000 A 
BRANCH   5   8
ATOM      8  C   UNL     1       3.793  -1.650   0.000  0.00  0.00    +0.000 A 
ATOM      9  C   UNL     1       3.079  -2.062   0.000  0.00  0.00    +0.000 A 
ATOM     10  C   UNL     1       4.508  -2.062   0.000  0.00  0.00    +0.000 A 
ATOM     11  C   UNL     1       3.079  -2.888   0.000  0.00  0.00    +0.000 A 
ATOM     12  C   UNL     1       4.508  -2.888   0.000  0.00  0.00    +0.000 A 
ATOM     13  C   UNL     1       3.793  -3.300   0.000  0.00  0.00    +0.000 A 
ENDBRANCH   5   8
ENDBRANCH   1   2
BRANCH   1  14
ATOM     14  C   UNL     1       3.079   2.062   0.000  0.00  0.00    +0.000 A 
ATOM     15  C   UNL     1       2.365   1.650   0.000  0.00  0.00    +0.000 A 
ATOM     16  C   UNL     1       3.079   2.888   0.000  0.00  0.00    +0.000 A 
ATOM     17  C   UNL     1       1.650   2.062   0.000  0.00  0.00    +0.000 A 
ATOM     18  C   UNL     1       2.365   3.300   0.000  0.00  0.00    +0.000 A 
ATOM     19  C   UNL     1       1.650   2.888   0.000  0.00  0.00    +0.000 A 
ENDBRANCH   1  14
BRANCH   1  20
ATOM     20  N   UNL     1       4.508   2.062   0.000  0.00  0.00    +0.000 N 
ATOM     21  N   UNL     1       5.814   2.340   0.000  0.00  0.00    +0.000 NA
ATOM     22  C   UNL     1       4.594   2.883   0.000  0.00  0.00    +0.000 A 
ATOM     23  C   UNL     1       5.262   1.727   0.000  0.00  0.00    +0.000 A 
ATOM     24  C   UNL     1       5.401   3.054   0.000  0.00  0.00    +0.000 A 
ENDBRANCH   1  20
TORSDOF 4
