REMARK  Name = 
REMARK  7 active torsions:
REMARK  status: ('A' for Active; 'I' for Inactive)
REMARK    1  A    between atoms: N_4  and  C_7
REMARK    2  A    between atoms: N_6  and  C_22
REMARK    3  A    between atoms: C_7  and  C_10
REMARK    4  A    between atoms: C_10  and  C_13
REMARK    5  A    between atoms: C_13  and  C_14
REMARK    6  A    between atoms: C_14  and  C_15
REMARK    7  A    between atoms: C_14  and  C_16
REMARK                            x       y       z     vdW  Elec       q    Type
REMARK                         _______ _______ _______ _____ _____    ______ ____
ROOT
ATOM      1  C   UNL     1       3.793   1.238   0.000  0.00  0.00    +0.000 C 
ENDROOT
BRANCH   1   2
ATOM      2  C   UNL     1       4.508   1.650   0.000  0.00  0.00    +0.000 C 
BRANCH   2   4
ATOM      3  F   UNL     1       7.366   0.000   0.000  0.00  0.00    +0.000 F 
ATOM      4  C   UNL     1       5.222   1.238   0.000  0.00  0.00    +0.000 A 
ATOM      5  C   UNL     1       5.222   0.412   0.000  0.00  0.00    +0.000 A 
ATOM      6  C   UNL     1       5.937   1.650   0.000  0.00  0.00    +0.000 A 
ATOM      7  C   UNL     1       5.937   0.000   0.000  0.00  0.00    +0.000 A 
ATOM      8  C   UNL     1       6.651   1.238   0.000  0.00  0.00    +0.000 A 
ATOM      9  C   UNL     1       6.651   0.412   0.000  0.00  0.00    +0.000 A 
ENDBRANCH   2   4
BRANCH   2  11
ATOM     10  F   UNL     1       4.508   4.950   0.000  0.00  0.00    +0.000 F 
ATOM     11  C   UNL     1       4.508   2.475   0.000  0.00  0.00    +0.000 A 
ATOM     12  C   UNL     1       3.793   2.888   0.000  0.00  0.00    +0.000 A 
ATOM     13  C   UNL     1       5.222   2.888   0.000  0.00  0.00    +0.000 A 
ATOM     14  C   UNL     1       3.793   3.712   0.000  0.00  0.00    +0.000 A 
ATOM     15  C   UNL     1       5.222   3.712   0.000  0.00  0.00    +0.000 A 
ATOM     16  C   UNL     1       4.508   4.125   0.000  0.00  0.00    +0.000 A 
ENDBRANCH   2  11
ENDBRANCH   1   2
BRANCH   1  17
ATOM     17  C   UNL     1       3.793   0.412   0.000  0.00  0.00    +0.000 C 
BRANCH  17  18
ATOM     18  C   UNL     1       3.079   0.000   0.000  0.00  0.00    +0.000 C 
BRANCH  18  20
ATOM     19  O   UNL     1       3.793  -3.712   0.000  0.00  0.00    +0.000 OA
ATOM     20  N   UNL     1       3.079  -0.825   0.000  0.00  0.00    +0.000 NA
ATOM     21  N   UNL     1       3.079  -2.475   0.000  0.00  0.00    +0.000 N 
ATOM     22  N   UNL     1       2.364  -3.712   0.000  0.00  0.00    +0.000 N 
ATOM     23  C   UNL     1       2.364  -1.238   0.000  0.00  0.00    +0.000 C 
ATOM     24  C   UNL     1       3.793  -1.238   0.000  0.00  0.00    +0.000 C 
ATOM     25  C   UNL     1       2.364  -2.062   0.000  0.00  0.00    +0.000 C 
ATOM     26  C   UNL     1       3.793  -2.062   0.000  0.00  0.00    +0.000 C 
ATOM     27  C   UNL     1       3.079  -3.300   0.000  0.00  0.00    +0.000 C 
ATOM     28  H   UNL     1       1.921  -3.457   0.000  0.00  0.00    +0.000 HD
BRANCH  22  29
ATOM     29  C   UNL     1       2.364  -4.537   0.000  0.00  0.00    +0.000 C 
ATOM     30  C   UNL     1       1.650  -4.950   0.000  0.00  0.00    +0.000 C 
ENDBRANCH  22  29
ENDBRANCH  18  20
ENDBRANCH  17  18
ENDBRANCH   1  17
TORSDOF 7
