REMARK  Name = 
REMARK  6 active torsions:
REMARK  status: ('A' for Active; 'I' for Inactive)
REMARK    1  A    between atoms: C_3  and  C_4
REMARK    2  A    between atoms: C_3  and  C_7
REMARK    3  A    between atoms: C_4  and  C_8
REMARK    4  A    between atoms: C_7  and  P_16
REMARK    5  A    between atoms: C_8  and  S_17
REMARK    6  A    between atoms: C_10  and  S_17
REMARK                            x       y       z     vdW  Elec       q    Type
REMARK                         _______ _______ _______ _____ _____    ______ ____
ROOT
ATOM      1  O   UNL     1       1.429   2.475   0.000  0.00  0.00    +0.000 OA
ATOM      2  S   UNL     1       0.715   2.062   0.000  0.00  0.00    +0.000 S 
ENDROOT
BRANCH   2   8
ATOM      3  C   UNL     1       0.715  -0.412   0.000  0.00  0.00    +0.000 A 
ATOM      4  C   UNL     1       1.429   0.000   0.000  0.00  0.00    +0.000 A 
ATOM      5  C   UNL     1       0.000   0.000   0.000  0.00  0.00    +0.000 A 
ATOM      6  C   UNL     1       1.429   0.825   0.000  0.00  0.00    +0.000 A 
ATOM      7  C   UNL     1       0.000   0.825   0.000  0.00  0.00    +0.000 A 
ATOM      8  C   UNL     1       0.715   1.238   0.000  0.00  0.00    +0.000 A 
ATOM      9  O   UNL     1      -0.715   1.238   0.000  0.00  0.00    +0.000 OA
ENDBRANCH   2   8
BRANCH   2  10
ATOM     10  C   UNL     1       0.000   2.475   0.000  0.00  0.00    +0.000 C 
BRANCH  10  11
ATOM     11  C   UNL     1       0.000   3.300   0.000  0.00  0.00    +0.000 C 
BRANCH  11  12
ATOM     12  C   UNL     1      -0.715   3.712   0.000  0.00  0.00    +0.000 C 
BRANCH  12  13
ATOM     13  C   UNL     1      -0.715   4.537   0.000  0.00  0.00    +0.000 C 
BRANCH  13  17
ATOM     14  O   UNL     1      -2.143   5.362   0.000  0.00  0.00    +0.000 OA
ATOM     15  O   UNL     1      -1.016   5.665   0.000  0.00  0.00    +0.000 OA
ATOM     16  O   UNL     1      -1.841   4.236   0.000  0.00  0.00    +0.000 OA
ATOM     17  P   UNL     1      -1.429   4.950   0.000  0.00  0.00    +0.000 P 
ENDBRANCH  13  17
ENDBRANCH  12  13
ENDBRANCH  11  12
ENDBRANCH  10  11
ENDBRANCH   2  10
TORSDOF 6
