REMARK  Name = 
REMARK  6 active torsions:
REMARK  status: ('A' for Active; 'I' for Inactive)
REMARK    1  A    between atoms: C_11  and  O_31
REMARK    2  A    between atoms: C_12  and  O_32
REMARK    3  A    between atoms: C_13  and  C_17
REMARK    4  A    between atoms: C_14  and  C_18
REMARK    5  A    between atoms: C_15  and  O_31
REMARK    6  A    between atoms: C_16  and  O_32
REMARK                            x       y       z     vdW  Elec       q    Type
REMARK                         _______ _______ _______ _____ _____    ______ ____
ROOT
ATOM      1  C   UNL     1       2.143  -3.712   0.000  0.00  0.00    +0.000 C 
ATOM      2  C   UNL     1       0.715  -3.712   0.000  0.00  0.00    +0.000 C 
ATOM      3  C   UNL     1       2.143  -2.888   0.000  0.00  0.00    +0.000 C 
ATOM      4  C   UNL     1       0.715  -2.888   0.000  0.00  0.00    +0.000 C 
ATOM      5  C   UNL     1       1.429  -4.950   0.000  0.00  0.00    +0.000 C 
ATOM      6  C   UNL     1       1.429  -1.650   0.000  0.00  0.00    +0.000 C 
ATOM      7  N   UNL     1       1.429  -4.125   0.000  0.00  0.00    +0.000 N 
ATOM      8  N   UNL     1       1.429  -2.475   0.000  0.00  0.00    +0.000 N 
ATOM      9  O   UNL     1       2.143  -5.362   0.000  0.00  0.00    +0.000 OA
ATOM     10  O   UNL     1       2.143  -1.238   0.000  0.00  0.00    +0.000 OA
ENDROOT
BRANCH   5  11
ATOM     11  O   UNL     1       0.715  -5.362   0.000  0.00  0.00    +0.000 OA
BRANCH  11  15
ATOM     12  C   UNL     1       1.245  -8.470   0.000  0.00  0.00    +0.000 C 
ATOM     13  C   UNL     1       1.429  -6.600   0.000  0.00  0.00    +0.000 C 
ATOM     14  C   UNL     1       0.000  -6.600   0.000  0.00  0.00    +0.000 C 
ATOM     15  C   UNL     1       0.715  -6.188   0.000  0.00  0.00    +0.000 C 
ATOM     16  C   UNL     1       0.715  -7.838   0.000  0.00  0.00    +0.000 C 
ATOM     17  O   UNL     1       1.429  -7.425   0.000  0.00  0.00    +0.000 OA
ATOM     18  O   UNL     1       0.000  -7.425   0.000  0.00  0.00    +0.000 OA
BRANCH  16  19
ATOM     19  C   UNL     1       0.184  -8.470   0.000  0.00  0.00    +0.000 C 
ATOM     20  O   UNL     1       0.466  -9.245   0.000  0.00  0.00    +0.000 OA
ATOM     21  O   UNL     1      -0.628  -8.326   0.000  0.00  0.00    +0.000 OA
ENDBRANCH  16  19
ENDBRANCH  11  15
ENDBRANCH   5  11
BRANCH   6  22
ATOM     22  O   UNL     1       0.715  -1.238   0.000  0.00  0.00    +0.000 OA
BRANCH  22  26
ATOM     23  C   UNL     1       0.184   1.869   0.000  0.00  0.00    +0.000 C 
ATOM     24  C   UNL     1       0.000   0.000   0.000  0.00  0.00    +0.000 C 
ATOM     25  C   UNL     1       1.429   0.000   0.000  0.00  0.00    +0.000 C 
ATOM     26  C   UNL     1       0.715  -0.412   0.000  0.00  0.00    +0.000 C 
ATOM     27  C   UNL     1       0.715   1.238   0.000  0.00  0.00    +0.000 C 
ATOM     28  O   UNL     1       0.000   0.825   0.000  0.00  0.00    +0.000 OA
ATOM     29  O   UNL     1       1.429   0.825   0.000  0.00  0.00    +0.000 OA
BRANCH  27  30
ATOM     30  C   UNL     1       1.245   1.869   0.000  0.00  0.00    +0.000 C 
ATOM     31  O   UNL     1       0.963   2.645   0.000  0.00  0.00    +0.000 OA
ATOM     32  O   UNL     1       2.057   1.726   0.000  0.00  0.00    +0.000 OA
ENDBRANCH  27  30
ENDBRANCH  22  26
ENDBRANCH   6  22
TORSDOF 6
