REMARK  Name = 
REMARK  6 active torsions:
REMARK  status: ('A' for Active; 'I' for Inactive)
REMARK    1  A    between atoms: P_3  and  C_20
REMARK    2  A    between atoms: O_6  and  C_20
REMARK    3  A    between atoms: O_6  and  C_23
REMARK    4  A    between atoms: N_11  and  C_24
REMARK    5  A    between atoms: C_16  and  C_19
REMARK    6  A    between atoms: C_23  and  C_24
REMARK                            x       y       z     vdW  Elec       q    Type
REMARK                         _______ _______ _______ _____ _____    ______ ____
ROOT
ATOM      1  P   UNL     1       9.000   2.884   0.000  0.00  0.00    +0.000 P 
ATOM      2  O   UNL     1       8.216   2.628   0.000  0.00  0.00    +0.000 OA
ATOM      3  O   UNL     1       9.614   2.333   0.000  0.00  0.00    +0.000 OA
ATOM      4  O   UNL     1       9.551   3.498   0.000  0.00  0.00    +0.000 OA
ATOM      5  C   UNL     1       8.046   1.820   0.000  0.00  0.00    +0.000 C 
ATOM      6  C   UNL     1       8.659   1.269   0.000  0.00  0.00    +0.000 C 
ATOM      7  C   UNL     1       9.444   1.526   0.000  0.00  0.00    +0.000 C 
ENDROOT
BRANCH   5   9
ATOM      8 CL   UNL     1       5.249   2.410   0.000  0.00  0.00    +0.000 Cl
ATOM      9  C   UNL     1       7.261   1.564   0.000  0.00  0.00    +0.000 A 
ATOM     10  C   UNL     1       6.647   2.115   0.000  0.00  0.00    +0.000 A 
ATOM     11  C   UNL     1       7.091   0.757   0.000  0.00  0.00    +0.000 A 
ATOM     12  C   UNL     1       5.863   1.859   0.000  0.00  0.00    +0.000 A 
ATOM     13  C   UNL     1       6.307   0.500   0.000  0.00  0.00    +0.000 A 
ATOM     14  C   UNL     1       5.693   1.052   0.000  0.00  0.00    +0.000 A 
ENDBRANCH   5   9
BRANCH   1  15
ATOM     15  C   UNL     1       8.743   3.668   0.000  0.00  0.00    +0.000 C 
BRANCH  15  16
ATOM     16  O   UNL     1       7.936   3.838   0.000  0.00  0.00    +0.000 OA
BRANCH  16  17
ATOM     17  C   UNL     1       7.680   4.622   0.000  0.00  0.00    +0.000 C 
BRANCH  17  18
ATOM     18  C   UNL     1       6.873   4.793   0.000  0.00  0.00    +0.000 C 
BRANCH  18  19
ATOM     19  N   UNL     1       6.616   5.577   0.000  0.00  0.00    +0.000 N 
ATOM     20  N   UNL     1       6.616   6.905   0.000  0.00  0.00    +0.000 NA
ATOM     21  N   UNL     1       5.121   5.416   0.000  0.00  0.00    +0.000 NA
ATOM     22  N   UNL     1       4.407   6.653   0.000  0.00  0.00    +0.000 NA
ATOM     23  N   UNL     1       5.121   7.891   0.000  0.00  0.00    +0.000 NA
ATOM     24  C   UNL     1       5.836   5.828   0.000  0.00  0.00    +0.000 A 
ATOM     25  C   UNL     1       5.836   6.653   0.000  0.00  0.00    +0.000 A 
ATOM     26  C   UNL     1       7.098   6.241   0.000  0.00  0.00    +0.000 A 
ATOM     27  C   UNL     1       5.121   7.066   0.000  0.00  0.00    +0.000 A 
ATOM     28  C   UNL     1       4.407   5.828   0.000  0.00  0.00    +0.000 A 
ENDBRANCH  18  19
ENDBRANCH  17  18
ENDBRANCH  16  17
ENDBRANCH  15  16
ENDBRANCH   1  15
TORSDOF 6
REMARK  Name = 
REMARK  6 active torsions:
REMARK  status: ('A' for Active; 'I' for Inactive)
REMARK    1  A    between atoms: P_3  and  C_20
REMARK    2  A    between atoms: O_6  and  C_20
REMARK    3  A    between atoms: O_6  and  C_23
REMARK    4  A    between atoms: N_11  and  C_24
REMARK    5  A    between atoms: C_16  and  C_19
REMARK    6  A    between atoms: C_23  and  C_24
REMARK                            x       y       z     vdW  Elec       q    Type
REMARK                         _______ _______ _______ _____ _____    ______ ____
ROOT
ATOM      1  S   UNL     1       1.157   4.144   0.000  0.00  0.00    +0.000 S 
ATOM      2  O   UNL     1       1.872   4.556   0.000  0.00  0.00    +0.000 OA
ATOM      3  O   UNL     1       0.745   4.858   0.000  0.00  0.00    +0.000 OA
ATOM      4  O   UNL     1       1.570   3.429   0.000  0.00  0.00    +0.000 OA
ATOM      5  C   UNL     1       0.443   3.731   0.000  0.00  0.00    +0.000 C 
ENDROOT
TORSDOF 0
