REMARK  Name = 
REMARK  1 active torsions:
REMARK  status: ('A' for Active; 'I' for Inactive)
REMARK    1  A    between atoms: C_13  and  C_14
REMARK                            x       y       z     vdW  Elec       q    Type
REMARK                         _______ _______ _______ _____ _____    ______ ____
ROOT
ATOM      1  C   UNL     1      -0.715  -0.412   0.000  0.00  0.00    +0.000 A 
ATOM      2  C   UNL     1      -0.715  -1.238   0.000  0.00  0.00    +0.000 A 
ATOM      3  C   UNL     1       0.000   0.000   0.000  0.00  0.00    +0.000 A 
ATOM      4  C   UNL     1       0.000  -1.650   0.000  0.00  0.00    +0.000 A 
ATOM      5  C   UNL     1       3.572   1.238   0.000  0.00  0.00    +0.000 C 
ATOM      6  C   UNL     1       4.287   0.000   0.000  0.00  0.00    +0.000 C 
ATOM      7  C   UNL     1       2.858   0.825   0.000  0.00  0.00    +0.000 C 
ATOM      8  C   UNL     1       3.572  -0.412   0.000  0.00  0.00    +0.000 C 
ATOM      9  C   UNL     1       4.287   0.825   0.000  0.00  0.00    +0.000 C 
ATOM     10  C   UNL     1       2.858   0.000   0.000  0.00  0.00    +0.000 C 
ATOM     11  C   UNL     1       0.715  -0.412   0.000  0.00  0.00    +0.000 A 
ATOM     12  C   UNL     1       0.715  -1.238   0.000  0.00  0.00    +0.000 A 
ATOM     13  C   UNL     1       2.143  -0.412   0.000  0.00  0.00    +0.000 C 
ATOM     14  C   UNL     1       1.429   0.000   0.000  0.00  0.00    +0.000 C 
ATOM     15  C   UNL     1       1.429  -1.650   0.000  0.00  0.00    +0.000 C 
ATOM     16  C   UNL     1       2.143  -1.238   0.000  0.00  0.00    +0.000 C 
ATOM     17  O   UNL     1       1.429   0.825   0.000  0.00  0.00    +0.000 OA
ATOM     18  O   UNL     1       1.429  -2.475   0.000  0.00  0.00    +0.000 OA
ATOM     19  O   UNL     1       2.858  -1.650   0.000  0.00  0.00    +0.000 OA
ENDROOT
BRANCH   9  24
ATOM     20  C   UNL     1       5.716   0.825   0.000  0.00  0.00    +0.000 A 
ATOM     21  C   UNL     1       5.001   2.062   0.000  0.00  0.00    +0.000 A 
ATOM     22  C   UNL     1       6.430   1.238   0.000  0.00  0.00    +0.000 A 
ATOM     23  C   UNL     1       5.716   2.475   0.000  0.00  0.00    +0.000 A 
ATOM     24  C   UNL     1       5.001   1.238   0.000  0.00  0.00    +0.000 A 
ATOM     25  C   UNL     1       6.430   2.062   0.000  0.00  0.00    +0.000 A 
ATOM     26 CL   UNL     1       7.145   2.475   0.000  0.00  0.00    +0.000 Cl
ENDBRANCH   9  24
TORSDOF 1
