REMARK  Name = 
REMARK  4 active torsions:
REMARK  status: ('A' for Active; 'I' for Inactive)
REMARK    1  A    between atoms: C_3  and  C_6
REMARK    2  A    between atoms: C_3  and  O_19
REMARK    3  A    between atoms: C_7  and  N_12
REMARK    4  A    between atoms: O_19  and  P_21
REMARK                            x       y       z     vdW  Elec       q    Type
REMARK                         _______ _______ _______ _____ _____    ______ ____
ROOT
ATOM      1  C   UNL     1      -0.655   1.805   0.000  0.00  0.00    +0.000 C 
ATOM      2  C   UNL     1      -1.322   2.290   0.000  0.00  0.00    +0.000 C 
ATOM      3  C   UNL     1      -1.990   1.805   0.000  0.00  0.00    +0.000 C 
ATOM      4  C   UNL     1      -0.910   1.021   0.000  0.00  0.00    +0.000 C 
ATOM      5  O   UNL     1      -1.322   3.115   0.000  0.00  0.00    +0.000 OA
ATOM      6  O   UNL     1      -1.735   1.021   0.000  0.00  0.00    +0.000 OA
ENDROOT
BRANCH   4  13
ATOM      7  C   UNL     1      -0.760  -0.401   0.000  0.00  0.00    +0.000 A 
ATOM      8  C   UNL     1      -0.275  -1.068   0.000  0.00  0.00    +0.000 A 
ATOM      9  C   UNL     1       0.545  -0.982   0.000  0.00  0.00    +0.000 A 
ATOM     10  C   UNL     1       0.396   0.439   0.000  0.00  0.00    +0.000 A 
ATOM     11  I   UNL     1      -0.611  -1.822   0.000  0.00  0.00    +0.000 I 
ATOM     12  N   UNL     1       0.881  -0.228   0.000  0.00  0.00    +0.000 NA
ATOM     13  N   UNL     1      -0.425   0.353   0.000  0.00  0.00    +0.000 N 
ATOM     14  O   UNL     1       1.030  -1.649   0.000  0.00  0.00    +0.000 OA
ATOM     15  O   UNL     1       0.731   1.193   0.000  0.00  0.00    +0.000 OA
ENDBRANCH   4  13
BRANCH   3  16
ATOM     16  C   UNL     1      -2.774   2.060   0.000  0.00  0.00    +0.000 C 
BRANCH  16  17
ATOM     17  O   UNL     1      -2.946   2.867   0.000  0.00  0.00    +0.000 OA
BRANCH  17  21
ATOM     18  O   UNL     1      -4.515   3.377   0.000  0.00  0.00    +0.000 OA
ATOM     19  O   UNL     1      -3.475   3.907   0.000  0.00  0.00    +0.000 OA
ATOM     20  O   UNL     1      -3.985   2.337   0.000  0.00  0.00    +0.000 OA
ATOM     21  P   UNL     1      -3.730   3.122   0.000  0.00  0.00    +0.000 P 
ENDBRANCH  17  21
ENDBRANCH  16  17
ENDBRANCH   3  16
TORSDOF 4
