REMARK  Name = 
REMARK  6 active torsions:
REMARK  status: ('A' for Active; 'I' for Inactive)
REMARK    1  A    between atoms: C_17  and  C_18
REMARK    2  A    between atoms: C_17  and  O_31
REMARK    3  A    between atoms: C_18  and  N_28
REMARK    4  A    between atoms: C_19  and  C_26
REMARK    5  A    between atoms: C_20  and  C_27
REMARK    6  A    between atoms: C_23  and  O_31
REMARK                            x       y       z     vdW  Elec       q    Type
REMARK                         _______ _______ _______ _____ _____    ______ ____
ROOT
ATOM      1  C   UNL     1      -0.715  -0.412   0.000  0.00  0.00    +0.000 A 
ATOM      2  C   UNL     1       0.000   0.000   0.000  0.00  0.00    +0.000 A 
ATOM      3  C   UNL     1       0.000  -1.650   0.000  0.00  0.00    +0.000 A 
ATOM      4  C   UNL     1      -0.715  -1.238   0.000  0.00  0.00    +0.000 A 
ATOM      5  C   UNL     1       0.715  -0.412   0.000  0.00  0.00    +0.000 A 
ATOM      6  C   UNL     1       0.715  -1.238   0.000  0.00  0.00    +0.000 A 
ATOM      7  C   UNL     1       2.143  -0.412   0.000  0.00  0.00    +0.000 C 
ATOM      8  C   UNL     1       2.143  -1.238   0.000  0.00  0.00    +0.000 C 
ATOM      9  O   UNL     1      -1.429  -1.650   0.000  0.00  0.00    +0.000 OA
ATOM     10  O   UNL     1       1.429   0.000   0.000  0.00  0.00    +0.000 OA
ATOM     11  S   UNL     1       1.429  -1.650   0.000  0.00  0.00    +0.000 S 
ENDROOT
BRANCH   8  16
ATOM     12  C   UNL     1       2.858  -2.475   0.000  0.00  0.00    +0.000 A 
ATOM     13  C   UNL     1       3.572  -1.238   0.000  0.00  0.00    +0.000 A 
ATOM     14  C   UNL     1       3.572  -2.888   0.000  0.00  0.00    +0.000 A 
ATOM     15  C   UNL     1       4.287  -1.650   0.000  0.00  0.00    +0.000 A 
ATOM     16  C   UNL     1       2.858  -1.650   0.000  0.00  0.00    +0.000 A 
ATOM     17  C   UNL     1       4.287  -2.475   0.000  0.00  0.00    +0.000 A 
ATOM     18  O   UNL     1       5.001  -2.888   0.000  0.00  0.00    +0.000 OA
ENDBRANCH   8  16
BRANCH   7  23
ATOM     19  C   UNL     1       3.572  -0.412   0.000  0.00  0.00    +0.000 A 
ATOM     20  C   UNL     1       2.858   0.825   0.000  0.00  0.00    +0.000 A 
ATOM     21  C   UNL     1       4.287   0.000   0.000  0.00  0.00    +0.000 A 
ATOM     22  C   UNL     1       3.572   1.238   0.000  0.00  0.00    +0.000 A 
ATOM     23  C   UNL     1       2.858   0.000   0.000  0.00  0.00    +0.000 A 
ATOM     24  C   UNL     1       4.287   0.825   0.000  0.00  0.00    +0.000 A 
BRANCH  24  25
ATOM     25  O   UNL     1       5.001   1.238   0.000  0.00  0.00    +0.000 OA
BRANCH  25  26
ATOM     26  C   UNL     1       5.001   2.062   0.000  0.00  0.00    +0.000 C 
BRANCH  26  28
ATOM     27  C   UNL     1       6.430   2.062   0.000  0.00  0.00    +0.000 C 
ATOM     28  C   UNL     1       5.716   2.475   0.000  0.00  0.00    +0.000 C 
BRANCH  28  33
ATOM     29  C   UNL     1       6.128   4.569   0.000  0.00  0.00    +0.000 C 
ATOM     30  C   UNL     1       5.303   4.569   0.000  0.00  0.00    +0.000 C 
ATOM     31  C   UNL     1       6.383   3.785   0.000  0.00  0.00    +0.000 C 
ATOM     32  C   UNL     1       5.048   3.785   0.000  0.00  0.00    +0.000 C 
ATOM     33  N   UNL     1       5.716   3.300   0.000  0.00  0.00    +0.000 NA
ENDBRANCH  28  33
ENDBRANCH  26  28
ENDBRANCH  25  26
ENDBRANCH  24  25
ENDBRANCH   7  23
TORSDOF 6
