REMARK  Name = 
REMARK  8 active torsions:
REMARK  status: ('A' for Active; 'I' for Inactive)
REMARK    1  A    between atoms: C_2  and  N_3
REMARK    2  A    between atoms: C_2  and  C_31
REMARK    3  A    between atoms: C_4  and  C_6
REMARK    4  A    between atoms: C_11  and  C_13
REMARK    5  A    between atoms: C_18  and  C_20
REMARK    6  A    between atoms: C_20  and  C_22
REMARK    7  A    between atoms: C_22  and  C_24
REMARK    8  A    between atoms: C_24  and  C_25
REMARK                            x       y       z     vdW  Elec       q    Type
REMARK                         _______ _______ _______ _____ _____    ______ ____
ROOT
ATOM      1  C   UNL     1       3.033  -2.086   0.000  0.00  0.00    +0.000 C 
ATOM      2  C   UNL     1       2.365  -2.571   0.000  0.00  0.00    +0.000 C 
ATOM      3  C   UNL     1       1.698  -2.086   0.000  0.00  0.00    +0.000 C 
ATOM      4  C   UNL     1       1.953  -1.301   0.000  0.00  0.00    +0.000 C 
ATOM      5  N   UNL     1       2.778  -1.301   0.000  0.00  0.00    +0.000 N 
ATOM      6  C   UNL     1       3.263  -0.633   0.000  0.00  0.00    +0.000 C 
ATOM      7  O   UNL     1       4.083  -0.720   0.000  0.00  0.00    +0.000 OA
ENDROOT
BRANCH   1  13
ATOM      8  C   UNL     1       4.743  -3.483   0.000  0.00  0.00    +0.000 C 
ATOM      9  C   UNL     1       4.656  -4.304   0.000  0.00  0.00    +0.000 C 
ATOM     10  C   UNL     1       3.849  -4.475   0.000  0.00  0.00    +0.000 C 
ATOM     11  C   UNL     1       3.437  -3.761   0.000  0.00  0.00    +0.000 C 
ATOM     12  N   UNL     1       3.989  -3.147   0.000  0.00  0.00    +0.000 N 
ATOM     13  C   UNL     1       3.817  -2.341   0.000  0.00  0.00    +0.000 C 
ATOM     14  O   UNL     1       4.431  -1.788   0.000  0.00  0.00    +0.000 OA
BRANCH   8  16
ATOM     15  N   UNL     1       6.172  -3.483   0.000  0.00  0.00    +0.000 NA
ATOM     16  C   UNL     1       5.457  -3.071   0.000  0.00  0.00    +0.000 C 
ATOM     17  O   UNL     1       5.457  -2.246   0.000  0.00  0.00    +0.000 OA
BRANCH  15  19
ATOM     18  C   UNL     1       6.886  -2.246   0.000  0.00  0.00    +0.000 C 
ATOM     19  C   UNL     1       6.886  -3.071   0.000  0.00  0.00    +0.000 C 
BRANCH  19  20
ATOM     20  C   UNL     1       7.601  -3.483   0.000  0.00  0.00    +0.000 C 
ATOM     21  N   UNL     1       8.315  -3.071   0.000  0.00  0.00    +0.000 NA
ATOM     22  O   UNL     1       7.601  -4.308   0.000  0.00  0.00    +0.000 OA
ENDBRANCH  19  20
ENDBRANCH  15  19
ENDBRANCH   8  16
ENDBRANCH   1  13
BRANCH   6  23
ATOM     23  C   UNL     1       2.927   0.120   0.000  0.00  0.00    +0.000 C 
ATOM     24  O   UNL     1       2.107   0.206   0.000  0.00  0.00    +0.000 OA
BRANCH  23  25
ATOM     25  C   UNL     1       3.412   0.788   0.000  0.00  0.00    +0.000 C 
ATOM     26  N   UNL     1       4.233   0.701   0.000  0.00  0.00    +0.000 NA
BRANCH  25  27
ATOM     27  C   UNL     1       3.077   1.541   0.000  0.00  0.00    +0.000 C 
BRANCH  27  28
ATOM     28  C   UNL     1       3.562   2.209   0.000  0.00  0.00    +0.000 A 
ATOM     29  C   UNL     1       3.226   2.962   0.000  0.00  0.00    +0.000 A 
ATOM     30  C   UNL     1       3.711   3.630   0.000  0.00  0.00    +0.000 A 
ATOM     31  C   UNL     1       4.531   3.544   0.000  0.00  0.00    +0.000 A 
ATOM     32  C   UNL     1       4.867   2.790   0.000  0.00  0.00    +0.000 A 
ATOM     33  C   UNL     1       4.382   2.122   0.000  0.00  0.00    +0.000 A 
ENDBRANCH  27  28
ENDBRANCH  25  27
ENDBRANCH  23  25
ENDBRANCH   6  23
TORSDOF 8
