REMARK  Name = 
REMARK  1 active torsions:
REMARK  status: ('A' for Active; 'I' for Inactive)
REMARK    1  A    between atoms: C_2  and  C_4
REMARK                            x       y       z     vdW  Elec       q    Type
REMARK                         _______ _______ _______ _____ _____    ______ ____
ROOT
ATOM      1  C   UNL     1       1.235   0.629   0.000  0.00  0.00    +0.000 A 
ATOM      2  C   UNL     1       0.980  -0.155   0.000  0.00  0.00    +0.000 A 
ATOM      3  O   UNL     1       0.155  -0.155   0.000  0.00  0.00    +0.000 OA
ATOM      4  N   UNL     1      -0.100   0.629   0.000  0.00  0.00    +0.000 NA
ATOM      5  C   UNL     1       0.568   1.114   0.000  0.00  0.00    +0.000 A 
ATOM      6  O   UNL     1       0.568   1.939   0.000  0.00  0.00    +0.000 OA
ENDROOT
BRANCH   1   8
ATOM      7  O   UNL     1       2.191   1.691   0.000  0.00  0.00    +0.000 OA
ATOM      8  C   UNL     1       2.020   0.884   0.000  0.00  0.00    +0.000 C 
ATOM      9  O   UNL     1       2.633   0.332   0.000  0.00  0.00    +0.000 OA
ENDBRANCH   1   8
TORSDOF 1
