REMARK  Name = 
REMARK  10 active torsions:
REMARK  status: ('A' for Active; 'I' for Inactive)
REMARK    1  A    between atoms: C_1  and  C_4
REMARK    2  A    between atoms: C_1  and  N_8
REMARK    3  A    between atoms: C_2  and  C_5
REMARK    4  A    between atoms: C_2  and  O_19
REMARK    5  A    between atoms: C_3  and  N_8
REMARK    6  A    between atoms: C_3  and  P_20
REMARK    7  A    between atoms: C_4  and  C_6
REMARK    8  A    between atoms: C_5  and  C_7
REMARK    9  A    between atoms: C_6  and  C_7
REMARK   10  A    between atoms: O_19  and  P_21
REMARK                            x       y       z     vdW  Elec       q    Type
REMARK                         _______ _______ _______ _____ _____    ______ ____
ROOT
ATOM      1  C   UNL     1       3.491  -0.715   0.000  0.00  0.00    +0.000 C 
ATOM      2  O   UNL     1       3.491  -1.540   0.000  0.00  0.00    +0.000 OA
ENDROOT
BRANCH   1   3
ATOM      3  C   UNL     1       2.777  -0.302   0.000  0.00  0.00    +0.000 C 
ATOM      4  O   UNL     1       2.777   0.523   0.000  0.00  0.00    +0.000 OA
BRANCH   3   5
ATOM      5  C   UNL     1       2.062  -0.715   0.000  0.00  0.00    +0.000 C 
BRANCH   5   6
ATOM      6  N   UNL     1       1.348  -0.302   0.000  0.00  0.00    +0.000 NA
BRANCH   6   7
ATOM      7  C   UNL     1       0.634  -0.715   0.000  0.00  0.00    +0.000 C 
BRANCH   7  11
ATOM      8  O   UNL     1      -0.795   0.111   0.000  0.00  0.00    +0.000 OA
ATOM      9  O   UNL     1      -0.493  -1.016   0.000  0.00  0.00    +0.000 OA
ATOM     10  O   UNL     1       0.332   0.412   0.000  0.00  0.00    +0.000 OA
ATOM     11  P   UNL     1      -0.081  -0.302   0.000  0.00  0.00    +0.000 P 
ENDBRANCH   7  11
ENDBRANCH   6   7
ENDBRANCH   5   6
ENDBRANCH   3   5
ENDBRANCH   1   3
BRANCH   1  12
ATOM     12  C   UNL     1       4.206  -0.302   0.000  0.00  0.00    +0.000 C 
ATOM     13  O   UNL     1       4.206   0.523   0.000  0.00  0.00    +0.000 OA
BRANCH  12  14
ATOM     14  C   UNL     1       4.920  -0.715   0.000  0.00  0.00    +0.000 C 
ATOM     15  O   UNL     1       4.920  -1.540   0.000  0.00  0.00    +0.000 OA
BRANCH  14  16
ATOM     16  C   UNL     1       5.635  -0.302   0.000  0.00  0.00    +0.000 C 
BRANCH  16  17
ATOM     17  O   UNL     1       6.349  -0.715   0.000  0.00  0.00    +0.000 OA
BRANCH  17  21
ATOM     18  O   UNL     1       7.778   0.111   0.000  0.00  0.00    +0.000 OA
ATOM     19  O   UNL     1       7.476  -1.016   0.000  0.00  0.00    +0.000 OA
ATOM     20  O   UNL     1       6.651   0.412   0.000  0.00  0.00    +0.000 OA
ATOM     21  P   UNL     1       7.064  -0.302   0.000  0.00  0.00    +0.000 P 
ENDBRANCH  17  21
ENDBRANCH  16  17
ENDBRANCH  14  16
ENDBRANCH  12  14
ENDBRANCH   1  12
TORSDOF 10
