REMARK  Name = 
REMARK  2 active torsions:
REMARK  status: ('A' for Active; 'I' for Inactive)
REMARK    1  A    between atoms: N_6  and  C_11
REMARK    2  A    between atoms: C_9  and  C_13
REMARK                            x       y       z     vdW  Elec       q    Type
REMARK                         _______ _______ _______ _____ _____    ______ ____
ROOT
ATOM      1  F   UNL     1       1.650  -1.358   0.000  0.00  0.00    +0.000 F 
ATOM      2  O   UNL     1       4.383  -1.061   0.000  0.00  0.00    +0.000 OA
ATOM      3  O   UNL     1       2.818  -2.513   0.000  0.00  0.00    +0.000 OA
ATOM      4  C   UNL     1       4.128  -1.845   0.000  0.00  0.00    +0.000 C 
ATOM      5  C   UNL     1       3.303  -1.845   0.000  0.00  0.00    +0.000 C 
ATOM      6  C   UNL     1       3.715  -0.576   0.000  0.00  0.00    +0.000 C 
ATOM      7  C   UNL     1       3.048  -1.061   0.000  0.00  0.00    +0.000 C 
ATOM      8  C   UNL     1       2.263  -0.806   0.000  0.00  0.00    +0.000 C 
ENDROOT
BRANCH   6  10
ATOM      9  O   UNL     1       2.286   0.249   0.000  0.00  0.00    +0.000 OA
ATOM     10  N   UNL     1       3.715   0.249   0.000  0.00  0.00    +0.000 N 
ATOM     11  N   UNL     1       3.001   1.487   0.000  0.00  0.00    +0.000 NA
ATOM     12  N   UNL     1       3.715   2.724   0.000  0.00  0.00    +0.000 NA
ATOM     13  C   UNL     1       4.430   0.662   0.000  0.00  0.00    +0.000 A 
ATOM     14  C   UNL     1       3.001   0.662   0.000  0.00  0.00    +0.000 A 
ATOM     15  C   UNL     1       4.430   1.487   0.000  0.00  0.00    +0.000 A 
ATOM     16  C   UNL     1       3.715   1.899   0.000  0.00  0.00    +0.000 A 
ENDBRANCH   6  10
BRANCH   4  18
ATOM     17  O   UNL     1       5.433  -2.426   0.000  0.00  0.00    +0.000 OA
ATOM     18  C   UNL     1       4.613  -2.513   0.000  0.00  0.00    +0.000 C 
ENDBRANCH   4  18
TORSDOF 2
