REMARK  Name = 
REMARK  3 active torsions:
REMARK  status: ('A' for Active; 'I' for Inactive)
REMARK    1  A    between atoms: C_2  and  C_3
REMARK    2  A    between atoms: C_3  and  C_4
REMARK    3  A    between atoms: C_4  and  C_8
REMARK                            x       y       z     vdW  Elec       q    Type
REMARK                         _______ _______ _______ _____ _____    ______ ____
ROOT
ATOM      1  C   UNL     1      -0.100   0.629   0.000  0.00  0.00    +0.000 C 
ATOM      2  C   UNL     1       0.155  -0.155   0.000  0.00  0.00    +0.000 C 
ATOM      3  C   UNL     1       1.235   0.629   0.000  0.00  0.00    +0.000 C 
ATOM      4  C   UNL     1       0.568   1.114   0.000  0.00  0.00    +0.000 C 
ATOM      5  O   UNL     1       1.465  -0.823   0.000  0.00  0.00    +0.000 OA
ATOM      6  S   UNL     1       0.980  -0.155   0.000  0.00  0.00    +0.000 S 
ENDROOT
BRANCH   4   7
ATOM      7  C   UNL     1       0.568   1.939   0.000  0.00  0.00    +0.000 C 
BRANCH   7   8
ATOM      8  C   UNL     1      -0.147   2.352   0.000  0.00  0.00    +0.000 C 
BRANCH   8  10
ATOM      9  C   UNL     1      -0.861   3.589   0.000  0.00  0.00    +0.000 C 
ATOM     10  C   UNL     1      -0.147   3.177   0.000  0.00  0.00    +0.000 C 
ENDBRANCH   8  10
ENDBRANCH   7   8
ENDBRANCH   4   7
TORSDOF 3
