REMARK  Name = 
REMARK  2 active torsions:
REMARK  status: ('A' for Active; 'I' for Inactive)
REMARK    1  A    between atoms: C_24  and  C_25
REMARK    2  A    between atoms: C_25  and  C_26
REMARK                            x       y       z     vdW  Elec       q    Type
REMARK                         _______ _______ _______ _____ _____    ______ ____
ROOT
ATOM      1  C   UNL     1       8.335  -4.383   0.000  0.00  0.00    +0.000 C 
ATOM      2  C   UNL     1       8.335  -5.208   0.000  0.00  0.00    +0.000 C 
ATOM      3  C   UNL     1       7.640  -3.948   0.000  0.00  0.00    +0.000 C 
ATOM      4  C   UNL     1       8.335  -3.558   0.000  0.00  0.00    +0.000 C 
ATOM      5  C   UNL     1       7.640  -5.642   0.000  0.00  0.00    +0.000 C 
ATOM      6  C   UNL     1       6.902  -4.383   0.000  0.00  0.00    +0.000 C 
ATOM      7  C   UNL     1       6.902  -5.208   0.000  0.00  0.00    +0.000 C 
ATOM      8  C   UNL     1       7.640  -6.467   0.000  0.00  0.00    +0.000 C 
ATOM      9  O   UNL     1       6.164  -3.948   0.000  0.00  0.00    +0.000 OA
ATOM     10  C   UNL     1       6.164  -5.642   0.000  0.00  0.00    +0.000 C 
ATOM     11  F   UNL     1       6.902  -6.076   0.000  0.00  0.00    +0.000 F 
ATOM     12  C   UNL     1       6.902  -6.901   0.000  0.00  0.00    +0.000 C 
ATOM     13  C   UNL     1       6.164  -6.467   0.000  0.00  0.00    +0.000 C 
ATOM     14  C   UNL     1       5.425  -5.208   0.000  0.00  0.00    +0.000 C 
ATOM     15  C   UNL     1       6.164  -4.817   0.000  0.00  0.00    +0.000 C 
ATOM     16  C   UNL     1       5.425  -6.901   0.000  0.00  0.00    +0.000 C 
ATOM     17  C   UNL     1       4.731  -5.642   0.000  0.00  0.00    +0.000 C 
ATOM     18  C   UNL     1       4.731  -6.467   0.000  0.00  0.00    +0.000 C 
ATOM     19  O   UNL     1       3.993  -6.901   0.000  0.00  0.00    +0.000 OA
ATOM     20  C   UNL     1       9.119  -5.463   0.000  0.00  0.00    +0.000 C 
ATOM     21  C   UNL     1       9.604  -4.795   0.000  0.00  0.00    +0.000 C 
ATOM     22  C   UNL     1       9.119  -4.128   0.000  0.00  0.00    +0.000 C 
ATOM     23  O   UNL     1       9.918  -3.937   0.000  0.00  0.00    +0.000 OA
ATOM     24  C   UNL     1      10.429  -4.795   0.000  0.00  0.00    +0.000 C 
ENDROOT
BRANCH  22  25
ATOM     25  C   UNL     1       9.115  -3.300   0.000  0.00  0.00    +0.000 C 
ATOM     26  O   UNL     1       8.398  -2.891   0.000  0.00  0.00    +0.000 OA
BRANCH  25  27
ATOM     27  C   UNL     1       9.827  -2.884   0.000  0.00  0.00    +0.000 C 
ATOM     28 CL   UNL     1      10.544  -3.292   0.000  0.00  0.00    +0.000 Cl
ENDBRANCH  25  27
ENDBRANCH  22  25
TORSDOF 2
