REMARK  Name = 
REMARK  6 active torsions:
REMARK  status: ('A' for Active; 'I' for Inactive)
REMARK    1  A    between atoms: N_4  and  C_5
REMARK    2  A    between atoms: C_7  and  C_8
REMARK    3  A    between atoms: C_8  and  O_9
REMARK    4  A    between atoms: O_9  and  P_10
REMARK    5  A    between atoms: P_10  and  O_13
REMARK    6  A    between atoms: O_13  and  P_14
REMARK                            x       y       z     vdW  Elec       q    Type
REMARK                         _______ _______ _______ _____ _____    ______ ____
ROOT
ATOM      1  C   UNL     1      -4.861   0.739   0.000  0.00  0.00    +0.000 C 
ATOM      2  O   UNL     1      -4.309   1.352   0.000  0.00  0.00    +0.000 OA
ATOM      3  C   UNL     1      -3.555   1.016   0.000  0.00  0.00    +0.000 C 
ATOM      4  C   UNL     1      -3.641   0.196   0.000  0.00  0.00    +0.000 C 
ATOM      5  C   UNL     1      -4.448   0.024   0.000  0.00  0.00    +0.000 C 
ENDROOT
BRANCH   1   9
ATOM      6  C   UNL     1      -7.173   2.419   0.000  0.00  0.00    +0.000 C 
ATOM      7  C   UNL     1      -6.837   1.665   0.000  0.00  0.00    +0.000 A 
ATOM      8  C   UNL     1      -6.017   1.579   0.000  0.00  0.00    +0.000 A 
ATOM      9  N   UNL     1      -5.681   0.825   0.000  0.00  0.00    +0.000 N 
ATOM     10  C   UNL     1      -6.166   0.158   0.000  0.00  0.00    +0.000 A 
ATOM     11  O   UNL     1      -5.831  -0.596   0.000  0.00  0.00    +0.000 OA
ATOM     12  N   UNL     1      -6.987   0.244   0.000  0.00  0.00    +0.000 NA
ATOM     13  C   UNL     1      -7.322   0.998   0.000  0.00  0.00    +0.000 A 
ATOM     14  O   UNL     1      -8.143   1.084   0.000  0.00  0.00    +0.000 OA
ENDBRANCH   1   9
BRANCH   3  15
ATOM     15  C   UNL     1      -2.841   1.429   0.000  0.00  0.00    +0.000 C 
BRANCH  15  16
ATOM     16  O   UNL     1      -2.126   1.016   0.000  0.00  0.00    +0.000 OA
BRANCH  16  17
ATOM     17  P   UNL     1      -1.412   1.429   0.000  0.00  0.00    +0.000 P 
ATOM     18  O   UNL     1      -1.824   2.143   0.000  0.00  0.00    +0.000 OA
ATOM     19  O   UNL     1      -0.999   0.714   0.000  0.00  0.00    +0.000 OA
BRANCH  17  20
ATOM     20  O   UNL     1      -0.697   1.841   0.000  0.00  0.00    +0.000 OA
BRANCH  20  21
ATOM     21  P   UNL     1       0.017   1.429   0.000  0.00  0.00    +0.000 P 
ATOM     22  O   UNL     1       0.732   1.016   0.000  0.00  0.00    +0.000 OA
ATOM     23  O   UNL     1       0.430   2.143   0.000  0.00  0.00    +0.000 OA
ATOM     24  O   UNL     1      -0.395   0.714   0.000  0.00  0.00    +0.000 OA
ENDBRANCH  20  21
ENDBRANCH  17  20
ENDBRANCH  16  17
ENDBRANCH  15  16
ENDBRANCH   3  15
TORSDOF 6
