REMARK  Name = 
REMARK  1 active torsions:
REMARK  status: ('A' for Active; 'I' for Inactive)
REMARK    1  A    between atoms: C_17  and  C_26
REMARK                            x       y       z     vdW  Elec       q    Type
REMARK                         _______ _______ _______ _____ _____    ______ ____
ROOT
ATOM      1  C   UNL     1       6.025  -9.125   0.000  0.00  0.00    +0.000 C 
ATOM      2  O   UNL     1       6.025  -9.950   0.000  0.00  0.00    +0.000 OA
ATOM      3  C   UNL     1       6.809 -10.205   0.000  0.00  0.00    +0.000 C 
ATOM      4  C   UNL     1       7.294  -9.537   0.000  0.00  0.00    +0.000 C 
ATOM      5  C   UNL     1       6.809  -8.870   0.000  0.00  0.00    +0.000 C 
ATOM      6  C   UNL     1       8.079 -10.617   0.000  0.00  0.00    +0.000 C 
ATOM      7  C   UNL     1       8.079  -9.792   0.000  0.00  0.00    +0.000 C 
ATOM      8  C   UNL     1       8.864 -10.872   0.000  0.00  0.00    +0.000 C 
ATOM      9  C   UNL     1       9.348 -10.205   0.000  0.00  0.00    +0.000 C 
ATOM     10  O   UNL     1       8.864  -9.537   0.000  0.00  0.00    +0.000 OA
ATOM     11  O   UNL     1      10.133 -10.460   0.000  0.00  0.00    +0.000 OA
ATOM     12  C   UNL     1      10.133 -11.285   0.000  0.00  0.00    +0.000 C 
ATOM     13  C   UNL     1       9.348 -11.540   0.000  0.00  0.00    +0.000 C 
ATOM     14  O   UNL     1       5.357  -8.640   0.000  0.00  0.00    +0.000 OA
ATOM     15  C   UNL     1       7.294 -10.872   0.000  0.00  0.00    +0.000 C 
ATOM     16  C   UNL     1       7.594 -11.285   0.000  0.00  0.00    +0.000 C 
ATOM     17  C   UNL     1       8.864 -11.697   0.000  0.00  0.00    +0.000 C 
ATOM     18  C   UNL     1       8.079 -11.952   0.000  0.00  0.00    +0.000 C 
ATOM     19  O   UNL     1      10.730 -11.700   0.000  0.00  0.00    +0.000 OA
ATOM     20  O   UNL     1       7.276  -8.534   0.000  0.00  0.00    +0.000 OA
ATOM     21  C   UNL     1       6.743  -8.071   0.000  0.00  0.00    +0.000 C 
ATOM     22  C   UNL     1       7.928  -9.075   0.000  0.00  0.00    +0.000 C 
ATOM     23  O   UNL     1       7.425 -10.068   0.000  0.00  0.00    +0.000 OA
ATOM     24  O   UNL     1       7.928  -8.432   0.000  0.00  0.00    +0.000 OA
ATOM     25  O   UNL     1       9.746 -12.221   0.000  0.00  0.00    +0.000 OA
ENDROOT
BRANCH  17  26
ATOM     26  C   UNL     1       8.921 -12.389   0.000  0.00  0.00    +0.000 C 
ATOM     27  C   UNL     1       8.418 -13.046   0.000  0.00  0.00    +0.000 C 
ATOM     28  C   UNL     1       9.075 -13.214   0.000  0.00  0.00    +0.000 C 
ATOM     29  C   UNL     1       9.578 -12.878   0.000  0.00  0.00    +0.000 C 
ENDBRANCH  17  26
TORSDOF 1
