REMARK  Name = 
REMARK  8 active torsions:
REMARK  status: ('A' for Active; 'I' for Inactive)
REMARK    1  A    between atoms: C_7  and  C_9
REMARK    2  A    between atoms: C_7  and  C_21
REMARK    3  A    between atoms: C_8  and  C_10
REMARK    4  A    between atoms: C_8  and  C_22
REMARK    5  A    between atoms: C_9  and  C_31
REMARK    6  A    between atoms: C_10  and  C_32
REMARK    7  A    between atoms: C_19  and  C_33
REMARK    8  A    between atoms: C_20  and  C_34
REMARK                            x       y       z     vdW  Elec       q    Type
REMARK                         _______ _______ _______ _____ _____    ______ ____
ROOT
ATOM      1  C   UNL     1       0.992   0.925   0.000  0.00  0.00    +0.000 C 
ATOM      2  C   UNL     1       5.191  -3.567   0.000  0.00  0.00    +0.000 C 
ATOM      3  C   UNL     1       3.169   0.717   0.000  0.00  0.00    +0.000 C 
ATOM      4  C   UNL     1       7.849   0.715   0.000  0.00  0.00    +0.000 C 
ATOM      5  C   UNL     1       2.950   1.499   0.000  0.00  0.00    +0.000 C 
ATOM      6  C   UNL     1       5.739  -1.679   0.000  0.00  0.00    +0.000 C 
ATOM      7  C   UNL     1       5.933   1.304   0.000  0.00  0.00    +0.000 C 
ATOM      8  C   UNL     1       2.755  -1.485   0.000  0.00  0.00    +0.000 C 
ATOM      9  C   UNL     1       1.629   0.358   0.000  0.00  0.00    +0.000 A 
ATOM     10  C   UNL     1       4.719  -2.858   0.000  0.00  0.00    +0.000 A 
ATOM     11  C   UNL     1       3.867   1.112   0.000  0.00  0.00    +0.000 A 
ATOM     12  C   UNL     1       7.112   0.284   0.000  0.00  0.00    +0.000 A 
ATOM     13  C   UNL     1       1.576  -0.465   0.000  0.00  0.00    +0.000 A 
ATOM     14  C   UNL     1       3.895  -2.805   0.000  0.00  0.00    +0.000 A 
ATOM     15  C   UNL     1       2.429   0.562   0.000  0.00  0.00    +0.000 A 
ATOM     16  C   UNL     1       5.024  -2.092   0.000  0.00  0.00    +0.000 A 
ATOM     17  C   UNL     1       3.664   1.912   0.000  0.00  0.00    +0.000 A 
ATOM     18  C   UNL     1       6.346   0.590   0.000  0.00  0.00    +0.000 A 
ATOM     19  C   UNL     1       2.342  -0.770   0.000  0.00  0.00    +0.000 A 
ATOM     20  C   UNL     1       3.692  -2.005   0.000  0.00  0.00    +0.000 A 
ATOM     21  C   UNL     1       6.259  -0.742   0.000  0.00  0.00    +0.000 A 
ATOM     22  C   UNL     1       4.996   1.825   0.000  0.00  0.00    +0.000 A 
ATOM     23  C   UNL     1       4.690   1.058   0.000  0.00  0.00    +0.000 A 
ATOM     24  C   UNL     1       7.059  -0.539   0.000  0.00  0.00    +0.000 A 
ATOM     25 FE   UNL     1       4.360   0.152   0.000  0.00  0.00    +0.000 Fe
ATOM     26  N   UNL     1       2.869  -0.136   0.000  0.00  0.00    +0.000 N 
ATOM     27  N   UNL     1       4.390  -1.565   0.000  0.00  0.00    +0.000 N 
ATOM     28  N   UNL     1       4.362   2.352   0.000  0.00  0.00    +0.000 N 
ATOM     29  N   UNL     1       5.819  -0.044   0.000  0.00  0.00    +0.000 N 
ENDROOT
BRANCH  23  31
ATOM     30  C   UNL     1       4.956  -0.551   0.000  0.00  0.00    +0.000 C 
ATOM     31  C   UNL     1       4.966   0.269   0.000  0.00  0.00    +0.000 C 
ATOM     32  O   UNL     1       5.642   0.822   0.000  0.00  0.00    +0.000 OA
ENDBRANCH  23  31
BRANCH  24  34
ATOM     33  C   UNL     1       7.635  -1.957   0.000  0.00  0.00    +0.000 C 
ATOM     34  C   UNL     1       7.737  -1.116   0.000  0.00  0.00    +0.000 C 
ATOM     35  O   UNL     1       8.587  -0.868   0.000  0.00  0.00    +0.000 OA
ENDBRANCH  24  34
BRANCH  13  36
ATOM     36  C   UNL     1       0.839  -0.908   0.000  0.00  0.00    +0.000 C 
BRANCH  36  37
ATOM     37  C   UNL     1       0.044  -0.623   0.000  0.00  0.00    +0.000 C 
BRANCH  37  38
ATOM     38  C   UNL     1      -0.103   0.189   0.000  0.00  0.00    +0.000 C 
ATOM     39  O   UNL     1      -0.879   0.467   0.000  0.00  0.00    +0.000 OA
ATOM     40  O   UNL     1       0.527   0.722   0.000  0.00  0.00    +0.000 OA
ENDBRANCH  37  38
ENDBRANCH  36  37
ENDBRANCH  13  36
BRANCH  14  41
ATOM     41  C   UNL     1       3.354  -3.471   0.000  0.00  0.00    +0.000 C 
BRANCH  41  42
ATOM     42  C   UNL     1       3.536  -4.296   0.000  0.00  0.00    +0.000 C 
BRANCH  42  43
ATOM     43  C   UNL     1       4.322  -4.545   0.000  0.00  0.00    +0.000 C 
ATOM     44  O   UNL     1       4.931  -3.989   0.000  0.00  0.00    +0.000 OA
ATOM     45  O   UNL     1       4.500  -5.351   0.000  0.00  0.00    +0.000 OA
ENDBRANCH  42  43
ENDBRANCH  41  42
ENDBRANCH  14  41
TORSDOF 8
