REMARK  Name = 
REMARK  2 active torsions:
REMARK  status: ('A' for Active; 'I' for Inactive)
REMARK    1  A    between atoms: C_1  and  N_2
REMARK    2  A    between atoms: C_1  and  C_7
REMARK                            x       y       z     vdW  Elec       q    Type
REMARK                         _______ _______ _______ _____ _____    ______ ____
ROOT
ATOM      1  C   UNL     1       2.037  -0.474   0.000  0.00  0.00    +0.000 C 
ENDROOT
BRANCH   1   2
ATOM      2  C   UNL     1       2.751  -0.062   0.000  0.00  0.00    +0.000 A 
ATOM      3  C   UNL     1       2.751   0.763   0.000  0.00  0.00    +0.000 A 
ATOM      4  C   UNL     1       3.466   1.176   0.000  0.00  0.00    +0.000 A 
ATOM      5  C   UNL     1       4.180   0.763   0.000  0.00  0.00    +0.000 A 
ATOM      6  C   UNL     1       4.180  -0.062   0.000  0.00  0.00    +0.000 A 
ATOM      7  C   UNL     1       3.466  -0.474   0.000  0.00  0.00    +0.000 A 
ENDBRANCH   1   2
BRANCH   1   8
ATOM      8  N   UNL     1       2.037  -1.299   0.000  0.00  0.00    +0.000 N 
ATOM      9  C   UNL     1       2.704  -1.784   0.000  0.00  0.00    +0.000 A 
ATOM     10  C   UNL     1       2.449  -2.569   0.000  0.00  0.00    +0.000 A 
ATOM     11  N   UNL     1       1.624  -2.569   0.000  0.00  0.00    +0.000 NA
ATOM     12  C   UNL     1       1.369  -1.784   0.000  0.00  0.00    +0.000 A 
ENDBRANCH   1   8
TORSDOF 2
