REMARK  Name = 
REMARK  6 active torsions:
REMARK  status: ('A' for Active; 'I' for Inactive)
REMARK    1  A    between atoms: O_2  and  C_22
REMARK    2  A    between atoms: O_2  and  C_26
REMARK    3  A    between atoms: O_6  and  C_25
REMARK    4  A    between atoms: O_6  and  C_29
REMARK    5  A    between atoms: C_17  and  C_26
REMARK    6  A    between atoms: C_30  and  C_33
REMARK                            x       y       z     vdW  Elec       q    Type
REMARK                         _______ _______ _______ _____ _____    ______ ____
ROOT
ATOM      1  O   UNL     1      28.582 -13.238   0.000  0.00  0.00    +0.000 OA
ENDROOT
BRANCH   1   6
ATOM      2  O   UNL     1      30.011 -11.588   0.000  0.00  0.00    +0.000 OA
ATOM      3  O   UNL     1      30.011 -14.063   0.000  0.00  0.00    +0.000 OA
ATOM      4  O   UNL     1      31.454 -14.092   0.000  0.00  0.00    +0.000 OA
ATOM      5  O   UNL     1      32.924 -11.568   0.000  0.00  0.00    +0.000 OA
ATOM      6  C   UNL     1      29.297 -12.825   0.000  0.00  0.00    +0.000 A 
ATOM      7  C   UNL     1      29.297 -12.001   0.000  0.00  0.00    +0.000 A 
ATOM      8  C   UNL     1      30.011 -13.238   0.000  0.00  0.00    +0.000 A 
ATOM      9  C   UNL     1      30.726 -12.825   0.000  0.00  0.00    +0.000 A 
ATOM     10  C   UNL     1      30.726 -12.001   0.000  0.00  0.00    +0.000 A 
ATOM     11  C   UNL     1      31.463 -13.267   0.000  0.00  0.00    +0.000 A 
ATOM     12  C   UNL     1      31.463 -11.559   0.000  0.00  0.00    +0.000 A 
ATOM     13  C   UNL     1      32.211 -12.843   0.000  0.00  0.00    +0.000 A 
ATOM     14  C   UNL     1      32.211 -11.983   0.000  0.00  0.00    +0.000 A 
BRANCH   7  17
ATOM     15  O   UNL     1      27.868  -9.525   0.000  0.00  0.00    +0.000 OA
ATOM     16  O   UNL     1      26.439 -10.351   0.000  0.00  0.00    +0.000 OA
ATOM     17  C   UNL     1      28.582 -11.588   0.000  0.00  0.00    +0.000 A 
ATOM     18  C   UNL     1      28.582 -10.763   0.000  0.00  0.00    +0.000 A 
ATOM     19  C   UNL     1      27.868 -12.001   0.000  0.00  0.00    +0.000 A 
ATOM     20  C   UNL     1      27.868 -10.351   0.000  0.00  0.00    +0.000 A 
ATOM     21  C   UNL     1      27.153 -11.588   0.000  0.00  0.00    +0.000 A 
ATOM     22  C   UNL     1      27.153 -10.763   0.000  0.00  0.00    +0.000 A 
ENDBRANCH   7  17
ENDBRANCH   1   6
BRANCH   1  31
ATOM     23  O   UNL     1      29.297 -14.476   0.000  0.00  0.00    +0.000 OA
ATOM     24  O   UNL     1      28.582 -16.538   0.000  0.00  0.00    +0.000 OA
ATOM     25  O   UNL     1      27.153 -15.713   0.000  0.00  0.00    +0.000 OA
ATOM     26  O   UNL     1      27.153 -14.063   0.000  0.00  0.00    +0.000 OA
ATOM     27  C   UNL     1      29.297 -15.301   0.000  0.00  0.00    +0.000 C 
ATOM     28  C   UNL     1      28.582 -15.713   0.000  0.00  0.00    +0.000 C 
ATOM     29  C   UNL     1      27.868 -15.301   0.000  0.00  0.00    +0.000 C 
ATOM     30  C   UNL     1      27.868 -14.476   0.000  0.00  0.00    +0.000 C 
ATOM     31  C   UNL     1      28.582 -14.063   0.000  0.00  0.00    +0.000 C 
BRANCH  27  32
ATOM     32  C   UNL     1      30.011 -15.713   0.000  0.00  0.00    +0.000 C 
BRANCH  32  33
ATOM     33  O   UNL     1      30.011 -16.538   0.000  0.00  0.00    +0.000 OA
BRANCH  33  39
ATOM     34  O   UNL     1      31.440 -16.538   0.000  0.00  0.00    +0.000 OA
ATOM     35  O   UNL     1      30.011 -18.188   0.000  0.00  0.00    +0.000 OA
ATOM     36  O   UNL     1      31.440 -19.013   0.000  0.00  0.00    +0.000 OA
ATOM     37  O   UNL     1      32.869 -18.188   0.000  0.00  0.00    +0.000 OA
ATOM     38  C   UNL     1      30.726 -17.776   0.000  0.00  0.00    +0.000 C 
ATOM     39  C   UNL     1      30.726 -16.951   0.000  0.00  0.00    +0.000 C 
ATOM     40  C   UNL     1      31.440 -18.188   0.000  0.00  0.00    +0.000 C 
ATOM     41  C   UNL     1      32.155 -17.776   0.000  0.00  0.00    +0.000 C 
ATOM     42  C   UNL     1      32.155 -16.951   0.000  0.00  0.00    +0.000 C 
ATOM     43  C   UNL     1      32.869 -16.538   0.000  0.00  0.00    +0.000 C 
ENDBRANCH  33  39
ENDBRANCH  32  33
ENDBRANCH  27  32
ENDBRANCH   1  31
TORSDOF 6
