REMARK  Name = 
REMARK  82 active torsions:
REMARK  status: ('A' for Active; 'I' for Inactive)
REMARK    1  A    between atoms: NE_4  and  CD_5
REMARK    2  A    between atoms: CD_5  and  CG_6
REMARK    3  A    between atoms: CG_6  and  CB_7
REMARK    4  A    between atoms: CB_7  and  CA_8
REMARK    5  A    between atoms: CA_20  and  CB_21
REMARK    6  A    between atoms: CB_21  and  CG_22
REMARK    7  A    between atoms: CA_31  and  N_166
REMARK    8  A    between atoms: CA_36  and  C_115
REMARK    9  A    between atoms: CA_44  and  CB_45
REMARK   10  A    between atoms: CB_45  and  CG_46
REMARK   11  A    between atoms: CA_56  and  CB_57
REMARK   12  A    between atoms: CA_62  and  CB_63
REMARK   13  A    between atoms: CB_63  and  CG_64
REMARK   14  A    between atoms: CG_64  and  CD_65
REMARK   15  A    between atoms: CA_80  and  CB_111
REMARK   16  A    between atoms: CA_84  and  CB_85
REMARK   17  A    between atoms: CB_85  and  CG_86
REMARK   18  A    between atoms: CG_86  and  CD_87
REMARK   19  A    between atoms: CD_87  and  NE_88
REMARK   20  A    between atoms: CA_95  and  CB_96
REMARK   21  A    between atoms: CB_96  and  CG_97
REMARK   22  A    between atoms: CA_103  and  CB_104
REMARK   23  A    between atoms: CB_104  and  CG_105
REMARK   24  A    between atoms: CG_105  and  SD_106
REMARK   25  A    between atoms: CB_111  and  CG1_113
REMARK   26  A    between atoms: N_117  and  CA_118
REMARK   27  A    between atoms: CA_118  and  CB_119
REMARK   28  A    between atoms: CA_118  and  C_123
REMARK   29  A    between atoms: CB_119  and  CG_120
REMARK   30  A    between atoms: N_125  and  CA_126
REMARK   31  A    between atoms: CA_126  and  CB_127
REMARK   32  A    between atoms: CA_126  and  C_129
REMARK   33  A    between atoms: N_131  and  CA_132
REMARK   34  A    between atoms: CA_132  and  CB_133
REMARK   35  A    between atoms: CA_132  and  C_140
REMARK   36  A    between atoms: CB_133  and  CG_134
REMARK   37  A    between atoms: N_142  and  CA_143
REMARK   38  A    between atoms: CA_143  and  CB_144
REMARK   39  A    between atoms: CA_143  and  C_151
REMARK   40  A    between atoms: CB_144  and  CG_145
REMARK   41  A    between atoms: CG_145  and  CD_146
REMARK   42  A    between atoms: CD_146  and  NE_147
REMARK   43  A    between atoms: N_153  and  CA_154
REMARK   44  A    between atoms: CA_154  and  CB_155
REMARK   45  A    between atoms: CA_154  and  C_163
REMARK   46  A    between atoms: CB_155  and  CG_156
REMARK   47  A    between atoms: C_167  and  CA_169
REMARK   48  A    between atoms: CA_169  and  CB_170
REMARK   49  A    between atoms: CA_169  and  N_172
REMARK   50  A    between atoms: C_173  and  CA_175
REMARK   51  A    between atoms: CA_175  and  CB_176
REMARK   52  A    between atoms: CA_175  and  N_178
REMARK   53  A    between atoms: C_179  and  CA_181
REMARK   54  A    between atoms: CA_181  and  CB_182
REMARK   55  A    between atoms: CA_181  and  N_189
REMARK   56  A    between atoms: CB_182  and  CG_183
REMARK   57  A    between atoms: CG_183  and  CD_184
REMARK   58  A    between atoms: CD_184  and  NE_185
REMARK   59  A    between atoms: C_190  and  CA_192
REMARK   60  A    between atoms: CA_192  and  CB_193
REMARK   61  A    between atoms: CA_192  and  N_200
REMARK   62  A    between atoms: CB_193  and  CG_194
REMARK   63  A    between atoms: CG_194  and  CD_195
REMARK   64  A    between atoms: CD_195  and  NE_196
REMARK   65  A    between atoms: C_201  and  CA_203
REMARK   66  A    between atoms: CA_203  and  CB_204
REMARK   67  A    between atoms: CA_203  and  N_208
REMARK   68  A    between atoms: CB_204  and  CG_205
REMARK   69  A    between atoms: C_209  and  CA_211
REMARK   70  A    between atoms: CA_211  and  CB_212
REMARK   71  A    between atoms: CA_211  and  N_214
REMARK   72  A    between atoms: C_215  and  CA_217
REMARK   73  A    between atoms: CA_217  and  CB_218
REMARK   74  A    between atoms: CA_217  and  N_225
REMARK   75  A    between atoms: CB_218  and  CG_219
REMARK   76  A    between atoms: CG_219  and  CD_220
REMARK   77  A    between atoms: CD_220  and  NE_221
REMARK   78  A    between atoms: C_226  and  CA_228
REMARK   79  A    between atoms: C_233  and  CA_235
REMARK   80  A    between atoms: CA_235  and  N_237
REMARK   81  A    between atoms: C_238  and  CA_240
REMARK   82  A    between atoms: CA_240  and  CB_242
REMARK                            x       y       z     vdW  Elec       q    Type
REMARK                         _______ _______ _______ _____ _____    ______ ____
ROOT
ATOM      1  CA  ARG A  15       6.234  10.107   0.000  0.00  0.00    +0.000 C 
ATOM      2  N   ARG A  15       6.957  10.485   0.000  0.00  0.00    +0.000 NA
ATOM      3  C   GLY A  14       7.540   9.914   0.000  0.00  0.00    +0.000 C 
ATOM      4  O   GLY A  14       8.326  10.193   0.000  0.00  0.00    +0.000 OA
ATOM      5  CA  GLY A  14       7.177   9.184   0.000  0.00  0.00    +0.000 C 
ATOM      6  N   GLY A  14       7.380   8.314   0.000  0.00  0.00    +0.000 NA
ATOM      7  C   GLY A  13       6.809   7.731   0.000  0.00  0.00    +0.000 C 
ATOM      8  O   GLY A  13       7.244   7.118   0.000  0.00  0.00    +0.000 OA
ATOM      9  CA  GLY A  13       7.028   6.946   0.000  0.00  0.00    +0.000 C 
ATOM     10  N   GLY A  13       6.457   6.362   0.000  0.00  0.00    +0.000 NA
ATOM     11  C   PHE A  12       6.677   5.577   0.000  0.00  0.00    +0.000 C 
ATOM     12  O   PHE A  12       7.268   4.858   0.000  0.00  0.00    +0.000 OA
ATOM     13  CA  PHE A  12       6.106   4.994   0.000  0.00  0.00    +0.000 C 
ATOM     14  N   PHE A  12       6.325   4.208   0.000  0.00  0.00    +0.000 NA
ATOM     15  C   CYS A  11       5.754   3.625   0.000  0.00  0.00    +0.000 C 
ATOM     16  O   CYS A  11       5.044   3.188   0.000  0.00  0.00    +0.000 OA
ATOM     17  CA  CYS A  11       5.974   2.839   0.000  0.00  0.00    +0.000 C 
ATOM     18  CB  CYS A  11       5.403   2.256   0.000  0.00  0.00    +0.000 C 
ATOM     19  SG  CYS A  11       5.622   1.470   0.000  0.00  0.00    +0.000 S 
ATOM     20  SG  CYS A  27       5.052   0.888   0.000  0.00  0.00    +0.000 S 
ATOM     21  CB  CYS A  27       5.271   0.102   0.000  0.00  0.00    +0.000 C 
ATOM     22  CA  CYS A  27       4.700  -0.481   0.000  0.00  0.00    +0.000 C 
ATOM     23  N   CYS A  27       4.920  -1.267   0.000  0.00  0.00    +0.000 NA
ATOM     24  C   GLY A  26       4.349  -1.850   0.000  0.00  0.00    +0.000 C 
ATOM     25  O   GLY A  26       3.668  -1.411   0.000  0.00  0.00    +0.000 OA
ATOM     26  CA  GLY A  26       4.568  -2.636   0.000  0.00  0.00    +0.000 C 
ATOM     27  N   GLY A  26       3.997  -3.218   0.000  0.00  0.00    +0.000 NA
ATOM     28  C   LEU A  25       4.216  -4.004   0.000  0.00  0.00    +0.000 C 
ATOM     29  O   LEU A  25       5.038  -3.838   0.000  0.00  0.00    +0.000 OA
ATOM     30  CA  LEU A  25       3.646  -4.587   0.000  0.00  0.00    +0.000 C 
ATOM     31  N   LEU A  25       3.865  -5.373   0.000  0.00  0.00    +0.000 NA
ATOM     32  C   GLY A  24       3.294  -5.956   0.000  0.00  0.00    +0.000 C 
ATOM     33  O   GLY A  24       3.172  -6.807   0.000  0.00  0.00    +0.000 OA
ATOM     34  CA  GLY A  24       2.504  -5.753   0.000  0.00  0.00    +0.000 C 
ATOM     35  N   GLY A  24       1.933  -6.336   0.000  0.00  0.00    +0.000 NA
ATOM     36  C   SER A  23       1.143  -6.133   0.000  0.00  0.00    +0.000 C 
ATOM     37  O   SER A  23       0.694  -6.831   0.000  0.00  0.00    +0.000 OA
ATOM     38  CA  SER A  23       0.924  -5.347   0.000  0.00  0.00    +0.000 C 
ATOM     39  N   SER A  23       1.494  -4.764   0.000  0.00  0.00    +0.000 NA
ATOM     40  C   GLN A  22       1.275  -3.978   0.000  0.00  0.00    +0.000 C 
ATOM     41  O   GLN A  22       0.416  -4.063   0.000  0.00  0.00    +0.000 OA
ATOM     42  CA  GLN A  22       1.846  -3.396   0.000  0.00  0.00    +0.000 C 
ATOM     43  N   GLN A  22       1.627  -2.610   0.000  0.00  0.00    +0.000 NA
ATOM     44  C   ALA A  21       2.197  -2.027   0.000  0.00  0.00    +0.000 C 
ATOM     45  O   ALA A  21       2.881  -2.525   0.000  0.00  0.00    +0.000 OA
ATOM     46  CA  ALA A  21       1.978  -1.241   0.000  0.00  0.00    +0.000 C 
ATOM     47  CB  ALA A  21       1.209  -0.926   0.000  0.00  0.00    +0.000 C 
ATOM     48  N   ALA A  21       2.549  -0.658   0.000  0.00  0.00    +0.000 NA
ATOM     49  C   GLY A  20       2.329   0.128   0.000  0.00  0.00    +0.000 C 
ATOM     50  O   GLY A  20       1.551   0.477   0.000  0.00  0.00    +0.000 OA
ATOM     51  CA  GLY A  20       2.900   0.711   0.000  0.00  0.00    +0.000 C 
ATOM     52  N   GLY A  20       2.681   1.496   0.000  0.00  0.00    +0.000 NA
ATOM     53  C   ILE A  19       3.252   2.079   0.000  0.00  0.00    +0.000 C 
ATOM     54  O   ILE A  19       4.035   1.871   0.000  0.00  0.00    +0.000 OA
ATOM     55  CA  ILE A  19       3.032   2.865   0.000  0.00  0.00    +0.000 C 
ATOM     56  N   ILE A  19       3.603   3.448   0.000  0.00  0.00    +0.000 NA
ATOM     57  C   ARG A  18       3.384   4.234   0.000  0.00  0.00    +0.000 C 
ATOM     58  O   ARG A  18       2.717   4.714   0.000  0.00  0.00    +0.000 OA
ATOM     59  CA  ARG A  18       3.955   4.817   0.000  0.00  0.00    +0.000 C 
ATOM     60  N   ARG A  18       3.735   5.603   0.000  0.00  0.00    +0.000 NA
ATOM     61  C   ASP A  17       4.306   6.186   0.000  0.00  0.00    +0.000 C 
ATOM     62  O   ASP A  17       3.822   6.874   0.000  0.00  0.00    +0.000 OA
ATOM     63  CA  ASP A  17       4.087   6.971   0.000  0.00  0.00    +0.000 C 
ATOM     64  N   ASP A  17       4.658   7.554   0.000  0.00  0.00    +0.000 NA
ATOM     65  C   MET A  16       4.438   8.340   0.000  0.00  0.00    +0.000 C 
ATOM     66  O   MET A  16       3.567   8.400   0.000  0.00  0.00    +0.000 OA
ATOM     67  CA  MET A  16       5.009   8.923   0.000  0.00  0.00    +0.000 C 
ATOM     68  N   MET A  16       4.790   9.709   0.000  0.00  0.00    +0.000 NA
ATOM     69  C   ARG A  15       5.360  10.292   0.000  0.00  0.00    +0.000 C 
ATOM     70  O   ARG A  15       5.172  11.136   0.000  0.00  0.00    +0.000 OA
ENDROOT
BRANCH  22  71
ATOM     71  C   CYS A  27       5.575  -0.687   0.000  0.00  0.00    +0.000 C 
ATOM     72  O   CYS A  27       5.866  -1.446   0.000  0.00  0.00    +0.000 OA
ATOM     73  N   ASN A  28       6.305  -0.222   0.000  0.00  0.00    +0.000 NA
BRANCH  73  74
ATOM     74  CA  ASN A  28       7.111  -0.393   0.000  0.00  0.00    +0.000 C 
BRANCH  74  75
ATOM     75  C   ASN A  28       7.164  -1.239   0.000  0.00  0.00    +0.000 C 
ATOM     76  O   ASN A  28       6.752  -1.994   0.000  0.00  0.00    +0.000 OA
ATOM     77  N   SER A  29       7.935  -1.591   0.000  0.00  0.00    +0.000 NA
BRANCH  77  78
ATOM     78  CA  SER A  29       8.117  -2.386   0.000  0.00  0.00    +0.000 C 
BRANCH  78  79
ATOM     79  C   SER A  29       8.940  -2.141   0.000  0.00  0.00    +0.000 C 
ATOM     80  O   SER A  29       9.529  -1.563   0.000  0.00  0.00    +0.000 OA
ATOM     81  N   PHE A  30       9.150  -2.966   0.000  0.00  0.00    +0.000 NA
BRANCH  81  82
ATOM     82  CA  PHE A  30       9.902  -3.279   0.000  0.00  0.00    +0.000 C 
BRANCH  82  83
ATOM     83  C   PHE A  30       9.839  -4.135   0.000  0.00  0.00    +0.000 C 
ATOM     84  O   PHE A  30       9.077  -4.453   0.000  0.00  0.00    +0.000 OA
ATOM     85  N   ARG A  31      10.583  -4.571   0.000  0.00  0.00    +0.000 NA
BRANCH  85  86
ATOM     86  CA  ARG A  31      11.100  -5.214   0.000  0.00  0.00    +0.000 C 
BRANCH  86  87
ATOM     87  C   ARG A  31      10.457  -5.772   0.000  0.00  0.00    +0.000 C 
ATOM     88  O   ARG A  31       9.609  -5.644   0.000  0.00  0.00    +0.000 OA
ATOM     89  N   TYR A  32      10.692  -6.595   0.000  0.00  0.00    +0.000 NA
BRANCH  89  90
ATOM     90  CA  TYR A  32      10.213  -7.259   0.000  0.00  0.00    +0.000 C 
BRANCH  90  91
ATOM     91  C   TYR A  32      10.455  -8.077   0.000  0.00  0.00    +0.000 C 
ATOM     92  O   TYR A  32      11.219  -8.386   0.000  0.00  0.00    +0.000 OA
ATOM     93  OXT TYR A  32      10.024  -8.812   0.000  0.00  0.00    +0.000 OA
ENDBRANCH  90  91
BRANCH  90  94
ATOM     94  CB  TYR A  32       9.458  -6.886   0.000  0.00  0.00    +0.000 C 
BRANCH  94  95
ATOM     95  CG  TYR A  32       8.826  -7.376   0.000  0.00  0.00    +0.000 A 
ATOM     96  CD1 TYR A  32       8.937  -8.185   0.000  0.00  0.00    +0.000 A 
ATOM     97  CE1 TYR A  32       8.292  -8.685   0.000  0.00  0.00    +0.000 A 
ATOM     98  CZ  TYR A  32       7.537  -8.376   0.000  0.00  0.00    +0.000 A 
ATOM     99  OH  TYR A  32       6.892  -8.876   0.000  0.00  0.00    +0.000 OA
ATOM    100  CE2 TYR A  32       7.426  -7.568   0.000  0.00  0.00    +0.000 A 
ATOM    101  CD2 TYR A  32       8.070  -7.068   0.000  0.00  0.00    +0.000 A 
ENDBRANCH  94  95
ENDBRANCH  90  94
ENDBRANCH  89  90
ENDBRANCH  86  87
BRANCH  86 102
ATOM    102  CB  ARG A  31      11.953  -5.304   0.000  0.00  0.00    +0.000 C 
BRANCH 102 103
ATOM    103  CG  ARG A  31      12.239  -6.074   0.000  0.00  0.00    +0.000 C 
BRANCH 103 104
ATOM    104  CD  ARG A  31      13.020  -6.334   0.000  0.00  0.00    +0.000 C 
BRANCH 104 105
ATOM    105  NE  ARG A  31      13.292  -7.110   0.000  0.00  0.00    +0.000 NA
ATOM    106  CZ  ARG A  31      14.088  -7.319   0.000  0.00  0.00    +0.000 C 
ATOM    107  NH1 ARG A  31      14.712  -6.787   0.000  0.00  0.00    +0.000 NA
ATOM    108  NH2 ARG A  31      14.326  -8.133   0.000  0.00  0.00    +0.000 NA
ENDBRANCH 104 105
ENDBRANCH 103 104
ENDBRANCH 102 103
ENDBRANCH  86 102
ENDBRANCH  85  86
ENDBRANCH  82  83
BRANCH  82 109
ATOM    109  CB  PHE A  30      10.457  -2.636   0.000  0.00  0.00    +0.000 C 
BRANCH 109 110
ATOM    110  CG  PHE A  30      11.241  -2.890   0.000  0.00  0.00    +0.000 A 
ATOM    111  CD1 PHE A  30      11.812  -2.307   0.000  0.00  0.00    +0.000 A 
ATOM    112  CE1 PHE A  30      12.602  -2.510   0.000  0.00  0.00    +0.000 A 
ATOM    113  CZ  PHE A  30      12.822  -3.296   0.000  0.00  0.00    +0.000 A 
ATOM    114  CE2 PHE A  30      12.251  -3.879   0.000  0.00  0.00    +0.000 A 
ATOM    115  CD2 PHE A  30      11.461  -3.676   0.000  0.00  0.00    +0.000 A 
ENDBRANCH 109 110
ENDBRANCH  82 109
ENDBRANCH  81  82
ENDBRANCH  78  79
BRANCH  78 116
ATOM    116  CB  SER A  29       7.556  -3.031   0.000  0.00  0.00    +0.000 C 
ATOM    117  OG  SER A  29       7.487  -3.848   0.000  0.00  0.00    +0.000 OA
ENDBRANCH  78 116
ENDBRANCH  77  78
ENDBRANCH  74  75
BRANCH  74 118
ATOM    118  CB  ASN A  28       7.572   0.319   0.000  0.00  0.00    +0.000 C 
BRANCH 118 119
ATOM    119  CG  ASN A  28       8.392   0.277   0.000  0.00  0.00    +0.000 C 
ATOM    120  ND2 ASN A  28       9.203   0.435   0.000  0.00  0.00    +0.000 NA
ATOM    121  OD1 ASN A  28       9.124  -0.163   0.000  0.00  0.00    +0.000 OA
ENDBRANCH 118 119
ENDBRANCH  74 118
ENDBRANCH  73  74
ENDBRANCH  22  71
BRANCH  17 122
ATOM    122  N   CYS A  11       6.719   2.434   0.000  0.00  0.00    +0.000 NA
ATOM    123  C   SER A  10       7.500   2.729   0.000  0.00  0.00    +0.000 C 
ATOM    124  O   SER A  10       7.578   3.543   0.000  0.00  0.00    +0.000 OA
BRANCH 123 125
ATOM    125  CA  SER A  10       8.324   2.656   0.000  0.00  0.00    +0.000 C 
BRANCH 125 126
ATOM    126  N   SER A  10       8.911   3.264   0.000  0.00  0.00    +0.000 NA
ATOM    127  C   SER A   9       9.760   3.217   0.000  0.00  0.00    +0.000 C 
ATOM    128  O   SER A   9      10.034   2.414   0.000  0.00  0.00    +0.000 OA
BRANCH 127 129
ATOM    129  CA  SER A   9      10.076   4.012   0.000  0.00  0.00    +0.000 C 
BRANCH 129 130
ATOM    130  N   SER A   9      10.920   3.950   0.000  0.00  0.00    +0.000 NA
ATOM    131  C   ARG A   8      11.468   4.573   0.000  0.00  0.00    +0.000 C 
ATOM    132  O   ARG A   8      11.440   5.431   0.000  0.00  0.00    +0.000 OA
BRANCH 131 133
ATOM    133  CA  ARG A   8      12.179   4.116   0.000  0.00  0.00    +0.000 C 
BRANCH 133 134
ATOM    134  N   ARG A   8      12.811   4.684   0.000  0.00  0.00    +0.000 NA
ATOM    135  C   ARG A   7      13.603   4.449   0.000  0.00  0.00    +0.000 C 
ATOM    136  O   ARG A   7      13.914   3.689   0.000  0.00  0.00    +0.000 OA
BRANCH 135 137
ATOM    137  CA  ARG A   7      13.985   5.214   0.000  0.00  0.00    +0.000 C 
BRANCH 137 138
ATOM    138  N   ARG A   7      14.840   5.284   0.000  0.00  0.00    +0.000 NA
ATOM    139  C   LEU A   6      15.596   5.625   0.000  0.00  0.00    +0.000 C 
ATOM    140  O   LEU A   6      15.803   6.418   0.000  0.00  0.00    +0.000 OA
BRANCH 139 141
ATOM    141  CA  LEU A   6      16.313   5.163   0.000  0.00  0.00    +0.000 C 
BRANCH 141 142
ATOM    142  N   LEU A   6      17.002   5.660   0.000  0.00  0.00    +0.000 NA
ATOM    143  C   SER A   5      17.825   5.598   0.000  0.00  0.00    +0.000 C 
ATOM    144  O   SER A   5      18.046   4.793   0.000  0.00  0.00    +0.000 OA
BRANCH 143 145
ATOM    145  CA  SER A   5      18.091   6.397   0.000  0.00  0.00    +0.000 C 
BRANCH 145 146
ATOM    146  N   SER A   5      18.931   6.276   0.000  0.00  0.00    +0.000 NA
ATOM    147  C   ARG A   4      19.549   6.857   0.000  0.00  0.00    +0.000 C 
ATOM    148  O   ARG A   4      19.466   7.699   0.000  0.00  0.00    +0.000 OA
BRANCH 147 149
ATOM    149  CA  ARG A   4      20.306   6.472   0.000  0.00  0.00    +0.000 C 
BRANCH 149 150
ATOM    150  N   ARG A   4      20.929   7.062   0.000  0.00  0.00    +0.000 NA
ATOM    151  C   PRO A   3      21.707   6.792   0.000  0.00  0.00    +0.000 C 
ATOM    152  O   PRO A   3      21.931   6.005   0.000  0.00  0.00    +0.000 OA
BRANCH 151 153
ATOM    153  CA  PRO A   3      22.307   7.399   0.000  0.00  0.00    +0.000 C 
ATOM    154  CB  PRO A   3      22.171   8.204   0.000  0.00  0.00    +0.000 C 
ATOM    155  CG  PRO A   3      22.894   8.582   0.000  0.00  0.00    +0.000 C 
ATOM    156  CD  PRO A   3      23.477   8.011   0.000  0.00  0.00    +0.000 C 
ATOM    157  N   PRO A   3      23.114   7.280   0.000  0.00  0.00    +0.000 N 
ATOM    158  C   ALA A   2      23.458   6.473   0.000  0.00  0.00    +0.000 C 
ATOM    159  O   ALA A   2      23.534   5.641   0.000  0.00  0.00    +0.000 OA
BRANCH 158 160
ATOM    160  CA  ALA A   2      24.275   6.262   0.000  0.00  0.00    +0.000 C 
ATOM    161  CB  ALA A   2      24.622   5.488   0.000  0.00  0.00    +0.000 C 
BRANCH 160 162
ATOM    162  N   ALA A   2      24.880   6.861   0.000  0.00  0.00    +0.000 NA
ATOM    163  C   THR A   1      25.665   7.136   0.000  0.00  0.00    +0.000 C 
ATOM    164  O   THR A   1      26.100   6.430   0.000  0.00  0.00    +0.000 OA
BRANCH 163 165
ATOM    165  CA  THR A   1      26.056   7.909   0.000  0.00  0.00    +0.000 C 
ATOM    166  N   THR A   1      25.835   8.713   0.000  0.00  0.00    +0.000 NA
BRANCH 165 167
ATOM    167  CB  THR A   1      26.914   7.933   0.000  0.00  0.00    +0.000 C 
ATOM    168  CG2 THR A   1      27.451   8.582   0.000  0.00  0.00    +0.000 C 
ATOM    169  OG1 THR A   1      27.539   7.362   0.000  0.00  0.00    +0.000 OA
ENDBRANCH 165 167
ENDBRANCH 163 165
ENDBRANCH 160 162
ENDBRANCH 158 160
ENDBRANCH 151 153
ENDBRANCH 149 150
BRANCH 149 170
ATOM    170  CB  ARG A   4      20.541   5.676   0.000  0.00  0.00    +0.000 C 
BRANCH 170 171
ATOM    171  CG  ARG A   4      20.172   4.921   0.000  0.00  0.00    +0.000 C 
BRANCH 171 172
ATOM    172  CD  ARG A   4      20.266   4.115   0.000  0.00  0.00    +0.000 C 
BRANCH 172 173
ATOM    173  NE  ARG A   4      19.676   3.556   0.000  0.00  0.00    +0.000 NA
ATOM    174  CZ  ARG A   4      19.897   2.729   0.000  0.00  0.00    +0.000 C 
ATOM    175  NH1 ARG A   4      20.673   2.440   0.000  0.00  0.00    +0.000 NA
ATOM    176  NH2 ARG A   4      19.310   2.109   0.000  0.00  0.00    +0.000 NA
ENDBRANCH 172 173
ENDBRANCH 171 172
ENDBRANCH 170 171
ENDBRANCH 149 170
ENDBRANCH 147 149
ENDBRANCH 145 146
BRANCH 145 177
ATOM    177  CB  SER A   5      17.768   7.166   0.000  0.00  0.00    +0.000 C 
ATOM    178  OG  SER A   5      17.212   7.763   0.000  0.00  0.00    +0.000 OA
ENDBRANCH 145 177
ENDBRANCH 143 145
ENDBRANCH 141 142
BRANCH 141 179
ATOM    179  CB  LEU A   6      16.375   4.328   0.000  0.00  0.00    +0.000 C 
BRANCH 179 180
ATOM    180  CG  LEU A   6      16.131   3.531   0.000  0.00  0.00    +0.000 C 
ATOM    181  CD1 LEU A   6      16.406   2.749   0.000  0.00  0.00    +0.000 C 
ATOM    182  CD2 LEU A   6      15.333   3.322   0.000  0.00  0.00    +0.000 C 
ENDBRANCH 179 180
ENDBRANCH 141 179
ENDBRANCH 139 141
ENDBRANCH 137 138
BRANCH 137 183
ATOM    183  CB  ARG A   7      13.659   5.970   0.000  0.00  0.00    +0.000 C 
BRANCH 183 184
ATOM    184  CG  ARG A   7      13.888   6.746   0.000  0.00  0.00    +0.000 C 
BRANCH 184 185
ATOM    185  CD  ARG A   7      14.035   7.553   0.000  0.00  0.00    +0.000 C 
BRANCH 185 186
ATOM    186  NE  ARG A   7      14.771   7.989   0.000  0.00  0.00    +0.000 NA
ATOM    187  CZ  ARG A   7      14.628   8.838   0.000  0.00  0.00    +0.000 C 
ATOM    188  NH1 ARG A   7      13.873   9.176   0.000  0.00  0.00    +0.000 NA
ATOM    189  NH2 ARG A   7      15.220   9.451   0.000  0.00  0.00    +0.000 NA
ENDBRANCH 185 186
ENDBRANCH 184 185
ENDBRANCH 183 184
ENDBRANCH 137 183
ENDBRANCH 135 137
ENDBRANCH 133 134
BRANCH 133 190
ATOM    190  CB  ARG A   8      12.439   3.342   0.000  0.00  0.00    +0.000 C 
BRANCH 190 191
ATOM    191  CG  ARG A   8      12.010   2.625   0.000  0.00  0.00    +0.000 C 
BRANCH 191 192
ATOM    192  CD  ARG A   8      12.129   1.819   0.000  0.00  0.00    +0.000 C 
BRANCH 192 193
ATOM    193  NE  ARG A   8      11.507   1.290   0.000  0.00  0.00    +0.000 NA
ATOM    194  CZ  ARG A   8      11.770   0.476   0.000  0.00  0.00    +0.000 C 
ATOM    195  NH1 ARG A   8      12.532   0.158   0.000  0.00  0.00    +0.000 NA
ATOM    196  NH2 ARG A   8      11.204  -0.156   0.000  0.00  0.00    +0.000 NA
ENDBRANCH 192 193
ENDBRANCH 191 192
ENDBRANCH 190 191
ENDBRANCH 133 190
ENDBRANCH 131 133
ENDBRANCH 129 130
BRANCH 129 197
ATOM    197  CB  SER A   9      10.228   4.834   0.000  0.00  0.00    +0.000 C 
ATOM    198  OG  SER A   9       9.470   4.538   0.000  0.00  0.00    +0.000 OA
ENDBRANCH 129 197
ENDBRANCH 127 129
ENDBRANCH 125 126
BRANCH 125 199
ATOM    199  CB  SER A  10       8.576   1.883   0.000  0.00  0.00    +0.000 C 
ATOM    200  OG  SER A  10       7.816   1.508   0.000  0.00  0.00    +0.000 OA
ENDBRANCH 125 199
ENDBRANCH 123 125
ENDBRANCH  17 122
BRANCH  38 201
ATOM    201  CB  SER A  23       0.085  -5.389   0.000  0.00  0.00    +0.000 C 
ATOM    202  OG  SER A  23      -0.740  -5.606   0.000  0.00  0.00    +0.000 OA
ENDBRANCH  38 201
BRANCH  55 203
ATOM    203  CB  ILE A  19       2.150   3.011   0.000  0.00  0.00    +0.000 C 
ATOM    204  CG2 ILE A  19       1.483   2.508   0.000  0.00  0.00    +0.000 C 
BRANCH 203 205
ATOM    205  CG1 ILE A  19       1.540   3.622   0.000  0.00  0.00    +0.000 C 
ATOM    206  CD1 ILE A  19       0.898   4.138   0.000  0.00  0.00    +0.000 C 
ENDBRANCH 203 205
ENDBRANCH  55 203
BRANCH  30 207
ATOM    207  CB  LEU A  25       4.474  -4.859   0.000  0.00  0.00    +0.000 C 
BRANCH 207 208
ATOM    208  CG  LEU A  25       5.053  -5.487   0.000  0.00  0.00    +0.000 C 
ATOM    209  CD1 LEU A  25       5.734  -5.957   0.000  0.00  0.00    +0.000 C 
ATOM    210  CD2 LEU A  25       4.757  -6.284   0.000  0.00  0.00    +0.000 C 
ENDBRANCH 207 208
ENDBRANCH  30 207
BRANCH  13 211
ATOM    211  CB  PHE A  12       6.797   4.706   0.000  0.00  0.00    +0.000 C 
BRANCH 211 212
ATOM    212  CG  PHE A  12       7.467   5.374   0.000  0.00  0.00    +0.000 A 
ATOM    213  CD1 PHE A  12       7.248   6.160   0.000  0.00  0.00    +0.000 A 
ATOM    214  CE1 PHE A  12       7.819   6.742   0.000  0.00  0.00    +0.000 A 
ATOM    215  CZ  PHE A  12       8.609   6.540   0.000  0.00  0.00    +0.000 A 
ATOM    216  CE2 PHE A  12       8.828   5.754   0.000  0.00  0.00    +0.000 A 
ATOM    217  CD2 PHE A  12       8.257   5.171   0.000  0.00  0.00    +0.000 A 
ENDBRANCH 211 212
ENDBRANCH  13 211
BRANCH   1 218
ATOM    218  CB  ARG A  15       6.351   9.336   0.000  0.00  0.00    +0.000 C 
BRANCH 218 219
ATOM    219  CG  ARG A  15       7.002   8.758   0.000  0.00  0.00    +0.000 C 
BRANCH 219 220
ATOM    220  CD  ARG A  15       7.910   8.700   0.000  0.00  0.00    +0.000 C 
BRANCH 220 224
ATOM    221  NH1 ARG A  15       9.994   8.939   0.000  0.00  0.00    +0.000 NA
ATOM    222  CZ  ARG A  15       9.599   8.225   0.000  0.00  0.00    +0.000 C 
ATOM    223  NH2 ARG A  15      10.020   7.526   0.000  0.00  0.00    +0.000 NA
ATOM    224  NE  ARG A  15       8.698   8.209   0.000  0.00  0.00    +0.000 NA
ENDBRANCH 220 224
ENDBRANCH 219 220
ENDBRANCH 218 219
ENDBRANCH   1 218
BRANCH  67 225
ATOM    225  CB  MET A  16       4.193   9.239   0.000  0.00  0.00    +0.000 C 
BRANCH 225 226
ATOM    226  CG  MET A  16       3.531   9.800   0.000  0.00  0.00    +0.000 C 
BRANCH 226 227
ATOM    227  SD  MET A  16       2.917  10.364   0.000  0.00  0.00    +0.000 S 
ATOM    228  CE  MET A  16       2.690  11.137   0.000  0.00  0.00    +0.000 C 
ENDBRANCH 226 227
ENDBRANCH 225 226
ENDBRANCH  67 225
BRANCH  63 229
ATOM    229  CB  ASP A  17       3.196   7.066   0.000  0.00  0.00    +0.000 C 
BRANCH 229 230
ATOM    230  CG  ASP A  17       2.358   6.851   0.000  0.00  0.00    +0.000 C 
ATOM    231  OD1 ASP A  17       1.868   6.207   0.000  0.00  0.00    +0.000 OA
ATOM    232  OD2 ASP A  17       1.511   6.821   0.000  0.00  0.00    +0.000 OA
ENDBRANCH 229 230
ENDBRANCH  63 229
BRANCH  42 233
ATOM    233  CB  GLN A  22       1.021  -3.116   0.000  0.00  0.00    +0.000 C 
BRANCH 233 234
ATOM    234  CG  GLN A  22       0.331  -2.595   0.000  0.00  0.00    +0.000 C 
BRANCH 234 235
ATOM    235  CD  GLN A  22      -0.361  -2.123   0.000  0.00  0.00    +0.000 C 
ATOM    236  NE2 GLN A  22      -1.038  -2.582   0.000  0.00  0.00    +0.000 NA
ATOM    237  OE1 GLN A  22      -0.620  -1.318   0.000  0.00  0.00    +0.000 OA
ENDBRANCH 234 235
ENDBRANCH 233 234
ENDBRANCH  42 233
BRANCH  59 238
ATOM    238  CB  ARG A  18       4.538   4.278   0.000  0.00  0.00    +0.000 C 
BRANCH 238 239
ATOM    239  CG  ARG A  18       4.846   5.021   0.000  0.00  0.00    +0.000 C 
BRANCH 239 240
ATOM    240  CD  ARG A  18       5.238   5.758   0.000  0.00  0.00    +0.000 C 
BRANCH 240 241
ATOM    241  NE  ARG A  18       5.416   6.507   0.000  0.00  0.00    +0.000 NA
ATOM    242  CZ  ARG A  18       5.655   7.306   0.000  0.00  0.00    +0.000 C 
ATOM    243  NH1 ARG A  18       5.863   7.884   0.000  0.00  0.00    +0.000 NA
ATOM    244  NH2 ARG A  18       5.702   8.137   0.000  0.00  0.00    +0.000 NA
ENDBRANCH 240 241
ENDBRANCH 239 240
ENDBRANCH 238 239
ENDBRANCH  59 238
TORSDOF 82
