REMARK  Name = 
REMARK  6 active torsions:
REMARK  status: ('A' for Active; 'I' for Inactive)
REMARK    1  A    between atoms: O_5  and  C_24
REMARK    2  A    between atoms: O_5  and  C_28
REMARK    3  A    between atoms: N_10  and  C_23
REMARK    4  A    between atoms: N_11  and  C_17
REMARK    5  A    between atoms: C_13  and  C_20
REMARK    6  A    between atoms: C_27  and  C_29
REMARK                            x       y       z     vdW  Elec       q    Type
REMARK                         _______ _______ _______ _____ _____    ______ ____
ROOT
ATOM      1  O   UNL     1       4.769  -0.522   0.000  0.00  0.00    +0.000 OA
ATOM      2  O   UNL     1       1.650   0.980   0.000  0.00  0.00    +0.000 OA
ATOM      3  N   UNL     1       3.381  -0.366   0.000  0.00  0.00    +0.000 N 
ATOM      4  N   UNL     1       2.638  -0.008   0.000  0.00  0.00    +0.000 N 
ATOM      5  C   UNL     1       3.459  -1.222   0.000  0.00  0.00    +0.000 C 
ATOM      6  C   UNL     1       2.752  -1.711   0.000  0.00  0.00    +0.000 C 
ATOM      7  C   UNL     1       1.978  -1.338   0.000  0.00  0.00    +0.000 C 
ATOM      8  C   UNL     1       1.921  -0.481   0.000  0.00  0.00    +0.000 C 
ATOM      9  C   UNL     1       4.308   0.796   0.000  0.00  0.00    +0.000 C 
ATOM     10  C   UNL     1       4.125  -0.008   0.000  0.00  0.00    +0.000 C 
ATOM     11  C   UNL     1       3.794   1.442   0.000  0.00  0.00    +0.000 C 
ATOM     12  C   UNL     1       2.969   1.442   0.000  0.00  0.00    +0.000 C 
ATOM     13  C   UNL     1       2.454   0.796   0.000  0.00  0.00    +0.000 C 
ENDROOT
BRANCH   5  16
ATOM     14  O   UNL     1       4.882  -1.098   0.000  0.00  0.00    +0.000 OA
ATOM     15  N   UNL     1       4.277  -2.393   0.000  0.00  0.00    +0.000 NA
ATOM     16  C   UNL     1       4.206  -1.571   0.000  0.00  0.00    +0.000 C 
BRANCH  15  19
ATOM     17  O   UNL     1       6.349  -2.906   0.000  0.00  0.00    +0.000 OA
ATOM     18  O   UNL     1       6.399  -4.375   0.000  0.00  0.00    +0.000 OA
ATOM     19  C   UNL     1       5.025  -2.742   0.000  0.00  0.00    +0.000 C 
ATOM     20  C   UNL     1       5.747  -2.343   0.000  0.00  0.00    +0.000 C 
ATOM     21  C   UNL     1       5.181  -3.552   0.000  0.00  0.00    +0.000 C 
ATOM     22  C   UNL     1       6.000  -3.654   0.000  0.00  0.00    +0.000 C 
BRANCH  20  23
ATOM     23  O   UNL     1       5.848  -1.524   0.000  0.00  0.00    +0.000 OA
BRANCH  23  24
ATOM     24  C   UNL     1       6.608  -1.202   0.000  0.00  0.00    +0.000 C 
ATOM     25  C   UNL     1       7.266  -1.700   0.000  0.00  0.00    +0.000 C 
ENDBRANCH  23  24
ENDBRANCH  20  23
ENDBRANCH  15  19
ENDBRANCH   5  16
BRANCH   9  27
ATOM     26  O   UNL     1       4.794   2.373   0.000  0.00  0.00    +0.000 OA
ATOM     27  N   UNL     1       5.112   0.980   0.000  0.00  0.00    +0.000 NA
ATOM     28  C   UNL     1       5.356   1.768   0.000  0.00  0.00    +0.000 C 
BRANCH  28  30
ATOM     29  N   UNL     1       6.721   1.347   0.000  0.00  0.00    +0.000 NA
ATOM     30  C   UNL     1       6.160   1.952   0.000  0.00  0.00    +0.000 A 
ATOM     31  C   UNL     1       6.403   2.740   0.000  0.00  0.00    +0.000 A 
ATOM     32  C   UNL     1       7.207   2.924   0.000  0.00  0.00    +0.000 A 
ATOM     33  C   UNL     1       5.809   3.361   0.000  0.00  0.00    +0.000 A 
ATOM     34  C   UNL     1       7.769   2.319   0.000  0.00  0.00    +0.000 A 
ATOM     35  C   UNL     1       7.525   1.531   0.000  0.00  0.00    +0.000 A 
ATOM     36  C   UNL     1       7.473   3.741   0.000  0.00  0.00    +0.000 A 
ATOM     37  C   UNL     1       6.056   4.184   0.000  0.00  0.00    +0.000 A 
ATOM     38  C   UNL     1       6.894   4.375   0.000  0.00  0.00    +0.000 A 
ENDBRANCH  28  30
ENDBRANCH   9  27
TORSDOF 6
