REMARK  Name = 
REMARK  4 active torsions:
REMARK  status: ('A' for Active; 'I' for Inactive)
REMARK    1  A    between atoms: C_2  and  C_3
REMARK    2  A    between atoms: C_12  and  C_13
REMARK    3  A    between atoms: C_13  and  N_14
REMARK    4  A    between atoms: N_14  and  C_15
REMARK                            x       y       z     vdW  Elec       q    Type
REMARK                         _______ _______ _______ _____ _____    ______ ____
ROOT
ATOM      1  C   UNL     1       3.279   1.238   0.000  0.00  0.00    +0.000 C 
ATOM      2  C   UNL     1       3.993   0.825   0.000  0.00  0.00    +0.000 C 
ATOM      3  O   UNL     1       4.708   1.238   0.000  0.00  0.00    +0.000 OA
ATOM      4  C   UNL     1       3.993   0.000   0.000  0.00  0.00    +0.000 C 
ATOM      5  O   UNL     1       4.708  -0.412   0.000  0.00  0.00    +0.000 OA
ATOM      6  C   UNL     1       3.279  -0.412   0.000  0.00  0.00    +0.000 C 
ATOM      7  O   UNL     1       3.279  -1.238   0.000  0.00  0.00    +0.000 OA
ATOM      8  C   UNL     1       2.564   0.000   0.000  0.00  0.00    +0.000 A 
ATOM      9  N   UNL     1       1.780  -0.255   0.000  0.00  0.00    +0.000 NA
ATOM     10  C   UNL     1       1.295   0.412   0.000  0.00  0.00    +0.000 A 
ATOM     11  C   UNL     1       1.780   1.080   0.000  0.00  0.00    +0.000 A 
ATOM     12  N   UNL     1       2.564   0.825   0.000  0.00  0.00    +0.000 N 
ENDROOT
BRANCH   1  14
ATOM     13  O   UNL     1       3.993   2.475   0.000  0.00  0.00    +0.000 OA
ATOM     14  C   UNL     1       3.279   2.062   0.000  0.00  0.00    +0.000 C 
ENDBRANCH   1  14
BRANCH  10  15
ATOM     15  C   UNL     1       0.470   0.412   0.000  0.00  0.00    +0.000 C 
BRANCH  15  16
ATOM     16  N   UNL     1       0.057  -0.302   0.000  0.00  0.00    +0.000 NA
BRANCH  16  17
ATOM     17  C   UNL     1      -0.768  -0.302   0.000  0.00  0.00    +0.000 A 
ATOM     18  C   UNL     1      -1.180  -1.016   0.000  0.00  0.00    +0.000 A 
ATOM     19  C   UNL     1      -2.005  -1.016   0.000  0.00  0.00    +0.000 A 
ATOM     20  C   UNL     1      -2.418  -0.302   0.000  0.00  0.00    +0.000 A 
ATOM     21  C   UNL     1      -2.005   0.412   0.000  0.00  0.00    +0.000 A 
ATOM     22  C   UNL     1      -1.180   0.412   0.000  0.00  0.00    +0.000 A 
ENDBRANCH  16  17
ENDBRANCH  15  16
ENDBRANCH  10  15
TORSDOF 4
