REMARK  Name = 
REMARK  12 active torsions:
REMARK  status: ('A' for Active; 'I' for Inactive)
REMARK    1  A    between atoms: O_2  and  C_19
REMARK    2  A    between atoms: O_2  and  C_27
REMARK    3  A    between atoms: N_7  and  C_18
REMARK    4  A    between atoms: N_8  and  C_28
REMARK    5  A    between atoms: C_9  and  C_12
REMARK    6  A    between atoms: C_9  and  C_16
REMARK    7  A    between atoms: C_12  and  C_15
REMARK    8  A    between atoms: C_15  and  C_17
REMARK    9  A    between atoms: C_15  and  C_19
REMARK   10  A    between atoms: C_17  and  C_20
REMARK   11  A    between atoms: C_20  and  C_24
REMARK   12  A    between atoms: C_28  and  C_38
REMARK                            x       y       z     vdW  Elec       q    Type
REMARK                         _______ _______ _______ _____ _____    ______ ____
ROOT
ATOM      1  C   UNL     1       5.041   0.481   0.000  0.00  0.00    +0.000 C 
ATOM      2  C   UNL     1       5.785   0.123   0.000  0.00  0.00    +0.000 C 
ATOM      3  C   UNL     1       5.152   1.299   0.000  0.00  0.00    +0.000 C 
ATOM      4  C   UNL     1       6.355   0.719   0.000  0.00  0.00    +0.000 C 
ATOM      5  C   UNL     1       5.964   1.446   0.000  0.00  0.00    +0.000 C 
ENDROOT
BRANCH   1   8
ATOM      6  O   UNL     1       3.861  -0.324   0.000  0.00  0.00    +0.000 OA
ATOM      7  N   UNL     1       5.148  -0.944   0.000  0.00  0.00    +0.000 NA
ATOM      8  C   UNL     1       4.683  -0.262   0.000  0.00  0.00    +0.000 C 
BRANCH   7  11
ATOM      9  O   UNL     1       6.109  -2.149   0.000  0.00  0.00    +0.000 OA
ATOM     10  N   UNL     1       5.121  -3.136   0.000  0.00  0.00    +0.000 N 
ATOM     11  C   UNL     1       4.790  -1.687   0.000  0.00  0.00    +0.000 C 
ATOM     12  C   UNL     1       3.965  -1.687   0.000  0.00  0.00    +0.000 C 
ATOM     13  C   UNL     1       5.304  -2.332   0.000  0.00  0.00    +0.000 C 
ATOM     14  C   UNL     1       3.451  -2.332   0.000  0.00  0.00    +0.000 C 
ATOM     15  C   UNL     1       3.634  -3.136   0.000  0.00  0.00    +0.000 A 
ATOM     16  C   UNL     1       4.378  -3.494   0.000  0.00  0.00    +0.000 A 
ATOM     17  C   UNL     1       2.917  -3.610   0.000  0.00  0.00    +0.000 A 
ATOM     18  C   UNL     1       4.455  -4.350   0.000  0.00  0.00    +0.000 A 
ATOM     19  C   UNL     1       2.974  -4.467   0.000  0.00  0.00    +0.000 A 
ATOM     20  C   UNL     1       3.749  -4.840   0.000  0.00  0.00    +0.000 A 
BRANCH  10  21
ATOM     21  C   UNL     1       5.766  -3.651   0.000  0.00  0.00    +0.000 C 
BRANCH  21  24
ATOM     22  O   UNL     1       7.179  -3.864   0.000  0.00  0.00    +0.000 OA
ATOM     23  O   UNL     1       6.657  -2.534   0.000  0.00  0.00    +0.000 OA
ATOM     24  C   UNL     1       6.534  -3.349   0.000  0.00  0.00    +0.000 C 
ENDBRANCH  21  24
ENDBRANCH  10  21
ENDBRANCH   7  11
ENDBRANCH   1   8
BRANCH   1  25
ATOM     25  C   UNL     1       4.224   0.592   0.000  0.00  0.00    +0.000 C 
BRANCH  25  26
ATOM     26  C   UNL     1       3.911   1.355   0.000  0.00  0.00    +0.000 C 
BRANCH  26  28
ATOM     27  O   UNL     1       2.589   0.813   0.000  0.00  0.00    +0.000 OA
ATOM     28  C   UNL     1       3.093   1.466   0.000  0.00  0.00    +0.000 C 
BRANCH  28  29
ATOM     29  O   UNL     1       2.780   2.229   0.000  0.00  0.00    +0.000 OA
BRANCH  29  30
ATOM     30  C   UNL     1       1.963   2.340   0.000  0.00  0.00    +0.000 C 
ATOM     31  C   UNL     1       1.650   3.103   0.000  0.00  0.00    +0.000 C 
ENDBRANCH  29  30
ENDBRANCH  28  29
ENDBRANCH  26  28
BRANCH  26  32
ATOM     32  C   UNL     1       4.415   2.008   0.000  0.00  0.00    +0.000 C 
BRANCH  32  33
ATOM     33  C   UNL     1       4.103   2.771   0.000  0.00  0.00    +0.000 C 
BRANCH  33  34
ATOM     34  C   UNL     1       4.607   3.424   0.000  0.00  0.00    +0.000 A 
ATOM     35  C   UNL     1       4.294   4.187   0.000  0.00  0.00    +0.000 A 
ATOM     36  C   UNL     1       5.425   3.313   0.000  0.00  0.00    +0.000 A 
ATOM     37  C   UNL     1       4.799   4.840   0.000  0.00  0.00    +0.000 A 
ATOM     38  C   UNL     1       5.929   3.966   0.000  0.00  0.00    +0.000 A 
ATOM     39  C   UNL     1       5.617   4.729   0.000  0.00  0.00    +0.000 A 
ENDBRANCH  33  34
ENDBRANCH  32  33
ENDBRANCH  26  32
ENDBRANCH  25  26
ENDBRANCH   1  25
TORSDOF 12
