REMARK  Name = 
REMARK  3 active torsions:
REMARK  status: ('A' for Active; 'I' for Inactive)
REMARK    1  A    between atoms: C_2  and  CA_4
REMARK    2  A    between atoms: C_3  and  O_9
REMARK    3  A    between atoms: CA_4  and  C_5
REMARK                            x       y       z     vdW  Elec       q    Type
REMARK                         _______ _______ _______ _____ _____    ______ ____
ROOT
ATOM      1  CA  UNL     1       1.238  -0.715   0.000  0.00  0.00    +0.000 C 
ATOM      2  N   UNL     1       2.062  -0.715   0.000  0.00  0.00    +0.000 NA
ENDROOT
BRANCH   1   3
ATOM      3  C   UNL     1       0.825  -1.429   0.000  0.00  0.00    +0.000 C 
ATOM      4  O   UNL     1       1.238  -2.143   0.000  0.00  0.00    +0.000 OA
ATOM      5  OXT UNL     1       0.000  -1.429   0.000  0.00  0.00    +0.000 OA
ENDBRANCH   1   3
BRANCH   1   6
ATOM      6  C   UNL     1       0.825   0.000   0.000  0.00  0.00    +0.000 C 
ATOM      7  C   UNL     1       0.000   0.000   0.000  0.00  0.00    +0.000 C 
BRANCH   7   9
ATOM      8  C   UNL     1      -1.238  -0.715   0.000  0.00  0.00    +0.000 C 
ATOM      9  O   UNL     1      -0.412  -0.715   0.000  0.00  0.00    +0.000 OA
ENDBRANCH   7   9
ENDBRANCH   1   6
TORSDOF 3
