REMARK  Name = 
REMARK  6 active torsions:
REMARK  status: ('A' for Active; 'I' for Inactive)
REMARK    1  A    between atoms: C_5  and  S_6
REMARK    2  A    between atoms: S_6  and  C_7
REMARK    3  A    between atoms: C_7  and  C_8
REMARK    4  A    between atoms: C_10  and  O_11
REMARK    5  A    between atoms: O_11  and  C_12
REMARK    6  A    between atoms: C_15  and  N_18
REMARK                            x       y       z     vdW  Elec       q    Type
REMARK                         _______ _______ _______ _____ _____    ______ ____
ROOT
ATOM      1  C   UNL     1       3.572  -8.662   0.000  0.00  0.00    +0.000 C 
ATOM      2  O   UNL     1       4.287  -9.075   0.000  0.00  0.00    +0.000 OA
ATOM      3  C   UNL     1       4.287  -9.900   0.000  0.00  0.00    +0.000 C 
ATOM      4  C   UNL     1       3.572 -10.312   0.000  0.00  0.00    +0.000 C 
ATOM      5  O   UNL     1       3.572 -11.137   0.000  0.00  0.00    +0.000 OA
ATOM      6  C   UNL     1       2.858  -9.900   0.000  0.00  0.00    +0.000 C 
ATOM      7  O   UNL     1       2.143 -10.312   0.000  0.00  0.00    +0.000 OA
ATOM      8  C   UNL     1       2.858  -9.075   0.000  0.00  0.00    +0.000 C 
ATOM      9  O   UNL     1       2.143  -8.662   0.000  0.00  0.00    +0.000 OA
ENDROOT
BRANCH   1  10
ATOM     10  C   UNL     1       3.572  -7.838   0.000  0.00  0.00    +0.000 C 
BRANCH  10  11
ATOM     11  S   UNL     1       2.858  -7.425   0.000  0.00  0.00    +0.000 S 
BRANCH  11  16
ATOM     12  O   UNL     1       2.858  -4.125   0.000  0.00  0.00    +0.000 OA
ATOM     13  C   UNL     1       2.858  -4.950   0.000  0.00  0.00    +0.000 C 
ATOM     14  C   UNL     1       3.572  -5.362   0.000  0.00  0.00    +0.000 C 
ATOM     15  O   UNL     1       3.572  -6.188   0.000  0.00  0.00    +0.000 OA
ATOM     16  C   UNL     1       2.858  -6.600   0.000  0.00  0.00    +0.000 C 
ATOM     17  C   UNL     1       2.143  -6.188   0.000  0.00  0.00    +0.000 C 
ATOM     18  O   UNL     1       1.429  -6.600   0.000  0.00  0.00    +0.000 OA
ATOM     19  C   UNL     1       2.143  -5.362   0.000  0.00  0.00    +0.000 C 
ATOM     20  O   UNL     1       1.429  -4.950   0.000  0.00  0.00    +0.000 OA
ENDBRANCH  11  16
ENDBRANCH  10  11
ENDBRANCH   1  10
BRANCH   3  21
ATOM     21  O   UNL     1       5.001 -10.312   0.000  0.00  0.00    +0.000 OA
BRANCH  21  22
ATOM     22  C   UNL     1       5.001 -11.137   0.000  0.00  0.00    +0.000 A 
ATOM     23  C   UNL     1       5.716 -11.550   0.000  0.00  0.00    +0.000 A 
ATOM     24  C   UNL     1       5.716 -12.375   0.000  0.00  0.00    +0.000 A 
ATOM     25  C   UNL     1       5.001 -12.787   0.000  0.00  0.00    +0.000 A 
ATOM     26  C   UNL     1       4.287 -12.375   0.000  0.00  0.00    +0.000 A 
ATOM     27  C   UNL     1       4.287 -11.550   0.000  0.00  0.00    +0.000 A 
BRANCH  25  28
ATOM     28  N   UNL     1       5.001 -13.613   0.000  0.00  0.00    +0.000 N 
ATOM     29  O   UNL     1       5.716 -14.025   0.000  0.00  0.00    +0.000 OA
ATOM     30  O   UNL     1       4.287 -14.025   0.000  0.00  0.00    +0.000 OA
ENDBRANCH  25  28
ENDBRANCH  21  22
ENDBRANCH   3  21
TORSDOF 6
