REMARK  Name = 
REMARK  3 active torsions:
REMARK  status: ('A' for Active; 'I' for Inactive)
REMARK    1  A    between atoms: CA_2  and  C_3
REMARK    2  A    between atoms: CA_2  and  C_15
REMARK    3  A    between atoms: C_3  and  C_4
REMARK                            x       y       z     vdW  Elec       q    Type
REMARK                         _______ _______ _______ _____ _____    ______ ____
ROOT
ATOM      1  C   UNL     1       3.353   0.721   0.000  0.00  0.00    +0.000 C 
ATOM      2  C   UNL     1       4.157   0.538   0.000  0.00  0.00    +0.000 C 
ATOM      3  C   UNL     1       4.515  -0.205   0.000  0.00  0.00    +0.000 C 
ATOM      4  C   UNL     1       4.157  -0.949   0.000  0.00  0.00    +0.000 C 
ATOM      5  C   UNL     1       3.353  -1.132   0.000  0.00  0.00    +0.000 C 
ATOM      6  C   UNL     1       2.708  -0.618   0.000  0.00  0.00    +0.000 A 
ATOM      7  C   UNL     1       2.708   0.207   0.000  0.00  0.00    +0.000 A 
ATOM      8  C   UNL     1       1.923   0.462   0.000  0.00  0.00    +0.000 A 
ATOM      9  O   UNL     1       1.668   1.247   0.000  0.00  0.00    +0.000 OA
ATOM     10  N   UNL     1       1.438  -0.205   0.000  0.00  0.00    +0.000 NA
ATOM     11  O   UNL     1       1.923  -0.873   0.000  0.00  0.00    +0.000 OA
ENDROOT
BRANCH   1  12
ATOM     12  C   UNL     1       3.169   1.526   0.000  0.00  0.00    +0.000 C 
BRANCH  12  14
ATOM     13  N   UNL     1       4.562   1.844   0.000  0.00  0.00    +0.000 NA
ATOM     14  CA  UNL     1       3.774   2.087   0.000  0.00  0.00    +0.000 C 
BRANCH  14  15
ATOM     15  C   UNL     1       3.590   2.891   0.000  0.00  0.00    +0.000 C 
ATOM     16  O   UNL     1       2.802   3.134   0.000  0.00  0.00    +0.000 OA
ATOM     17  OXT UNL     1       4.195   3.452   0.000  0.00  0.00    +0.000 OA
ENDBRANCH  14  15
ENDBRANCH  12  14
ENDBRANCH   1  12
TORSDOF 3
