REMARK  Name = 
REMARK  12 active torsions:
REMARK  status: ('A' for Active; 'I' for Inactive)
REMARK    1  A    between atoms: N_4  and  C_5
REMARK    2  A    between atoms: C_7  and  C_8
REMARK    3  A    between atoms: C_8  and  O_9
REMARK    4  A    between atoms: O_9  and  P_10
REMARK    5  A    between atoms: P_10  and  O_13
REMARK    6  A    between atoms: O_13  and  P_14
REMARK    7  A    between atoms: P_14  and  O_17
REMARK    8  A    between atoms: O_17  and  P_18
REMARK    9  A    between atoms: P_18  and  O_21
REMARK   10  A    between atoms: O_21  and  C_22
REMARK   11  A    between atoms: C_22  and  C_23
REMARK   12  A    between atoms: C_25  and  N_30
REMARK                            x       y       z     vdW  Elec       q    Type
REMARK                         _______ _______ _______ _____ _____    ______ ____
ROOT
ATOM      1  P   UNL     1      11.148  -5.480   0.000  0.00  0.00    +0.000 P 
ATOM      2  O   UNL     1      11.560  -4.765   0.000  0.00  0.00    +0.000 OA
ATOM      3  O   UNL     1      10.735  -6.194   0.000  0.00  0.00    +0.000 OA
ENDROOT
BRANCH   1   4
ATOM      4  O   UNL     1      10.433  -5.067   0.000  0.00  0.00    +0.000 OA
BRANCH   4   5
ATOM      5  P   UNL     1       9.719  -5.480   0.000  0.00  0.00    +0.000 P 
ATOM      6  O   UNL     1       9.306  -4.765   0.000  0.00  0.00    +0.000 OA
ATOM      7  O   UNL     1      10.131  -6.194   0.000  0.00  0.00    +0.000 OA
BRANCH   5   8
ATOM      8  O   UNL     1       9.004  -5.892   0.000  0.00  0.00    +0.000 OA
BRANCH   8   9
ATOM      9  C   UNL     1       8.290  -5.480   0.000  0.00  0.00    +0.000 C 
BRANCH   9  12
ATOM     10  C   UNL     1       6.270  -6.170   0.000  0.00  0.00    +0.000 C 
ATOM     11  O   UNL     1       6.822  -5.557   0.000  0.00  0.00    +0.000 OA
ATOM     12  C   UNL     1       7.575  -5.892   0.000  0.00  0.00    +0.000 C 
ATOM     13  C   UNL     1       7.489  -6.713   0.000  0.00  0.00    +0.000 C 
ATOM     14  O   UNL     1       8.102  -7.265   0.000  0.00  0.00    +0.000 OA
ATOM     15  C   UNL     1       6.682  -6.884   0.000  0.00  0.00    +0.000 C 
ATOM     16  O   UNL     1       6.347  -7.638   0.000  0.00  0.00    +0.000 OA
BRANCH  10  20
ATOM     17  C   UNL     1       3.429  -6.774   0.000  0.00  0.00    +0.000 C 
ATOM     18  N   UNL     1       4.144  -6.361   0.000  0.00  0.00    +0.000 N 
ATOM     19  C   UNL     1       4.897  -6.697   0.000  0.00  0.00    +0.000 A 
ATOM     20  N   UNL     1       5.449  -6.084   0.000  0.00  0.00    +0.000 N 
ATOM     21  C   UNL     1       5.037  -5.369   0.000  0.00  0.00    +0.000 A 
ATOM     22  C   UNL     1       4.230  -5.541   0.000  0.00  0.00    +0.000 A 
ATOM     23  C   UNL     1       3.678  -4.928   0.000  0.00  0.00    +0.000 A 
ATOM     24  O   UNL     1       2.871  -5.099   0.000  0.00  0.00    +0.000 OA
ATOM     25  N   UNL     1       3.933  -4.143   0.000  0.00  0.00    +0.000 NA
ATOM     26  C   UNL     1       4.740  -3.971   0.000  0.00  0.00    +0.000 A 
ATOM     27  N   UNL     1       4.995  -3.187   0.000  0.00  0.00    +0.000 NA
ATOM     28  N   UNL     1       5.292  -4.585   0.000  0.00  0.00    +0.000 NA
ENDBRANCH  10  20
ENDBRANCH   9  12
ENDBRANCH   8   9
ENDBRANCH   5   8
ENDBRANCH   4   5
ENDBRANCH   1   4
BRANCH   1  29
ATOM     29  O   UNL     1      11.862  -5.892   0.000  0.00  0.00    +0.000 OA
BRANCH  29  30
ATOM     30  P   UNL     1      12.577  -5.480   0.000  0.00  0.00    +0.000 P 
ATOM     31  O   UNL     1      12.164  -4.765   0.000  0.00  0.00    +0.000 OA
ATOM     32  O   UNL     1      12.989  -6.194   0.000  0.00  0.00    +0.000 OA
BRANCH  30  33
ATOM     33  O   UNL     1      13.291  -5.067   0.000  0.00  0.00    +0.000 OA
BRANCH  33  34
ATOM     34  C   UNL     1      14.006  -5.480   0.000  0.00  0.00    +0.000 C 
BRANCH  34  35
ATOM     35  C   UNL     1      14.720  -5.067   0.000  0.00  0.00    +0.000 C 
ATOM     36  O   UNL     1      14.806  -4.247   0.000  0.00  0.00    +0.000 OA
ATOM     37  C   UNL     1      15.613  -4.075   0.000  0.00  0.00    +0.000 C 
ATOM     38  C   UNL     1      16.026  -4.790   0.000  0.00  0.00    +0.000 C 
ATOM     39  O   UNL     1      16.846  -4.876   0.000  0.00  0.00    +0.000 OA
ATOM     40  C   UNL     1      15.474  -5.403   0.000  0.00  0.00    +0.000 C 
ATOM     41  O   UNL     1      15.645  -6.210   0.000  0.00  0.00    +0.000 OA
BRANCH  37  42
ATOM     42  N   UNL     1      15.949  -3.322   0.000  0.00  0.00    +0.000 N 
ATOM     43  C   UNL     1      15.536  -2.607   0.000  0.00  0.00    +0.000 A 
ATOM     44  N   UNL     1      16.088  -1.994   0.000  0.00  0.00    +0.000 NA
ATOM     45  C   UNL     1      16.842  -2.330   0.000  0.00  0.00    +0.000 A 
ATOM     46  C   UNL     1      17.596  -1.994   0.000  0.00  0.00    +0.000 A 
ATOM     47  N   UNL     1      17.682  -1.173   0.000  0.00  0.00    +0.000 NA
ATOM     48  N   UNL     1      18.263  -2.479   0.000  0.00  0.00    +0.000 NA
ATOM     49  C   UNL     1      18.177  -3.299   0.000  0.00  0.00    +0.000 A 
ATOM     50  N   UNL     1      17.423  -3.635   0.000  0.00  0.00    +0.000 NA
ATOM     51  C   UNL     1      16.756  -3.150   0.000  0.00  0.00    +0.000 A 
ENDBRANCH  37  42
ENDBRANCH  34  35
ENDBRANCH  33  34
ENDBRANCH  30  33
ENDBRANCH  29  30
ENDBRANCH   1  29
TORSDOF 12
