REMARK  Name = 
REMARK  0 active torsions:
REMARK  status: ('A' for Active; 'I' for Inactive)
REMARK                            x       y       z     vdW  Elec       q    Type
REMARK                         _______ _______ _______ _____ _____    ______ ____
ROOT
ATOM      1 AL   UNL     1      -1.827  -2.622   0.000  0.00  0.00    +0.000 Al
ENDROOT
TORSDOF 0
REMARK  Name = 
REMARK  0 active torsions:
REMARK  status: ('A' for Active; 'I' for Inactive)
REMARK                            x       y       z     vdW  Elec       q    Type
REMARK                         _______ _______ _______ _____ _____    ______ ____
ROOT
ATOM      1  O   UNL     1      -1.827  -0.442   0.000  0.00  0.00    +0.000 OA
ATOM      2  S   UNL     1      -1.001  -0.442   0.000  0.00  0.00    +0.000 S 
ATOM      3  O   UNL     1      -0.177  -0.442   0.000  0.00  0.00    +0.000 OA
ATOM      4  O   UNL     1      -1.001  -1.267   0.000  0.00  0.00    +0.000 OA
ATOM      5  O   UNL     1      -1.001   0.442   0.000  0.00  0.00    +0.000 OA
ENDROOT
TORSDOF 0
REMARK  Name = 
REMARK  0 active torsions:
REMARK  status: ('A' for Active; 'I' for Inactive)
REMARK                            x       y       z     vdW  Elec       q    Type
REMARK                         _______ _______ _______ _____ _____    ______ ____
ROOT
ATOM      1  O   UNL     1       1.237  -0.560   0.000  0.00  0.00    +0.000 OA
ATOM      2  S   UNL     1       2.063  -0.560   0.000  0.00  0.00    +0.000 S 
ATOM      3  O   UNL     1       2.887  -0.560   0.000  0.00  0.00    +0.000 OA
ATOM      4  O   UNL     1       2.063  -1.385   0.000  0.00  0.00    +0.000 OA
ATOM      5  O   UNL     1       2.063   0.265   0.000  0.00  0.00    +0.000 OA
ENDROOT
TORSDOF 0
REMARK  Name = 
REMARK  0 active torsions:
REMARK  status: ('A' for Active; 'I' for Inactive)
REMARK                            x       y       z     vdW  Elec       q    Type
REMARK                         _______ _______ _______ _____ _____    ______ ____
ROOT
ATOM      1 AL   UNL     1      -2.887  -2.563   0.000  0.00  0.00    +0.000 Al
ENDROOT
TORSDOF 0
REMARK  Name = 
REMARK  0 active torsions:
REMARK  status: ('A' for Active; 'I' for Inactive)
REMARK                            x       y       z     vdW  Elec       q    Type
REMARK                         _______ _______ _______ _____ _____    ______ ____
ROOT
ATOM      1  O   UNL     1      -1.827   1.797   0.000  0.00  0.00    +0.000 OA
ATOM      2  S   UNL     1      -1.001   1.797   0.000  0.00  0.00    +0.000 S 
ATOM      3  O   UNL     1      -0.177   1.797   0.000  0.00  0.00    +0.000 OA
ATOM      4  O   UNL     1      -1.001   0.972   0.000  0.00  0.00    +0.000 OA
ATOM      5  O   UNL     1      -1.001   2.622   0.000  0.00  0.00    +0.000 OA
ENDROOT
TORSDOF 0
