REMARK  Name = 
REMARK  1 active torsions:
REMARK  status: ('A' for Active; 'I' for Inactive)
REMARK    1  A    between atoms: C_13  and  O_25
REMARK                            x       y       z     vdW  Elec       q    Type
REMARK                         _______ _______ _______ _____ _____    ______ ____
ROOT
ATOM      1  C   UNL     1       6.347   0.226   0.000  0.00  0.00    +0.000 C 
ATOM      2  C   UNL     1       7.535  -0.918   0.000  0.00  0.00    +0.000 C 
ATOM      3  C   UNL     1       5.554  -2.978   0.000  0.00  0.00    +0.000 C 
ATOM      4  C   UNL     1       6.743  -1.147   0.000  0.00  0.00    +0.000 C 
ATOM      5  C   UNL     1       4.761  -3.207   0.000  0.00  0.00    +0.000 C 
ATOM      6  C   UNL     1       8.130  -1.490   0.000  0.00  0.00    +0.000 C 
ATOM      7  C   UNL     1       6.148  -3.550   0.000  0.00  0.00    +0.000 C 
ATOM      8  C   UNL     1       3.374  -2.863   0.000  0.00  0.00    +0.000 A 
ATOM      9  C   UNL     1       2.978  -1.490   0.000  0.00  0.00    +0.000 A 
ATOM     10  C   UNL     1       6.148  -0.575   0.000  0.00  0.00    +0.000 C 
ATOM     11  C   UNL     1       4.167  -2.635   0.000  0.00  0.00    +0.000 A 
ATOM     12  C   UNL     1       2.780  -2.291   0.000  0.00  0.00    +0.000 A 
ATOM     13  C   UNL     1       7.932  -2.291   0.000  0.00  0.00    +0.000 C 
ATOM     14  C   UNL     1       6.941  -3.321   0.000  0.00  0.00    +0.000 C 
ATOM     15  C   UNL     1       3.771  -1.262   0.000  0.00  0.00    +0.000 A 
ATOM     16  C   UNL     1       4.365  -1.834   0.000  0.00  0.00    +0.000 A 
ATOM     17  C   UNL     1       7.139  -2.520   0.000  0.00  0.00    +0.000 C 
ATOM     18  C   UNL     1       5.158  -1.605   0.000  0.00  0.00    +0.000 C 
ATOM     19  O   UNL     1       8.526  -2.863   0.000  0.00  0.00    +0.000 OA
ATOM     20  O   UNL     1       7.535  -3.893   0.000  0.00  0.00    +0.000 OA
ATOM     21  O   UNL     1       3.969  -0.461   0.000  0.00  0.00    +0.000 OA
ATOM     22  O   UNL     1       6.545  -1.948   0.000  0.00  0.00    +0.000 OA
ATOM     23  O   UNL     1       5.752  -2.177   0.000  0.00  0.00    +0.000 OA
ATOM     24  O   UNL     1       5.356  -0.804   0.000  0.00  0.00    +0.000 OA
ENDROOT
BRANCH  12  26
ATOM     25  C   UNL     1       1.393  -1.948   0.000  0.00  0.00    +0.000 C 
ATOM     26  O   UNL     1       1.987  -2.520   0.000  0.00  0.00    +0.000 OA
ENDBRANCH  12  26
TORSDOF 1
