REMARK  Name = 
REMARK  3 active torsions:
REMARK  status: ('A' for Active; 'I' for Inactive)
REMARK    1  A    between atoms: C_2  and  C_4
REMARK    2  A    between atoms: N_10  and  C_11
REMARK    3  A    between atoms: C_11  and  C_12
REMARK                            x       y       z     vdW  Elec       q    Type
REMARK                         _______ _______ _______ _____ _____    ______ ____
ROOT
ATOM      1  C   UNL     1       1.235   0.629   0.000  0.00  0.00    +0.000 A 
ATOM      2  N   UNL     1       0.980  -0.155   0.000  0.00  0.00    +0.000 NA
ATOM      3  C   UNL     1       0.155  -0.155   0.000  0.00  0.00    +0.000 A 
ATOM      4  C   UNL     1      -0.330  -0.823   0.000  0.00  0.00    +0.000 C 
ATOM      5  C   UNL     1      -0.100   0.629   0.000  0.00  0.00    +0.000 A 
ATOM      6  O   UNL     1      -0.884   0.884   0.000  0.00  0.00    +0.000 OA
ATOM      7  N   UNL     1       0.568   1.114   0.000  0.00  0.00    +0.000 N 
ENDROOT
BRANCH   1   9
ATOM      8  C   UNL     1       2.191   1.691   0.000  0.00  0.00    +0.000 C 
ATOM      9  C   UNL     1       2.020   0.884   0.000  0.00  0.00    +0.000 C 
ATOM     10  N   UNL     1       2.633   0.332   0.000  0.00  0.00    +0.000 NA
ENDBRANCH   1   9
BRANCH   7  11
ATOM     11  C   UNL     1       0.568   1.939   0.000  0.00  0.00    +0.000 C 
BRANCH  11  12
ATOM     12  C   UNL     1      -0.147   2.352   0.000  0.00  0.00    +0.000 C 
ATOM     13  O   UNL     1      -0.861   1.939   0.000  0.00  0.00    +0.000 OA
ATOM     14  O   UNL     1      -0.147   3.177   0.000  0.00  0.00    +0.000 OA
ENDBRANCH  11  12
ENDBRANCH   7  11
TORSDOF 3
