REMARK  Name = 
REMARK  0 active torsions:
REMARK  status: ('A' for Active; 'I' for Inactive)
REMARK                            x       y       z     vdW  Elec       q    Type
REMARK                         _______ _______ _______ _____ _____    ______ ____
ROOT
ATOM      1  N   UNL     1       0.806  -0.568   0.000  0.00  0.00    +0.000 NA
ATOM      2  C   UNL     1       1.631  -0.568   0.000  0.00  0.00    +0.000 C 
ATOM      3  C   UNL     1       2.044  -1.282   0.000  0.00  0.00    +0.000 A 
ATOM      4  C   UNL     1       0.319  -1.880   0.000  0.00  0.00    +0.000 A 
ATOM      5  C   UNL     1       0.223  -1.151   0.000  0.00  0.00    +0.000 A 
ATOM      6  C   UNL     1      -0.551  -0.746   0.000  0.00  0.00    +0.000 A 
ATOM      7  C   UNL     1      -1.206  -1.249   0.000  0.00  0.00    +0.000 A 
ATOM      8  C   UNL     1      -0.336  -2.382   0.000  0.00  0.00    +0.000 A 
ATOM      9  C   UNL     1      -1.098  -2.067   0.000  0.00  0.00    +0.000 A 
ATOM     10  N   UNL     1       1.033  -2.293   0.000  0.00  0.00    +0.000 NA
ATOM     11  C   UNL     1       1.830  -2.079   0.000  0.00  0.00    +0.000 A 
ATOM     12  C   UNL     1       2.868  -1.239   0.000  0.00  0.00    +0.000 A 
ATOM     13  S   UNL     1       2.522  -2.529   0.000  0.00  0.00    +0.000 S 
ATOM     14  C   UNL     1       3.163  -2.009   0.000  0.00  0.00    +0.000 A 
ATOM     15  N   UNL     1       2.215   0.016   0.000  0.00  0.00    +0.000 N 
ATOM     16  C   UNL     1       3.960  -2.223   0.000  0.00  0.00    +0.000 C 
ATOM     17  C   UNL     1       2.001   0.813   0.000  0.00  0.00    +0.000 C 
ATOM     18  C   UNL     1       3.012  -0.198   0.000  0.00  0.00    +0.000 C 
ATOM     19  C   UNL     1       2.584   1.396   0.000  0.00  0.00    +0.000 C 
ATOM     20  C   UNL     1       3.595   0.386   0.000  0.00  0.00    +0.000 C 
ATOM     21  N   UNL     1       3.381   1.182   0.000  0.00  0.00    +0.000 NA
ATOM     22  C   UNL     1       3.965   1.766   0.000  0.00  0.00    +0.000 C 
ENDROOT
TORSDOF 0
