REMARK  Name = 
REMARK  1 active torsions:
REMARK  status: ('A' for Active; 'I' for Inactive)
REMARK    1  A    between atoms: C_17  and  C_18
REMARK                            x       y       z     vdW  Elec       q    Type
REMARK                         _______ _______ _______ _____ _____    ______ ____
ROOT
ATOM      1  C   UNL     1       8.037   1.973   0.000  0.00  0.00    +0.000 C 
ATOM      2  C   UNL     1      10.220   2.015   0.000  0.00  0.00    +0.000 C 
ATOM      3  C   UNL     1       9.435   2.270   0.000  0.00  0.00    +0.000 C 
ATOM      4  C   UNL     1      11.176   0.953   0.000  0.00  0.00    +0.000 A 
ATOM      5  C   UNL     1       9.950  -0.151   0.000  0.00  0.00    +0.000 A 
ATOM      6  C   UNL     1      11.890  -1.073   0.000  0.00  0.00    +0.000 C 
ATOM      7  C   UNL     1      10.391   1.208   0.000  0.00  0.00    +0.000 A 
ATOM      8  C   UNL     1       9.778   0.656   0.000  0.00  0.00    +0.000 A 
ATOM      9  C   UNL     1      11.347   0.146   0.000  0.00  0.00    +0.000 A 
ATOM     10  C   UNL     1      10.734  -0.406   0.000  0.00  0.00    +0.000 A 
ATOM     11  C   UNL     1       8.993   0.911   0.000  0.00  0.00    +0.000 C 
ATOM     12  N   UNL     1       8.822   1.718   0.000  0.00  0.00    +0.000 NA
ATOM     13  O   UNL     1      12.062  -0.267   0.000  0.00  0.00    +0.000 OA
ATOM     14  O   UNL     1      11.070  -1.160   0.000  0.00  0.00    +0.000 OA
ENDROOT
BRANCH  11  21
ATOM     15  C   UNL     1       7.161   1.245   0.000  0.00  0.00    +0.000 A 
ATOM     16  C   UNL     1       6.336   1.245   0.000  0.00  0.00    +0.000 A 
ATOM     17  C   UNL     1       5.030  -0.462   0.000  0.00  0.00    +0.000 C 
ATOM     18  C   UNL     1       7.573   0.530   0.000  0.00  0.00    +0.000 A 
ATOM     19  C   UNL     1       5.923   0.530   0.000  0.00  0.00    +0.000 A 
ATOM     20  C   UNL     1       7.161  -0.184   0.000  0.00  0.00    +0.000 A 
ATOM     21  C   UNL     1       8.380   0.359   0.000  0.00  0.00    +0.000 C 
ATOM     22  C   UNL     1       6.336  -0.184   0.000  0.00  0.00    +0.000 A 
ATOM     23  C   UNL     1       7.713  -0.797   0.000  0.00  0.00    +0.000 C 
ATOM     24  O   UNL     1       7.542  -1.604   0.000  0.00  0.00    +0.000 OA
ATOM     25  O   UNL     1       5.117   0.359   0.000  0.00  0.00    +0.000 OA
ATOM     26  O   UNL     1       5.784  -0.797   0.000  0.00  0.00    +0.000 OA
ATOM     27  O   UNL     1       8.467  -0.462   0.000  0.00  0.00    +0.000 OA
ENDBRANCH  11  21
TORSDOF 1
