REMARK  Name = 
REMARK  12 active torsions:
REMARK  status: ('A' for Active; 'I' for Inactive)
REMARK    1  A    between atoms: C_6  and  C_10
REMARK    2  A    between atoms: C_7  and  C_11
REMARK    3  A    between atoms: C_8  and  C_19
REMARK    4  A    between atoms: C_9  and  C_20
REMARK    5  A    between atoms: C_10  and  C_12
REMARK    6  A    between atoms: C_11  and  C_13
REMARK    7  A    between atoms: C_12  and  C_19
REMARK    8  A    between atoms: C_13  and  C_20
REMARK    9  A    between atoms: C_14  and  C_19
REMARK   10  A    between atoms: C_14  and  N_23
REMARK   11  A    between atoms: C_15  and  C_20
REMARK   12  A    between atoms: C_15  and  N_24
REMARK                            x       y       z     vdW  Elec       q    Type
REMARK                         _______ _______ _______ _____ _____    ______ ____
ROOT
ATOM      1  C   UNL     1       8.856   4.075   0.000  0.00  0.00    +0.000 C 
ATOM      2  C   UNL     1       8.574   2.475   0.000  0.00  0.00    +0.000 C 
ATOM      3  C   UNL     1       7.859   3.712   0.000  0.00  0.00    +0.000 C 
ATOM      4  C   UNL     1       7.145   2.475   0.000  0.00  0.00    +0.000 C 
ATOM      5  C   UNL     1       8.574   3.300   0.000  0.00  0.00    +0.000 C 
ATOM      6  N   UNL     1       9.386   3.157   0.000  0.00  0.00    +0.000 NA
ATOM      7  N   UNL     1       7.859   2.062   0.000  0.00  0.00    +0.000 NA
ATOM      8  N   UNL     1       7.145   3.300   0.000  0.00  0.00    +0.000 NA
ENDROOT
BRANCH   7   9
ATOM      9  C   UNL     1       7.859   1.238   0.000  0.00  0.00    +0.000 C 
BRANCH   9  10
ATOM     10  C   UNL     1       8.574   0.825   0.000  0.00  0.00    +0.000 C 
BRANCH  10  12
ATOM     11  C   UNL     1       9.288   2.062   0.000  0.00  0.00    +0.000 C 
ATOM     12  C   UNL     1       9.288   1.238   0.000  0.00  0.00    +0.000 C 
ENDBRANCH  10  12
BRANCH  10  13
ATOM     13  C   UNL     1       8.574   0.000   0.000  0.00  0.00    +0.000 C 
BRANCH  13  14
ATOM     14  C   UNL     1       9.288  -0.412   0.000  0.00  0.00    +0.000 C 
BRANCH  14  16
ATOM     15  C   UNL     1      10.002  -1.650   0.000  0.00  0.00    +0.000 C 
ATOM     16  C   UNL     1       9.288  -1.238   0.000  0.00  0.00    +0.000 C 
ENDBRANCH  14  16
ENDBRANCH  13  14
ENDBRANCH  10  13
ENDBRANCH   9  10
ENDBRANCH   7   9
BRANCH   8  17
ATOM     17  C   UNL     1       6.430   3.712   0.000  0.00  0.00    +0.000 C 
BRANCH  17  18
ATOM     18  C   UNL     1       5.716   3.300   0.000  0.00  0.00    +0.000 C 
BRANCH  18  20
ATOM     19  C   UNL     1       6.430   2.062   0.000  0.00  0.00    +0.000 C 
ATOM     20  C   UNL     1       5.716   2.475   0.000  0.00  0.00    +0.000 C 
ENDBRANCH  18  20
BRANCH  18  21
ATOM     21  C   UNL     1       5.001   3.712   0.000  0.00  0.00    +0.000 C 
BRANCH  21  22
ATOM     22  C   UNL     1       4.287   3.300   0.000  0.00  0.00    +0.000 C 
BRANCH  22  24
ATOM     23  C   UNL     1       2.858   3.300   0.000  0.00  0.00    +0.000 C 
ATOM     24  C   UNL     1       3.572   3.712   0.000  0.00  0.00    +0.000 C 
ENDBRANCH  22  24
ENDBRANCH  21  22
ENDBRANCH  18  21
ENDBRANCH  17  18
ENDBRANCH   8  17
TORSDOF 12
