REMARK  Name = 
REMARK  3 active torsions:
REMARK  status: ('A' for Active; 'I' for Inactive)
REMARK    1  A    between atoms: N_2  and  C_11
REMARK    2  A    between atoms: C_11  and  C_12
REMARK    3  A    between atoms: C_14  and  C_15
REMARK                            x       y       z     vdW  Elec       q    Type
REMARK                         _______ _______ _______ _____ _____    ______ ____
ROOT
ATOM      1  O   UNL     1       5.222  -1.031   0.000  0.00  0.00    +0.000 OA
ATOM      2  N   UNL     1       3.793  -0.206   0.000  0.00  0.00    +0.000 NA
ATOM      3  N   UNL     1       4.508  -1.444   0.000  0.00  0.00    +0.000 NA
ATOM      4  C   UNL     1       4.508   0.206   0.000  0.00  0.00    +0.000 C 
ATOM      5  C   UNL     1       5.222  -0.206   0.000  0.00  0.00    +0.000 C 
ATOM      6  C   UNL     1       3.793  -1.031   0.000  0.00  0.00    +0.000 C 
ENDROOT
BRANCH   6   8
ATOM      7  N   UNL     1       1.650  -1.444   0.000  0.00  0.00    +0.000 NA
ATOM      8  C   UNL     1       3.079  -1.444   0.000  0.00  0.00    +0.000 A 
ATOM      9  C   UNL     1       3.079  -2.269   0.000  0.00  0.00    +0.000 A 
ATOM     10  C   UNL     1       2.365  -1.031   0.000  0.00  0.00    +0.000 A 
ATOM     11  C   UNL     1       2.365  -2.681   0.000  0.00  0.00    +0.000 A 
ATOM     12  C   UNL     1       1.650  -2.269   0.000  0.00  0.00    +0.000 A 
ENDBRANCH   6   8
BRANCH   4  13
ATOM     13  C   UNL     1       4.508   1.031   0.000  0.00  0.00    +0.000 C 
BRANCH  13  14
ATOM     14  N   UNL     1       5.222   1.444   0.000  0.00  0.00    +0.000 NA
ATOM     15  C   UNL     1       5.937   1.031   0.000  0.00  0.00    +0.000 C 
ATOM     16  C   UNL     1       5.222   2.269   0.000  0.00  0.00    +0.000 C 
ATOM     17  C   UNL     1       6.652   1.444   0.000  0.00  0.00    +0.000 C 
ATOM     18  C   UNL     1       5.937   2.681   0.000  0.00  0.00    +0.000 C 
ATOM     19  C   UNL     1       6.652   2.269   0.000  0.00  0.00    +0.000 C 
ENDBRANCH  13  14
ENDBRANCH   4  13
TORSDOF 3
