REMARK  Name = 
REMARK  1 active torsions:
REMARK  status: ('A' for Active; 'I' for Inactive)
REMARK    1  A    between atoms: C_3  and  O_11
REMARK                            x       y       z     vdW  Elec       q    Type
REMARK                         _______ _______ _______ _____ _____    ______ ____
ROOT
ATOM      1  C   UNL     1      -4.099  -4.773   0.000  0.00  0.00    +0.000 C 
ATOM      2  C   UNL     1      -4.924  -4.773   0.000  0.00  0.00    +0.000 C 
ATOM      3  C   UNL     1      -5.337  -5.488   0.000  0.00  0.00    +0.000 C 
ATOM      4  C   UNL     1      -4.924  -6.202   0.000  0.00  0.00    +0.000 C 
ATOM      5  C   UNL     1      -4.099  -6.202   0.000  0.00  0.00    +0.000 C 
ATOM      6  C   UNL     1      -3.687  -5.488   0.000  0.00  0.00    +0.000 C 
ATOM      7  O   UNL     1      -3.687  -4.059   0.000  0.00  0.00    +0.000 OA
ATOM      8  O   UNL     1      -2.862  -5.488   0.000  0.00  0.00    +0.000 OA
ATOM      9  O   UNL     1      -3.687  -6.917   0.000  0.00  0.00    +0.000 OA
ATOM     10  O   UNL     1      -5.337  -6.917   0.000  0.00  0.00    +0.000 OA
ATOM     11  O   UNL     1      -5.337  -4.059   0.000  0.00  0.00    +0.000 OA
ENDROOT
BRANCH   3  12
ATOM     12  O   UNL     1      -6.162  -5.488   0.000  0.00  0.00    +0.000 OA
ATOM     13  C   UNL     1      -6.574  -6.202   0.000  0.00  0.00    +0.000 C 
ENDBRANCH   3  12
TORSDOF 1
