REMARK  Name = 
REMARK  7 active torsions:
REMARK  status: ('A' for Active; 'I' for Inactive)
REMARK    1  A    between atoms: C_8  and  N_12
REMARK    2  A    between atoms: C_9  and  O_29
REMARK    3  A    between atoms: N_11  and  C_16
REMARK    4  A    between atoms: C_13  and  C_14
REMARK    5  A    between atoms: C_15  and  C_25
REMARK    6  A    between atoms: C_25  and  N_26
REMARK    7  A    between atoms: O_29  and  C_30
REMARK                            x       y       z     vdW  Elec       q    Type
REMARK                         _______ _______ _______ _____ _____    ______ ____
ROOT
ATOM      1  C   UNL     1      11.013 -10.359   0.000  0.00  0.00    +0.000 A 
ATOM      2  N   UNL     1      11.013 -11.195   0.000  0.00  0.00    +0.000 NA
ATOM      3  C   UNL     1      11.766 -11.614   0.000  0.00  0.00    +0.000 A 
ATOM      4  C   UNL     1      12.477 -11.195   0.000  0.00  0.00    +0.000 A 
ATOM      5  C   UNL     1      12.477 -10.359   0.000  0.00  0.00    +0.000 A 
ATOM      6  N   UNL     1      11.766  -9.940   0.000  0.00  0.00    +0.000 NA
ATOM      7  C   UNL     1      13.188 -11.614   0.000  0.00  0.00    +0.000 A 
ATOM      8  C   UNL     1      13.899 -11.195   0.000  0.00  0.00    +0.000 A 
ATOM      9  C   UNL     1      13.899 -10.359   0.000  0.00  0.00    +0.000 A 
ATOM     10  C   UNL     1      13.188  -9.940   0.000  0.00  0.00    +0.000 A 
ATOM     11  N   UNL     1      11.766 -12.450   0.000  0.00  0.00    +0.000 NA
ENDROOT
BRANCH  11  12
ATOM     12  C   UNL     1      12.477 -12.868   0.000  0.00  0.00    +0.000 A 
ATOM     13  C   UNL     1      12.477 -13.663   0.000  0.00  0.00    +0.000 A 
ATOM     14  C   UNL     1      13.188 -14.081   0.000  0.00  0.00    +0.000 A 
ATOM     15  C   UNL     1      13.899 -13.663   0.000  0.00  0.00    +0.000 A 
ATOM     16  C   UNL     1      13.899 -12.868   0.000  0.00  0.00    +0.000 A 
ATOM     17  C   UNL     1      13.188 -12.450   0.000  0.00  0.00    +0.000 A 
ATOM     18  F   UNL     1      14.652 -14.081   0.000  0.00  0.00    +0.000 F 
ATOM     19 CL   UNL     1      13.188 -14.960   0.000  0.00  0.00    +0.000 Cl
ENDBRANCH  11  12
BRANCH   8  20
ATOM     20  N   UNL     1      14.652 -11.823   0.000  0.00  0.00    +0.000 NA
ATOM     21  C   UNL     1      15.364 -11.404   0.000  0.00  0.00    +0.000 C 
ATOM     22  O   UNL     1      15.364 -10.568   0.000  0.00  0.00    +0.000 OA
BRANCH  21  23
ATOM     23  C   UNL     1      16.075 -11.823   0.000  0.00  0.00    +0.000 C 
ATOM     24  C   UNL     1      16.827 -11.404   0.000  0.00  0.00    +0.000 C 
BRANCH  24  25
ATOM     25  C   UNL     1      17.545 -11.835   0.000  0.00  0.00    +0.000 C 
BRANCH  25  26
ATOM     26  N   UNL     1      18.276 -11.428   0.000  0.00  0.00    +0.000 NA
ATOM     27  C   UNL     1      19.013 -11.870   0.000  0.00  0.00    +0.000 C 
ATOM     28  C   UNL     1      18.290 -10.610   0.000  0.00  0.00    +0.000 C 
ENDBRANCH  25  26
ENDBRANCH  24  25
ENDBRANCH  21  23
ENDBRANCH   8  20
BRANCH   9  29
ATOM     29  O   UNL     1      14.491  -9.767   0.000  0.00  0.00    +0.000 OA
BRANCH  29  30
ATOM     30  C   UNL     1      15.328  -9.767   0.000  0.00  0.00    +0.000 C 
ATOM     31  C   UNL     1      15.820 -10.445   0.000  0.00  0.00    +0.000 C 
ATOM     32  C   UNL     1      16.617 -10.186   0.000  0.00  0.00    +0.000 C 
ATOM     33  O   UNL     1      16.617  -9.348   0.000  0.00  0.00    +0.000 OA
ATOM     34  C   UNL     1      15.820  -9.089   0.000  0.00  0.00    +0.000 C 
ENDBRANCH  29  30
ENDBRANCH   9  29
TORSDOF 7
