REMARK  Name = 
REMARK  9 active torsions:
REMARK  status: ('A' for Active; 'I' for Inactive)
REMARK    1  A    between atoms: C_8  and  C_14
REMARK    2  A    between atoms: N_10  and  CA_12
REMARK    3  A    between atoms: C_11  and  CA_12
REMARK    4  A    between atoms: CA_12  and  CB_25
REMARK    5  A    between atoms: CD_13  and  CG_29
REMARK    6  A    between atoms: C_15  and  C_28
REMARK    7  A    between atoms: N_20  and  C_28
REMARK    8  A    between atoms: N_20  and  C_30
REMARK    9  A    between atoms: CB_25  and  CG_29
REMARK                            x       y       z     vdW  Elec       q    Type
REMARK                         _______ _______ _______ _____ _____    ______ ____
ROOT
ATOM      1  C   UNK A   0      -2.096   0.972   0.000  0.00  0.00    +0.000 A 
ATOM      2  C   UNK A   0      -1.401   0.518   0.000  0.00  0.00    +0.000 A 
ATOM      3  C   UNK A   0      -2.057   1.785   0.000  0.00  0.00    +0.000 A 
ATOM      4  C   UNK A   0      -0.617   1.726   0.000  0.00  0.00    +0.000 A 
ATOM      5  C   UNK A   0      -1.312   2.170   0.000  0.00  0.00    +0.000 A 
ATOM      6  C   UNK A   0      -0.681   0.888   0.000  0.00  0.00    +0.000 A 
ENDROOT
BRANCH   1   7
ATOM      7  C   UNK A   0      -2.841   0.577   0.000  0.00  0.00    +0.000 C 
ATOM      8  N   GLU A   1      -2.880  -0.242   0.000  0.00  0.00    +0.000 NA
ATOM      9  O   UNK A   0      -3.531   1.031   0.000  0.00  0.00    +0.000 OA
BRANCH   8  10
ATOM     10  CA  GLU A   1      -3.605  -0.612   0.000  0.00  0.00    +0.000 C 
BRANCH  10  11
ATOM     11  C   GLU A   1      -4.291  -0.168   0.000  0.00  0.00    +0.000 C 
ATOM     12  O   GLU A   1      -4.257   0.651   0.000  0.00  0.00    +0.000 OA
ATOM     13  OXT GLU A   1      -5.041  -0.552   0.000  0.00  0.00    +0.000 OA
ENDBRANCH  10  11
BRANCH  10  14
ATOM     14  CB  GLU A   1      -3.665  -1.485   0.000  0.00  0.00    +0.000 C 
BRANCH  14  15
ATOM     15  CG  GLU A   1      -2.900  -1.864   0.000  0.00  0.00    +0.000 C 
BRANCH  15  16
ATOM     16  CD  GLU A   1      -3.014  -2.683   0.000  0.00  0.00    +0.000 C 
ATOM     17  OE1 GLU A   1      -2.348  -3.211   0.000  0.00  0.00    +0.000 OA
ATOM     18  OE2 GLU A   1      -3.773  -2.979   0.000  0.00  0.00    +0.000 OA
ENDBRANCH  15  16
ENDBRANCH  14  15
ENDBRANCH  10  14
ENDBRANCH   8  10
ENDBRANCH   1   7
BRANCH   4  19
ATOM     19  N   UNK A   0       0.094   2.071   0.000  0.00  0.00    +0.000 NA
BRANCH  19  20
ATOM     20  C   UNK A   0       0.774   1.608   0.000  0.00  0.00    +0.000 C 
BRANCH  20  29
ATOM     21  N   UNK A   0       4.340   2.042   0.000  0.00  0.00    +0.000 NA
ATOM     22  N   UNK A   0       3.630   3.280   0.000  0.00  0.00    +0.000 NA
ATOM     23  C   UNK A   0       2.915   2.042   0.000  0.00  0.00    +0.000 A 
ATOM     24  C   UNK A   0       2.915   2.866   0.000  0.00  0.00    +0.000 A 
ATOM     25  C   UNK A   0       3.630   1.637   0.000  0.00  0.00    +0.000 A 
ATOM     26  C   UNK A   0       4.340   2.866   0.000  0.00  0.00    +0.000 A 
ATOM     27  N   UNK A   0       2.195   1.637   0.000  0.00  0.00    +0.000 NA
ATOM     28  N   UNK A   0       2.195   3.280   0.000  0.00  0.00    +0.000 NA
ATOM     29  C   UNK A   0       1.485   2.042   0.000  0.00  0.00    +0.000 A 
ATOM     30  N   UNK A   0       3.630   0.799   0.000  0.00  0.00    +0.000 NA
ATOM     31  C   UNK A   0       1.485   2.866   0.000  0.00  0.00    +0.000 A 
ATOM     32  N   UNK A   0       5.046   3.280   0.000  0.00  0.00    +0.000 NA
ENDBRANCH  20  29
ENDBRANCH  19  20
ENDBRANCH   4  19
TORSDOF 9
