REMARK  Name = 
REMARK  8 active torsions:
REMARK  status: ('A' for Active; 'I' for Inactive)
REMARK    1  A    between atoms: C_3  and  C_18
REMARK    2  A    between atoms: C_18  and  O_26
REMARK    3  A    between atoms: C_19  and  C_23
REMARK    4  A    between atoms: C_20  and  C_23
REMARK    5  A    between atoms: C_21  and  O_27
REMARK    6  A    between atoms: C_22  and  C_23
REMARK    7  A    between atoms: C_22  and  O_27
REMARK    8  A    between atoms: C_23  and  O_26
REMARK                            x       y       z     vdW  Elec       q    Type
REMARK                         _______ _______ _______ _____ _____    ______ ____
ROOT
ATOM      1  C   UNL     1      -2.254   2.696   0.000  0.00  0.00    +0.000 C 
ENDROOT
BRANCH   1   7
ATOM      2  C   UNL     1      -2.254   0.221   0.000  0.00  0.00    +0.000 A 
ATOM      3  C   UNL     1      -1.540   0.634   0.000  0.00  0.00    +0.000 A 
ATOM      4  C   UNL     1      -2.968   0.634   0.000  0.00  0.00    +0.000 A 
ATOM      5  C   UNL     1      -1.540   1.459   0.000  0.00  0.00    +0.000 A 
ATOM      6  C   UNL     1      -2.968   1.459   0.000  0.00  0.00    +0.000 A 
ATOM      7  C   UNL     1      -2.254   1.871   0.000  0.00  0.00    +0.000 A 
ENDBRANCH   1   7
BRANCH   1  13
ATOM      8  C   UNL     1      -2.254   5.171   0.000  0.00  0.00    +0.000 A 
ATOM      9  C   UNL     1      -2.968   4.759   0.000  0.00  0.00    +0.000 A 
ATOM     10  C   UNL     1      -1.540   4.759   0.000  0.00  0.00    +0.000 A 
ATOM     11  C   UNL     1      -2.968   3.934   0.000  0.00  0.00    +0.000 A 
ATOM     12  C   UNL     1      -1.540   3.934   0.000  0.00  0.00    +0.000 A 
ATOM     13  C   UNL     1      -2.254   3.521   0.000  0.00  0.00    +0.000 A 
ENDBRANCH   1  13
BRANCH   1  14
ATOM     14  C   UNL     1      -1.429   2.696   0.000  0.00  0.00    +0.000 C 
ATOM     15  O   UNL     1      -1.016   3.410   0.000  0.00  0.00    +0.000 OA
BRANCH  14  16
ATOM     16  O   UNL     1      -1.016   1.982   0.000  0.00  0.00    +0.000 OA
BRANCH  16  22
ATOM     17  C   UNL     1       2.284   1.982   0.000  0.00  0.00    +0.000 C 
ATOM     18  C   UNL     1       0.221   1.267   0.000  0.00  0.00    +0.000 C 
ATOM     19  C   UNL     1       0.221   2.696   0.000  0.00  0.00    +0.000 C 
ATOM     20  C   UNL     1       1.046   1.267   0.000  0.00  0.00    +0.000 C 
ATOM     21  C   UNL     1       1.046   2.696   0.000  0.00  0.00    +0.000 C 
ATOM     22  C   UNL     1      -0.191   1.982   0.000  0.00  0.00    +0.000 C 
ATOM     23  N   UNL     1       1.459   1.982   0.000  0.00  0.00    +0.000 NA
ENDBRANCH  16  22
ENDBRANCH  14  16
ENDBRANCH   1  14
BRANCH   1  24
ATOM     24  O   UNL     1      -3.079   2.696   0.000  0.00  0.00    +0.000 OA
BRANCH  24  25
ATOM     25  C   UNL     1      -3.491   3.410   0.000  0.00  0.00    +0.000 C 
BRANCH  25  27
ATOM     26  C   UNL     1      -4.729   4.125   0.000  0.00  0.00    +0.000 C 
ATOM     27  C   UNL     1      -4.316   3.410   0.000  0.00  0.00    +0.000 C 
ENDBRANCH  25  27
ENDBRANCH  24  25
ENDBRANCH   1  24
TORSDOF 8
