REMARK  Name = 
REMARK  3 active torsions:
REMARK  status: ('A' for Active; 'I' for Inactive)
REMARK    1  A    between atoms: C_11  and  C_12
REMARK    2  A    between atoms: C_12  and  O_13
REMARK    3  A    between atoms: O_13  and  P_14
REMARK                            x       y       z     vdW  Elec       q    Type
REMARK                         _______ _______ _______ _____ _____    ______ ____
ROOT
ATOM      1  N   UNL     1       7.279   0.058   0.000  0.00  0.00    +0.000 NA
ATOM      2  C   UNL     1       6.473   0.235   0.000  0.00  0.00    +0.000 A 
ATOM      3  N   UNL     1       5.917  -0.374   0.000  0.00  0.00    +0.000 NA
ATOM      4  C   UNL     1       5.112  -0.197   0.000  0.00  0.00    +0.000 A 
ATOM      5  C   UNL     1       4.862   0.590   0.000  0.00  0.00    +0.000 A 
ATOM      6  N   UNL     1       4.056   0.767   0.000  0.00  0.00    +0.000 NA
ATOM      7  C   UNL     1       3.500   0.157   0.000  0.00  0.00    +0.000 C 
ATOM      8  C   UNL     1       3.749  -0.629   0.000  0.00  0.00    +0.000 C 
ATOM      9  N   UNL     1       4.555  -0.806   0.000  0.00  0.00    +0.000 NA
ATOM     10  O   UNL     1       3.193  -1.238   0.000  0.00  0.00    +0.000 OA
ATOM     11  C   UNL     1       2.388  -1.061   0.000  0.00  0.00    +0.000 C 
ATOM     12  C   UNL     1       2.138  -0.275   0.000  0.00  0.00    +0.000 C 
ATOM     13  C   UNL     1       2.694   0.334   0.000  0.00  0.00    +0.000 C 
ATOM     14  S   UNL     1       2.287   1.052   0.000  0.00  0.00    +0.000 S 
ATOM     15 MO   UNL     1       1.478   0.886   0.000  0.00  0.00    +0.000 Mo
ATOM     16  S   UNL     1       1.697   1.681   0.000  0.00  0.00    +0.000 S 
ATOM     17  O   UNL     1       0.869   1.442   0.000  0.00  0.00    +0.000 OA
ATOM     18  O   UNL     1       0.706   0.595   0.000  0.00  0.00    +0.000 OA
ATOM     19  S   UNL     1       1.387   0.066   0.000  0.00  0.00    +0.000 S 
ATOM     20  C   UNL     1       5.418   1.199   0.000  0.00  0.00    +0.000 A 
ATOM     21  O   UNL     1       5.169   1.985   0.000  0.00  0.00    +0.000 OA
ATOM     22  N   UNL     1       6.224   1.022   0.000  0.00  0.00    +0.000 NA
ENDROOT
BRANCH  11  23
ATOM     23  C   UNL     1       1.831  -1.671   0.000  0.00  0.00    +0.000 C 
BRANCH  23  24
ATOM     24  O   UNL     1       1.026  -1.494   0.000  0.00  0.00    +0.000 OA
BRANCH  24  25
ATOM     25  P   UNL     1       0.469  -2.103   0.000  0.00  0.00    +0.000 P 
ATOM     26  O   UNL     1      -0.087  -2.712   0.000  0.00  0.00    +0.000 OA
ATOM     27  O   UNL     1      -0.140  -1.547   0.000  0.00  0.00    +0.000 OA
ATOM     28  O   UNL     1       1.079  -2.659   0.000  0.00  0.00    +0.000 OA
ENDBRANCH  24  25
ENDBRANCH  23  24
ENDBRANCH  11  23
TORSDOF 3
