REMARK  Name = 
REMARK  6 active torsions:
REMARK  status: ('A' for Active; 'I' for Inactive)
REMARK    1  A    between atoms: C_9  and  O_38
REMARK    2  A    between atoms: C_25  and  O_33
REMARK    3  A    between atoms: O_38  and  C_40
REMARK    4  A    between atoms: C_47  and  C_50
REMARK    5  A    between atoms: N_51  and  N_52
REMARK    6  A    between atoms: N_55  and  C_58
REMARK                            x       y       z     vdW  Elec       q    Type
REMARK                         _______ _______ _______ _____ _____    ______ ____
ROOT
ATOM      1  C   UNL     1      12.736  -9.554   0.000  0.00  0.00    +0.000 A 
ATOM      2  C   UNL     1      12.732 -10.386   0.000  0.00  0.00    +0.000 A 
ATOM      3  C   UNL     1      12.024 -10.797   0.000  0.00  0.00    +0.000 A 
ATOM      4  C   UNL     1      12.025 -11.626   0.000  0.00  0.00    +0.000 C 
ATOM      5  C   UNL     1      11.298 -10.391   0.000  0.00  0.00    +0.000 A 
ATOM      6  C   UNL     1      10.592  -9.154   0.000  0.00  0.00    +0.000 C 
ATOM      7  C   UNL     1      11.300  -9.570   0.000  0.00  0.00    +0.000 A 
ATOM      8  C   UNL     1      12.019  -9.166   0.000  0.00  0.00    +0.000 A 
ATOM      9  C   UNL     1      10.599  -8.331   0.000  0.00  0.00    +0.000 C 
ATOM     10  C   UNL     1      11.314  -7.923   0.000  0.00  0.00    +0.000 C 
ATOM     11  C   UNL     1      12.036  -6.700   0.000  0.00  0.00    +0.000 C 
ATOM     12  C   UNL     1      11.322  -7.101   0.000  0.00  0.00    +0.000 C 
ATOM     13  C   UNL     1      12.746  -7.116   0.000  0.00  0.00    +0.000 C 
ATOM     14  O   UNL     1      12.737  -7.934   0.000  0.00  0.00    +0.000 OA
ATOM     15  C   UNL     1      13.457  -6.717   0.000  0.00  0.00    +0.000 C 
ATOM     16  C   UNL     1      14.164  -7.132   0.000  0.00  0.00    +0.000 C 
ATOM     17  C   UNL     1      15.566  -7.964   0.000  0.00  0.00    +0.000 C 
ATOM     18  C   UNL     1      15.576  -7.149   0.000  0.00  0.00    +0.000 C 
ATOM     19  C   UNL     1      14.873  -6.735   0.000  0.00  0.00    +0.000 C 
ATOM     20  C   UNL     1      14.853  -8.365   0.000  0.00  0.00    +0.000 C 
ATOM     21  C   UNL     1      13.433  -9.150   0.000  0.00  0.00    +0.000 A 
ATOM     22  C   UNL     1      14.130  -9.566   0.000  0.00  0.00    +0.000 A 
ATOM     23  N   UNL     1      14.838  -9.175   0.000  0.00  0.00    +0.000 NA
ATOM     24  O   UNL     1      12.606 -12.211   0.000  0.00  0.00    +0.000 OA
ATOM     25  C   UNL     1       9.871  -9.563   0.000  0.00  0.00    +0.000 C 
ATOM     26  C   UNL     1       9.869 -10.387   0.000  0.00  0.00    +0.000 C 
ATOM     27  C   UNL     1       9.156 -10.795   0.000  0.00  0.00    +0.000 C 
ATOM     28  O   UNL     1       9.151 -11.617   0.000  0.00  0.00    +0.000 OA
ATOM     29  C   UNL     1      10.575 -11.627   0.000  0.00  0.00    +0.000 C 
ATOM     30  O   UNL     1      10.580 -10.805   0.000  0.00  0.00    +0.000 OA
ATOM     31  C   UNL     1      10.569 -12.451   0.000  0.00  0.00    +0.000 C 
ATOM     32  C   UNL     1      16.275  -8.389   0.000  0.00  0.00    +0.000 C 
ATOM     33  C   UNL     1       9.870  -8.736   0.000  0.00  0.00    +0.000 C 
ATOM     34  C   UNL     1      12.045  -5.873   0.000  0.00  0.00    +0.000 C 
ATOM     35  C   UNL     1      13.467  -5.890   0.000  0.00  0.00    +0.000 C 
ATOM     36  O   UNL     1      10.613  -6.677   0.000  0.00  0.00    +0.000 OA
ATOM     37  O   UNL     1      13.440  -8.323   0.000  0.00  0.00    +0.000 OA
ATOM     38  O   UNL     1      12.012  -8.337   0.000  0.00  0.00    +0.000 OA
ATOM     39  C   UNL     1      10.595  -7.510   0.000  0.00  0.00    +0.000 C 
ATOM     40  O   UNL     1      14.144  -7.938   0.000  0.00  0.00    +0.000 OA
ATOM     41  C   UNL     1      14.166 -10.383   0.000  0.00  0.00    +0.000 A 
ATOM     42  C   UNL     1      13.446 -10.795   0.000  0.00  0.00    +0.000 A 
ATOM     43  O   UNL     1      13.442 -11.621   0.000  0.00  0.00    +0.000 OA
ATOM     44  C   UNL     1      11.295  -8.727   0.000  0.00  0.00    +0.000 C 
ENDROOT
BRANCH  41  45
ATOM     45  C   UNL     1      14.888 -10.785   0.000  0.00  0.00    +0.000 C 
ATOM     46  N   UNL     1      15.599 -10.360   0.000  0.00  0.00    +0.000 NA
BRANCH  46  47
ATOM     47  N   UNL     1      16.321 -10.758   0.000  0.00  0.00    +0.000 N 
ATOM     48  C   UNL     1      16.337 -11.582   0.000  0.00  0.00    +0.000 C 
ATOM     49  C   UNL     1      17.064 -11.983   0.000  0.00  0.00    +0.000 C 
ATOM     50  N   UNL     1      17.770 -11.554   0.000  0.00  0.00    +0.000 NA
ATOM     51  C   UNL     1      17.754 -10.727   0.000  0.00  0.00    +0.000 C 
ATOM     52  C   UNL     1      17.032 -10.329   0.000  0.00  0.00    +0.000 C 
BRANCH  50  53
ATOM     53  C   UNL     1      18.492 -11.956   0.000  0.00  0.00    +0.000 C 
ATOM     54  C   UNL     1      18.600 -12.776   0.000  0.00  0.00    +0.000 C 
ATOM     55  C   UNL     1      19.412 -12.931   0.000  0.00  0.00    +0.000 C 
ATOM     56  C   UNL     1      19.814 -12.208   0.000  0.00  0.00    +0.000 C 
ATOM     57  C   UNL     1      19.249 -11.603   0.000  0.00  0.00    +0.000 C 
ENDBRANCH  50  53
ENDBRANCH  46  47
ENDBRANCH  41  45
BRANCH  25  58
ATOM     58  O   UNL     1       9.158  -9.149   0.000  0.00  0.00    +0.000 OA
ATOM     59  C   UNL     1       8.438  -9.558   0.000  0.00  0.00    +0.000 C 
ENDBRANCH  25  58
BRANCH   9  60
ATOM     60  O   UNL     1       9.884  -7.910   0.000  0.00  0.00    +0.000 OA
BRANCH  60  61
ATOM     61  C   UNL     1       9.165  -7.497   0.000  0.00  0.00    +0.000 C 
ATOM     62  C   UNL     1       8.447  -7.910   0.000  0.00  0.00    +0.000 C 
ATOM     63  O   UNL     1       9.165  -6.670   0.000  0.00  0.00    +0.000 OA
ENDBRANCH  60  61
ENDBRANCH   9  60
TORSDOF 6
