REMARK  Name = 
REMARK  2 active torsions:
REMARK  status: ('A' for Active; 'I' for Inactive)
REMARK    1  A    between atoms: C_3  and  C_5
REMARK    2  A    between atoms: C_5  and  P_6
REMARK                            x       y       z     vdW  Elec       q    Type
REMARK                         _______ _______ _______ _____ _____    ______ ____
ROOT
ATOM      1  C   UNL     1       1.952  -1.127   0.000  0.00  0.00    +0.000 C 
ENDROOT
BRANCH   1   4
ATOM      2  O   UNL     1      -0.191  -0.715   0.000  0.00  0.00    +0.000 OA
ATOM      3  N   UNL     1       0.523  -1.127   0.000  0.00  0.00    +0.000 NA
ATOM      4  C   UNL     1       1.238  -0.715   0.000  0.00  0.00    +0.000 C 
ATOM      5  O   UNL     1       1.238   0.111   0.000  0.00  0.00    +0.000 OA
ENDBRANCH   1   4
BRANCH   1   6
ATOM      6  P   UNL     1       2.666  -0.715   0.000  0.00  0.00    +0.000 P 
ATOM      7  O   UNL     1       3.381  -0.302   0.000  0.00  0.00    +0.000 OA
ATOM      8  O   UNL     1       3.079  -1.429   0.000  0.00  0.00    +0.000 OA
ATOM      9  O   UNL     1       2.254   0.000   0.000  0.00  0.00    +0.000 OA
ENDBRANCH   1   6
TORSDOF 2
