REMARK  Name = 
REMARK  17 active torsions:
REMARK  status: ('A' for Active; 'I' for Inactive)
REMARK    1  A    between atoms: C_19  and  C_21
REMARK    2  A    between atoms: C_19  and  C_38
REMARK    3  A    between atoms: C_21  and  N_54
REMARK    4  A    between atoms: C_32  and  C_36
REMARK    5  A    between atoms: C_32  and  N_55
REMARK    6  A    between atoms: C_33  and  C_38
REMARK    7  A    between atoms: C_33  and  S_63
REMARK    8  A    between atoms: C_34  and  C_42
REMARK    9  A    between atoms: C_35  and  C_45
REMARK   10  A    between atoms: C_38  and  N_52
REMARK   11  A    between atoms: C_39  and  N_56
REMARK   12  A    between atoms: C_40  and  S_63
REMARK   13  A    between atoms: C_41  and  S_65
REMARK   14  A    between atoms: C_43  and  N_52
REMARK   15  A    between atoms: C_44  and  S_64
REMARK   16  A    between atoms: C_47  and  S_64
REMARK   17  A    between atoms: N_53  and  S_65
REMARK                            x       y       z     vdW  Elec       q    Type
REMARK                         _______ _______ _______ _____ _____    ______ ____
ROOT
ATOM      1  O   UNL     1      -6.541   5.775   0.000  0.00  0.00    +0.000 OA
ATOM      2  O   UNL     1      -4.891   5.775   0.000  0.00  0.00    +0.000 OA
ATOM      3  S   UNL     1      -5.716   5.775   0.000  0.00  0.00    +0.000 S 
ENDROOT
BRANCH   3   7
ATOM      4  C   UNL     1      -5.001   4.537   0.000  0.00  0.00    +0.000 A 
ATOM      5  C   UNL     1      -5.001   3.712   0.000  0.00  0.00    +0.000 A 
ATOM      6  C   UNL     1      -6.430   4.537   0.000  0.00  0.00    +0.000 A 
ATOM      7  C   UNL     1      -5.716   4.950   0.000  0.00  0.00    +0.000 A 
ATOM      8  C   UNL     1      -5.716   3.300   0.000  0.00  0.00    +0.000 A 
ATOM      9  C   UNL     1      -6.430   3.712   0.000  0.00  0.00    +0.000 A 
BRANCH   9  12
ATOM     10  O   UNL     1      -6.732   2.586   0.000  0.00  0.00    +0.000 OA
ATOM     11  O   UNL     1      -7.859   2.888   0.000  0.00  0.00    +0.000 OA
ATOM     12  S   UNL     1      -7.145   3.300   0.000  0.00  0.00    +0.000 S 
BRANCH  12  13
ATOM     13  C   UNL     1      -7.557   4.014   0.000  0.00  0.00    +0.000 C 
ATOM     14  F   UNL     1      -7.970   4.729   0.000  0.00  0.00    +0.000 F 
ATOM     15  F   UNL     1      -6.843   4.427   0.000  0.00  0.00    +0.000 F 
ATOM     16  F   UNL     1      -8.272   3.602   0.000  0.00  0.00    +0.000 F 
ENDBRANCH  12  13
ENDBRANCH   9  12
BRANCH   8  17
ATOM     17  N   UNL     1      -5.716   2.475   0.000  0.00  0.00    +0.000 NA
BRANCH  17  18
ATOM     18  C   UNL     1      -5.001   2.062   0.000  0.00  0.00    +0.000 C 
BRANCH  18  19
ATOM     19  C   UNL     1      -5.001   1.238   0.000  0.00  0.00    +0.000 C 
BRANCH  19  20
ATOM     20  S   UNL     1      -4.287   0.825   0.000  0.00  0.00    +0.000 S 
BRANCH  20  26
ATOM     21  C   UNL     1      -4.287  -1.650   0.000  0.00  0.00    +0.000 A 
ATOM     22  C   UNL     1      -3.572  -1.238   0.000  0.00  0.00    +0.000 A 
ATOM     23  C   UNL     1      -5.001  -1.238   0.000  0.00  0.00    +0.000 A 
ATOM     24  C   UNL     1      -3.572  -0.412   0.000  0.00  0.00    +0.000 A 
ATOM     25  C   UNL     1      -5.001  -0.412   0.000  0.00  0.00    +0.000 A 
ATOM     26  C   UNL     1      -4.287   0.000   0.000  0.00  0.00    +0.000 A 
ENDBRANCH  20  26
ENDBRANCH  19  20
ENDBRANCH  18  19
BRANCH  18  27
ATOM     27  C   UNL     1      -4.287   2.475   0.000  0.00  0.00    +0.000 C 
BRANCH  27  28
ATOM     28  C   UNL     1      -4.287   3.300   0.000  0.00  0.00    +0.000 C 
BRANCH  28  33
ATOM     29  C   UNL     1      -2.858   3.300   0.000  0.00  0.00    +0.000 C 
ATOM     30  C   UNL     1      -3.572   4.537   0.000  0.00  0.00    +0.000 C 
ATOM     31  C   UNL     1      -2.143   3.712   0.000  0.00  0.00    +0.000 C 
ATOM     32  C   UNL     1      -2.858   4.950   0.000  0.00  0.00    +0.000 C 
ATOM     33  N   UNL     1      -3.572   3.712   0.000  0.00  0.00    +0.000 NA
ATOM     34  O   UNL     1      -2.143   4.537   0.000  0.00  0.00    +0.000 OA
ENDBRANCH  28  33
ENDBRANCH  27  28
ENDBRANCH  18  27
ENDBRANCH  17  18
ENDBRANCH   8  17
ENDBRANCH   3   7
BRANCH   3  36
ATOM     35  C   UNL     1      -6.430   7.013   0.000  0.00  0.00    +0.000 C 
ATOM     36  N   UNL     1      -5.716   6.600   0.000  0.00  0.00    +0.000 NA
ATOM     37  O   UNL     1      -7.145   6.600   0.000  0.00  0.00    +0.000 OA
BRANCH  35  42
ATOM     38  C   UNL     1      -5.716   8.250   0.000  0.00  0.00    +0.000 A 
ATOM     39  C   UNL     1      -7.145   8.250   0.000  0.00  0.00    +0.000 A 
ATOM     40  C   UNL     1      -5.716   9.075   0.000  0.00  0.00    +0.000 A 
ATOM     41  C   UNL     1      -7.145   9.075   0.000  0.00  0.00    +0.000 A 
ATOM     42  C   UNL     1      -6.430   7.838   0.000  0.00  0.00    +0.000 A 
ATOM     43  C   UNL     1      -6.430   9.488   0.000  0.00  0.00    +0.000 A 
BRANCH  43  49
ATOM     44  C   UNL     1      -7.145  11.550   0.000  0.00  0.00    +0.000 C 
ATOM     45  C   UNL     1      -5.716  11.550   0.000  0.00  0.00    +0.000 C 
ATOM     46  C   UNL     1      -7.145  10.725   0.000  0.00  0.00    +0.000 C 
ATOM     47  C   UNL     1      -5.716  10.725   0.000  0.00  0.00    +0.000 C 
ATOM     48  N   UNL     1      -6.430  11.963   0.000  0.00  0.00    +0.000 NA
ATOM     49  N   UNL     1      -6.430  10.312   0.000  0.00  0.00    +0.000 N 
BRANCH  48  50
ATOM     50  C   UNL     1      -6.430  12.787   0.000  0.00  0.00    +0.000 C 
BRANCH  50  56
ATOM     51  C   UNL     1      -9.386  13.343   0.000  0.00  0.00    +0.000 C 
ATOM     52  C   UNL     1      -8.856  12.425   0.000  0.00  0.00    +0.000 C 
ATOM     53  C   UNL     1      -7.859  14.438   0.000  0.00  0.00    +0.000 C 
ATOM     54  C   UNL     1      -8.574  14.025   0.000  0.00  0.00    +0.000 C 
ATOM     55  C   UNL     1      -7.859  12.787   0.000  0.00  0.00    +0.000 C 
ATOM     56  C   UNL     1      -7.145  13.200   0.000  0.00  0.00    +0.000 C 
ATOM     57  C   UNL     1      -7.145  14.025   0.000  0.00  0.00    +0.000 C 
ATOM     58  C   UNL     1      -8.574  13.200   0.000  0.00  0.00    +0.000 C 
BRANCH  57  63
ATOM     59  C   UNL     1      -5.716  14.025   0.000  0.00  0.00    +0.000 A 
ATOM     60  C   UNL     1      -6.430  15.262   0.000  0.00  0.00    +0.000 A 
ATOM     61  C   UNL     1      -5.001  14.438   0.000  0.00  0.00    +0.000 A 
ATOM     62  C   UNL     1      -5.716  15.675   0.000  0.00  0.00    +0.000 A 
ATOM     63  C   UNL     1      -6.430  14.438   0.000  0.00  0.00    +0.000 A 
ATOM     64  C   UNL     1      -5.001  15.262   0.000  0.00  0.00    +0.000 A 
ATOM     65 CL   UNL     1      -4.287  15.675   0.000  0.00  0.00    +0.000 Cl
ENDBRANCH  57  63
ENDBRANCH  50  56
ENDBRANCH  48  50
ENDBRANCH  43  49
ENDBRANCH  35  42
ENDBRANCH   3  36
TORSDOF 17
