REMARK  Name = 
REMARK  5 active torsions:
REMARK  status: ('A' for Active; 'I' for Inactive)
REMARK    1  A    between atoms: N_3  and  C_9
REMARK    2  A    between atoms: C_5  and  C_8
REMARK    3  A    between atoms: C_8  and  C_11
REMARK    4  A    between atoms: C_9  and  C_12
REMARK    5  A    between atoms: C_9  and  C_13
REMARK                            x       y       z     vdW  Elec       q    Type
REMARK                         _______ _______ _______ _____ _____    ______ ____
ROOT
ATOM      1  O   UNL     1       4.531  -0.290   0.000  0.00  0.00    +0.000 OA
ATOM      2  N   UNL     1       3.079  -0.520   0.000  0.00  0.00    +0.000 N 
ATOM      3  C   UNL     1       2.667   0.750   0.000  0.00  0.00    +0.000 C 
ATOM      4  C   UNL     1       2.412  -0.035   0.000  0.00  0.00    +0.000 C 
ATOM      5  C   UNL     1       3.492   0.750   0.000  0.00  0.00    +0.000 C 
ATOM      6  C   UNL     1       3.747  -0.035   0.000  0.00  0.00    +0.000 C 
ENDROOT
BRANCH   3   7
ATOM      7  C   UNL     1       2.182   1.417   0.000  0.00  0.00    +0.000 C 
BRANCH   7   8
ATOM      8  C   UNL     1       2.517   2.171   0.000  0.00  0.00    +0.000 C 
ATOM      9  C   UNL     1       2.032   2.838   0.000  0.00  0.00    +0.000 C 
ENDBRANCH   7   8
ENDBRANCH   3   7
BRANCH   2  10
ATOM     10  C   UNL     1       3.079  -1.345   0.000  0.00  0.00    +0.000 C 
BRANCH  10  13
ATOM     11  O   UNL     1       1.650  -1.345   0.000  0.00  0.00    +0.000 OA
ATOM     12  N   UNL     1       2.365  -2.583   0.000  0.00  0.00    +0.000 NA
ATOM     13  C   UNL     1       2.365  -1.758   0.000  0.00  0.00    +0.000 C 
ENDBRANCH  10  13
BRANCH  10  14
ATOM     14  C   UNL     1       3.793  -1.758   0.000  0.00  0.00    +0.000 C 
ATOM     15  C   UNL     1       3.793  -2.583   0.000  0.00  0.00    +0.000 C 
ENDBRANCH  10  14
ENDBRANCH   2  10
TORSDOF 5
