REMARK  Name = 
REMARK  8 active torsions:
REMARK  status: ('A' for Active; 'I' for Inactive)
REMARK    1  A    between atoms: N_5  and  C_6
REMARK    2  A    between atoms: C_6  and  C_7
REMARK    3  A    between atoms: C_7  and  C_8
REMARK    4  A    between atoms: C_8  and  O_9
REMARK    5  A    between atoms: O_9  and  C_10
REMARK    6  A    between atoms: C_13  and  O_20
REMARK    7  A    between atoms: C_19  and  O_22
REMARK    8  A    between atoms: O_22  and  C_23
REMARK                            x       y       z     vdW  Elec       q    Type
REMARK                         _______ _______ _______ _____ _____    ______ ____
ROOT
ATOM      1  C   UNL     1      -0.485  -1.200   0.000  0.00  0.00    +0.000 A 
ATOM      2  C   UNL     1       0.944  -0.375   0.000  0.00  0.00    +0.000 A 
ATOM      3  C   UNL     1       0.230   0.037   0.000  0.00  0.00    +0.000 A 
ATOM      4  C   UNL     1      -0.485  -0.375   0.000  0.00  0.00    +0.000 A 
ATOM      5  C   UNL     1       0.230  -1.613   0.000  0.00  0.00    +0.000 A 
ATOM      6  C   UNL     1       0.944  -1.200   0.000  0.00  0.00    +0.000 A 
ATOM      7  N   UNL     1       1.658  -1.613   0.000  0.00  0.00    +0.000 NA
ATOM      8  C   UNL     1       2.373  -1.200   0.000  0.00  0.00    +0.000 A 
ATOM      9  N   UNL     1       2.373  -0.375   0.000  0.00  0.00    +0.000 NA
ATOM     10  C   UNL     1       1.658   0.037   0.000  0.00  0.00    +0.000 A 
ENDROOT
BRANCH   4  11
ATOM     11  O   UNL     1      -1.200   0.037   0.000  0.00  0.00    +0.000 OA
ATOM     12  C   UNL     1      -1.914  -0.375   0.000  0.00  0.00    +0.000 C 
ENDBRANCH   4  11
BRANCH  10  13
ATOM     13  O   UNL     1       1.658   0.862   0.000  0.00  0.00    +0.000 OA
BRANCH  13  14
ATOM     14  C   UNL     1       2.663   1.400   0.000  0.00  0.00    +0.000 A 
ATOM     15  C   UNL     1       4.092   2.225   0.000  0.00  0.00    +0.000 A 
ATOM     16  C   UNL     1       3.377   2.637   0.000  0.00  0.00    +0.000 A 
ATOM     17  C   UNL     1       2.663   2.225   0.000  0.00  0.00    +0.000 A 
ATOM     18  C   UNL     1       3.377   0.987   0.000  0.00  0.00    +0.000 A 
ATOM     19  C   UNL     1       4.092   1.400   0.000  0.00  0.00    +0.000 A 
ATOM     20  N   UNL     1       4.876   2.480   0.000  0.00  0.00    +0.000 NA
ATOM     21  C   UNL     1       4.876   1.145   0.000  0.00  0.00    +0.000 A 
ATOM     22  C   UNL     1       5.361   1.812   0.000  0.00  0.00    +0.000 A 
ATOM     23  C   UNL     1       6.186   1.812   0.000  0.00  0.00    +0.000 C 
ATOM     24  F   UNL     1       3.377   0.162   0.000  0.00  0.00    +0.000 F 
ENDBRANCH  13  14
ENDBRANCH  10  13
BRANCH   1  25
ATOM     25  O   UNL     1      -1.068  -1.784   0.000  0.00  0.00    +0.000 OA
BRANCH  25  26
ATOM     26  C   UNL     1      -1.681  -1.232   0.000  0.00  0.00    +0.000 C 
BRANCH  26  27
ATOM     27  C   UNL     1      -2.466  -1.486   0.000  0.00  0.00    +0.000 C 
BRANCH  27  28
ATOM     28  C   UNL     1      -3.079  -0.934   0.000  0.00  0.00    +0.000 C 
BRANCH  28  33
ATOM     29  C   UNL     1      -4.531  -0.705   0.000  0.00  0.00    +0.000 C 
ATOM     30  C   UNL     1      -5.199  -1.189   0.000  0.00  0.00    +0.000 C 
ATOM     31  C   UNL     1      -4.944  -1.974   0.000  0.00  0.00    +0.000 C 
ATOM     32  C   UNL     1      -4.119  -1.974   0.000  0.00  0.00    +0.000 C 
ATOM     33  N   UNL     1      -3.864  -1.189   0.000  0.00  0.00    +0.000 NA
ENDBRANCH  28  33
ENDBRANCH  27  28
ENDBRANCH  26  27
ENDBRANCH  25  26
ENDBRANCH   1  25
TORSDOF 8
