REMARK  Name = 
REMARK  10 active torsions:
REMARK  status: ('A' for Active; 'I' for Inactive)
REMARK    1  A    between atoms: C_5  and  C_7
REMARK    2  A    between atoms: C_5  and  C_17
REMARK    3  A    between atoms: C_6  and  C_8
REMARK    4  A    between atoms: C_6  and  C_18
REMARK    5  A    between atoms: C_7  and  C_27
REMARK    6  A    between atoms: C_8  and  C_28
REMARK    7  A    between atoms: C_13  and  C_29
REMARK    8  A    between atoms: C_13  and  C_33
REMARK    9  A    between atoms: C_14  and  C_30
REMARK   10  A    between atoms: C_14  and  C_34
REMARK                            x       y       z     vdW  Elec       q    Type
REMARK                         _______ _______ _______ _____ _____    ______ ____
ROOT
ATOM      1  C   UNL     1       1.045   0.984   0.000  0.00  0.00    +0.000 C 
ATOM      2  C   UNL     1       5.206  -3.577   0.000  0.00  0.00    +0.000 C 
ATOM      3  C   UNL     1       7.389  -1.378   0.000  0.00  0.00    +0.000 C 
ATOM      4  C   UNL     1       5.547   0.969   0.000  0.00  0.00    +0.000 C 
ATOM      5  C   UNL     1       2.955   1.496   0.000  0.00  0.00    +0.000 C 
ATOM      6  C   UNL     1       2.749  -1.487   0.000  0.00  0.00    +0.000 C 
ATOM      7  C   UNL     1       5.732  -1.693   0.000  0.00  0.00    +0.000 C 
ATOM      8  C   UNL     1       5.939   1.290   0.000  0.00  0.00    +0.000 C 
ATOM      9  C   UNL     1       1.631   0.360   0.000  0.00  0.00    +0.000 A 
ATOM     10  C   UNL     1       4.708  -2.868   0.000  0.00  0.00    +0.000 A 
ATOM     11  C   UNL     1       1.574  -0.463   0.000  0.00  0.00    +0.000 A 
ATOM     12  C   UNL     1       3.885  -2.811   0.000  0.00  0.00    +0.000 A 
ATOM     13  C   UNL     1       2.431   0.561   0.000  0.00  0.00    +0.000 A 
ATOM     14  C   UNL     1       5.017  -2.103   0.000  0.00  0.00    +0.000 A 
ATOM     15  C   UNL     1       2.339  -0.771   0.000  0.00  0.00    +0.000 A 
ATOM     16  C   UNL     1       3.685  -2.011   0.000  0.00  0.00    +0.000 A 
ATOM     17  C   UNL     1       3.671   1.906   0.000  0.00  0.00    +0.000 C 
ATOM     18  C   UNL     1       6.349   0.574   0.000  0.00  0.00    +0.000 C 
ATOM     19  C   UNL     1       6.339  -0.675   0.000  0.00  0.00    +0.000 C 
ATOM     20  C   UNL     1       5.003   1.814   0.000  0.00  0.00    +0.000 C 
ATOM     21  C   UNL     1       3.872   1.106   0.000  0.00  0.00    +0.000 C 
ATOM     22  C   UNL     1       7.114   0.266   0.000  0.00  0.00    +0.000 C 
ATOM     23  C   UNL     1       7.057  -0.557   0.000  0.00  0.00    +0.000 C 
ATOM     24  C   UNL     1       4.695   1.049   0.000  0.00  0.00    +0.000 C 
ATOM     25 FE   UNL     1       4.361   0.143   0.000  0.00  0.00    +0.000 Fe
ATOM     26  N   UNL     1       2.869  -0.139   0.000  0.00  0.00    +0.000 N 
ATOM     27  N   UNL     1       4.384  -1.573   0.000  0.00  0.00    +0.000 N 
ATOM     28  N   UNL     1       4.371   2.344   0.000  0.00  0.00    +0.000 N 
ATOM     29  N   UNL     1       5.819  -0.058   0.000  0.00  0.00    +0.000 N 
ATOM     30  O   UNL     1       3.207   0.695   0.000  0.00  0.00    +0.000 OA
ATOM     31  O   UNL     1       7.732   0.878   0.000  0.00  0.00    +0.000 OA
ENDROOT
BRANCH  11  32
ATOM     32  C   UNL     1       0.809  -0.857   0.000  0.00  0.00    +0.000 C 
BRANCH  32  33
ATOM     33  C   UNL     1      -0.036  -0.705   0.000  0.00  0.00    +0.000 C 
BRANCH  33  34
ATOM     34  C   UNL     1      -0.687  -1.261   0.000  0.00  0.00    +0.000 C 
ATOM     35  O   UNL     1      -1.491  -0.998   0.000  0.00  0.00    +0.000 OA
ATOM     36  O   UNL     1      -0.585  -2.103   0.000  0.00  0.00    +0.000 OA
ENDBRANCH  33  34
ENDBRANCH  32  33
ENDBRANCH  11  32
BRANCH  24  37
ATOM     37  C   UNL     1       4.963   0.191   0.000  0.00  0.00    +0.000 C 
BRANCH  37  38
ATOM     38  C   UNL     1       5.204  -0.639   0.000  0.00  0.00    +0.000 C 
ATOM     39  O   UNL     1       5.887  -1.093   0.000  0.00  0.00    +0.000 OA
ATOM     40  O   UNL     1       4.954  -1.419   0.000  0.00  0.00    +0.000 OA
ENDBRANCH  37  38
ENDBRANCH  24  37
BRANCH  12  41
ATOM     41  C   UNL     1       3.397  -3.526   0.000  0.00  0.00    +0.000 C 
BRANCH  41  42
ATOM     42  C   UNL     1       3.426  -4.385   0.000  0.00  0.00    +0.000 C 
BRANCH  42  43
ATOM     43  C   UNL     1       2.785  -4.953   0.000  0.00  0.00    +0.000 C 
ATOM     44  O   UNL     1       1.966  -4.730   0.000  0.00  0.00    +0.000 OA
ATOM     45  O   UNL     1       2.934  -5.785   0.000  0.00  0.00    +0.000 OA
ENDBRANCH  42  43
ENDBRANCH  41  42
ENDBRANCH  12  41
BRANCH  23  46
ATOM     46  C   UNL     1       7.972  -0.656   0.000  0.00  0.00    +0.000 C 
BRANCH  46  47
ATOM     47  C   UNL     1       8.657  -1.223   0.000  0.00  0.00    +0.000 C 
ATOM     48  O   UNL     1       9.491  -1.045   0.000  0.00  0.00    +0.000 OA
ATOM     49  O   UNL     1       8.754  -2.079   0.000  0.00  0.00    +0.000 OA
ENDBRANCH  46  47
ENDBRANCH  23  46
TORSDOF 10
