REMARK  Name = 
REMARK  5 active torsions:
REMARK  status: ('A' for Active; 'I' for Inactive)
REMARK    1  A    between atoms: O_3  and  C_15
REMARK    2  A    between atoms: N_5  and  C_13
REMARK    3  A    between atoms: C_8  and  C_15
REMARK    4  A    between atoms: C_9  and  C_14
REMARK    5  A    between atoms: C_13  and  C_16
REMARK                            x       y       z     vdW  Elec       q    Type
REMARK                         _______ _______ _______ _____ _____    ______ ____
ROOT
ATOM      1  N   UNL     1       6.134   0.822   0.000  0.00  0.00    +0.000 NA
ATOM      2  C   UNL     1       6.528  -0.785   0.000  0.00  0.00    +0.000 C 
ATOM      3  C   UNL     1       6.742   0.011   0.000  0.00  0.00    +0.000 C 
ATOM      4  C   UNL     1       5.262  -1.811   0.000  0.00  0.00    +0.000 C 
ATOM      5  C   UNL     1       4.508  -1.476   0.000  0.00  0.00    +0.000 C 
ATOM      6  C   UNL     1       4.594  -0.655   0.000  0.00  0.00    +0.000 C 
ATOM      7  C   UNL     1       8.040  -1.411   0.000  0.00  0.00    +0.000 C 
ATOM      8  C   UNL     1       8.253  -0.615   0.000  0.00  0.00    +0.000 C 
ENDROOT
BRANCH   5  10
ATOM      9  F   UNL     1       1.650  -3.126   0.000  0.00  0.00    +0.000 F 
ATOM     10  C   UNL     1       3.793  -1.888   0.000  0.00  0.00    +0.000 A 
ATOM     11  C   UNL     1       3.793  -2.713   0.000  0.00  0.00    +0.000 A 
ATOM     12  C   UNL     1       3.079  -1.476   0.000  0.00  0.00    +0.000 A 
ATOM     13  C   UNL     1       3.079  -3.126   0.000  0.00  0.00    +0.000 A 
ATOM     14  C   UNL     1       2.365  -1.888   0.000  0.00  0.00    +0.000 A 
ATOM     15  C   UNL     1       2.365  -2.713   0.000  0.00  0.00    +0.000 A 
ENDBRANCH   5  10
BRANCH   4  17
ATOM     16  O   UNL     1       4.820  -3.170   0.000  0.00  0.00    +0.000 OA
ATOM     17  C   UNL     1       5.433  -2.618   0.000  0.00  0.00    +0.000 C 
BRANCH  17  18
ATOM     18  O   UNL     1       6.218  -2.873   0.000  0.00  0.00    +0.000 OA
ATOM     19  C   UNL     1       6.389  -3.680   0.000  0.00  0.00    +0.000 C 
ENDBRANCH  17  18
ENDBRANCH   4  17
BRANCH   1  20
ATOM     20  C   UNL     1       5.721   1.537   0.000  0.00  0.00    +0.000 C 
BRANCH  20  22
ATOM     21  I   UNL     1       6.134   3.680   0.000  0.00  0.00    +0.000 I 
ATOM     22  C   UNL     1       6.134   2.251   0.000  0.00  0.00    +0.000 C 
ATOM     23  C   UNL     1       5.721   2.966   0.000  0.00  0.00    +0.000 C 
ENDBRANCH  20  22
ENDBRANCH   1  20
TORSDOF 5
