REMARK  Name = 
REMARK  0 active torsions:
REMARK  status: ('A' for Active; 'I' for Inactive)
REMARK                            x       y       z     vdW  Elec       q    Type
REMARK                         _______ _______ _______ _____ _____    ______ ____
ROOT
ATOM      1  N   UNL     1       2.901  -2.929   0.000  0.00  0.00    +0.000 NA
ATOM      2  O   UNL     1       3.726  -2.929   0.000  0.00  0.00    +0.000 OA
ATOM      3  O   UNL     1       2.489  -2.214   0.000  0.00  0.00    +0.000 OA
ENDROOT
TORSDOF 0
