REMARK  Name = 
REMARK  4 active torsions:
REMARK  status: ('A' for Active; 'I' for Inactive)
REMARK    1  A    between atoms: C_5  and  C_6
REMARK    2  A    between atoms: C_6  and  C_7
REMARK    3  A    between atoms: C_17  and  C_18
REMARK    4  A    between atoms: C_28  and  C_30
REMARK                            x       y       z     vdW  Elec       q    Type
REMARK                         _______ _______ _______ _____ _____    ______ ____
ROOT
ATOM      1  C   UNL     1      -2.858   2.475   0.000  0.00  0.00    +0.000 C 
ATOM      2  C   UNL     1      -2.143   2.062   0.000  0.00  0.00    +0.000 C 
ATOM      3  N   UNL     1      -2.143   1.238   0.000  0.00  0.00    +0.000 N 
ATOM      4  C   UNL     1      -2.858   0.825   0.000  0.00  0.00    +0.000 C 
ATOM      5  C   UNL     1      -3.572   1.238   0.000  0.00  0.00    +0.000 C 
ATOM      6  N   UNL     1      -3.572   2.062   0.000  0.00  0.00    +0.000 NA
ATOM      7  C   UNL     1      -1.429   0.825   0.000  0.00  0.00    +0.000 A 
ATOM      8  N   UNL     1      -0.715   1.238   0.000  0.00  0.00    +0.000 NA
ATOM      9  N   UNL     1       0.000   0.825   0.000  0.00  0.00    +0.000 NA
ATOM     10  C   UNL     1       0.000   0.000   0.000  0.00  0.00    +0.000 A 
ATOM     11  C   UNL     1      -0.715  -0.412   0.000  0.00  0.00    +0.000 A 
ATOM     12  C   UNL     1      -1.429   0.000   0.000  0.00  0.00    +0.000 A 
ENDROOT
BRANCH  10  13
ATOM     13  C   UNL     1       0.715  -0.412   0.000  0.00  0.00    +0.000 A 
ATOM     14  C   UNL     1       1.429   0.000   0.000  0.00  0.00    +0.000 A 
ATOM     15  C   UNL     1       2.143  -0.412   0.000  0.00  0.00    +0.000 A 
ATOM     16  C   UNL     1       2.858   0.000   0.000  0.00  0.00    +0.000 A 
ATOM     17  C   UNL     1       3.572  -0.412   0.000  0.00  0.00    +0.000 A 
ATOM     18  C   UNL     1       3.572  -1.238   0.000  0.00  0.00    +0.000 A 
ATOM     19  C   UNL     1       2.858  -1.650   0.000  0.00  0.00    +0.000 A 
ATOM     20  C   UNL     1       2.143  -1.238   0.000  0.00  0.00    +0.000 A 
ATOM     21  C   UNL     1       1.429  -1.650   0.000  0.00  0.00    +0.000 A 
ATOM     22  C   UNL     1       0.715  -1.238   0.000  0.00  0.00    +0.000 A 
ENDBRANCH  10  13
BRANCH  11  23
ATOM     23  C   UNL     1      -0.715  -1.238   0.000  0.00  0.00    +0.000 A 
ATOM     24  C   UNL     1       0.000  -1.650   0.000  0.00  0.00    +0.000 A 
ATOM     25  C   UNL     1       0.000  -2.475   0.000  0.00  0.00    +0.000 A 
ATOM     26  N   UNL     1      -0.715  -2.888   0.000  0.00  0.00    +0.000 NA
ATOM     27  C   UNL     1      -1.429  -2.475   0.000  0.00  0.00    +0.000 A 
ATOM     28  C   UNL     1      -1.429  -1.650   0.000  0.00  0.00    +0.000 A 
ENDBRANCH  11  23
BRANCH   5  29
ATOM     29  C   UNL     1      -4.287   0.825   0.000  0.00  0.00    +0.000 C 
BRANCH  29  30
ATOM     30  C   UNL     1      -5.001   1.238   0.000  0.00  0.00    +0.000 A 
ATOM     31  C   UNL     1      -5.716   0.825   0.000  0.00  0.00    +0.000 A 
ATOM     32  C   UNL     1      -6.430   1.238   0.000  0.00  0.00    +0.000 A 
ATOM     33  C   UNL     1      -6.430   2.062   0.000  0.00  0.00    +0.000 A 
ATOM     34  C   UNL     1      -5.716   2.475   0.000  0.00  0.00    +0.000 A 
ATOM     35  C   UNL     1      -5.001   2.062   0.000  0.00  0.00    +0.000 A 
ENDBRANCH  29  30
ENDBRANCH   5  29
TORSDOF 4
