REMARK  Name = 
REMARK  11 active torsions:
REMARK  status: ('A' for Active; 'I' for Inactive)
REMARK    1  A    between atoms: C_2  and  C_3
REMARK    2  A    between atoms: C_5  and  O_6
REMARK    3  A    between atoms: O_6  and  C_7
REMARK    4  A    between atoms: C_12  and  O_13
REMARK    5  A    between atoms: O_13  and  C_14
REMARK    6  A    between atoms: C_14  and  C_15
REMARK    7  A    between atoms: C_15  and  C_16
REMARK    8  A    between atoms: C_16  and  C_17
REMARK    9  A    between atoms: C_17  and  C_18
REMARK   10  A    between atoms: C_18  and  C_19
REMARK   11  A    between atoms: C_26  and  C_27
REMARK                            x       y       z     vdW  Elec       q    Type
REMARK                         _______ _______ _______ _____ _____    ______ ____
ROOT
ATOM      1  C   UNL     1      -0.715  -2.888   0.000  0.00  0.00    +0.000 C 
ATOM      2  C   UNL     1       0.000  -2.475   0.000  0.00  0.00    +0.000 C 
ATOM      3  O   UNL     1       0.000  -1.650   0.000  0.00  0.00    +0.000 OA
ATOM      4  C   UNL     1       0.715  -2.888   0.000  0.00  0.00    +0.000 C 
ATOM      5  O   UNL     1       1.429  -2.475   0.000  0.00  0.00    +0.000 OA
ATOM      6  C   UNL     1       0.715  -3.712   0.000  0.00  0.00    +0.000 C 
ATOM      7  O   UNL     1       0.000  -4.125   0.000  0.00  0.00    +0.000 OA
ATOM      8  C   UNL     1      -0.715  -3.712   0.000  0.00  0.00    +0.000 C 
ENDROOT
BRANCH   8   9
ATOM      9  C   UNL     1      -1.429  -4.125   0.000  0.00  0.00    +0.000 C 
ATOM     10  O   UNL     1      -2.143  -3.712   0.000  0.00  0.00    +0.000 OA
ENDBRANCH   8   9
BRANCH   1  11
ATOM     11  O   UNL     1      -1.429  -2.475   0.000  0.00  0.00    +0.000 OA
BRANCH  11  14
ATOM     12  C   UNL     1      -0.715  -0.412   0.000  0.00  0.00    +0.000 C 
ATOM     13  O   UNL     1      -0.715  -1.238   0.000  0.00  0.00    +0.000 OA
ATOM     14  C   UNL     1      -1.429  -1.650   0.000  0.00  0.00    +0.000 C 
ATOM     15  C   UNL     1      -2.143  -1.238   0.000  0.00  0.00    +0.000 C 
ATOM     16  O   UNL     1      -2.858  -1.650   0.000  0.00  0.00    +0.000 OA
ATOM     17  C   UNL     1      -2.143  -0.412   0.000  0.00  0.00    +0.000 C 
ATOM     18  O   UNL     1      -2.858   0.000   0.000  0.00  0.00    +0.000 OA
ATOM     19  C   UNL     1      -1.429   0.000   0.000  0.00  0.00    +0.000 C 
ATOM     20  O   UNL     1      -1.429   0.825   0.000  0.00  0.00    +0.000 OA
BRANCH  12  22
ATOM     21  O   UNL     1       0.000   0.825   0.000  0.00  0.00    +0.000 OA
ATOM     22  C   UNL     1       0.000   0.000   0.000  0.00  0.00    +0.000 C 
ENDBRANCH  12  22
ENDBRANCH  11  14
ENDBRANCH   1  11
BRANCH   6  23
ATOM     23  O   UNL     1       1.429  -4.125   0.000  0.00  0.00    +0.000 OA
BRANCH  23  24
ATOM     24  C   UNL     1       2.143  -3.712   0.000  0.00  0.00    +0.000 C 
BRANCH  24  25
ATOM     25  C   UNL     1       2.858  -4.125   0.000  0.00  0.00    +0.000 C 
BRANCH  25  26
ATOM     26  C   UNL     1       3.572  -3.712   0.000  0.00  0.00    +0.000 C 
BRANCH  26  27
ATOM     27  C   UNL     1       4.287  -4.125   0.000  0.00  0.00    +0.000 C 
BRANCH  27  28
ATOM     28  C   UNL     1       5.001  -3.712   0.000  0.00  0.00    +0.000 C 
BRANCH  28  29
ATOM     29  C   UNL     1       5.716  -4.125   0.000  0.00  0.00    +0.000 C 
ATOM     30  C   UNL     1       6.430  -3.712   0.000  0.00  0.00    +0.000 C 
ATOM     31  C   UNL     1       7.145  -4.125   0.000  0.00  0.00    +0.000 C 
ATOM     32  C   UNL     1       7.145  -4.950   0.000  0.00  0.00    +0.000 C 
ATOM     33  C   UNL     1       6.430  -5.362   0.000  0.00  0.00    +0.000 C 
ATOM     34  C   UNL     1       5.716  -4.950   0.000  0.00  0.00    +0.000 C 
ENDBRANCH  28  29
ENDBRANCH  27  28
ENDBRANCH  26  27
ENDBRANCH  25  26
ENDBRANCH  24  25
ENDBRANCH  23  24
ENDBRANCH   6  23
TORSDOF 11
