REMARK  Name = 
REMARK  4 active torsions:
REMARK  status: ('A' for Active; 'I' for Inactive)
REMARK    1  A    between atoms: C_7  and  S_12
REMARK    2  A    between atoms: S_12  and  N_15
REMARK    3  A    between atoms: C_21  and  C_23
REMARK    4  A    between atoms: N_26  and  C_29
REMARK                            x       y       z     vdW  Elec       q    Type
REMARK                         _______ _______ _______ _____ _____    ______ ____
ROOT
ATOM      1  N   UNL     1       5.001   0.412   0.000  0.00  0.00    +0.000 NA
ATOM      2  C   UNL     1       5.001   1.238   0.000  0.00  0.00    +0.000 C 
ATOM      3  C   UNL     1       5.716   1.650   0.000  0.00  0.00    +0.000 C 
ATOM      4  N   UNL     1       6.430   1.238   0.000  0.00  0.00    +0.000 N 
ATOM      5  C   UNL     1       6.430   0.412   0.000  0.00  0.00    +0.000 C 
ATOM      6  C   UNL     1       5.716   0.000   0.000  0.00  0.00    +0.000 C 
ATOM      7  C   UNL     1       7.145   1.650   0.000  0.00  0.00    +0.000 C 
ATOM      8  O   UNL     1       7.145   2.475   0.000  0.00  0.00    +0.000 OA
ENDROOT
BRANCH   7   9
ATOM      9  C   UNL     1       7.859   1.238   0.000  0.00  0.00    +0.000 C 
ATOM     10  C   UNL     1       8.574   1.650   0.000  0.00  0.00    +0.000 C 
ATOM     11  C   UNL     1       9.288   1.238   0.000  0.00  0.00    +0.000 C 
ATOM     12  N   UNL     1       9.288   0.412   0.000  0.00  0.00    +0.000 N 
ATOM     13  C   UNL     1       8.574   0.000   0.000  0.00  0.00    +0.000 C 
ATOM     14  C   UNL     1       7.859   0.412   0.000  0.00  0.00    +0.000 C 
BRANCH  12  15
ATOM     15  C   UNL     1      10.003   0.000   0.000  0.00  0.00    +0.000 A 
ATOM     16  C   UNL     1      10.717   0.412   0.000  0.00  0.00    +0.000 A 
ATOM     17  C   UNL     1      11.431   0.000   0.000  0.00  0.00    +0.000 A 
ATOM     18  N   UNL     1      11.431  -0.825   0.000  0.00  0.00    +0.000 NA
ATOM     19  C   UNL     1      10.717  -1.238   0.000  0.00  0.00    +0.000 A 
ATOM     20  C   UNL     1      10.003  -0.825   0.000  0.00  0.00    +0.000 A 
ENDBRANCH  12  15
ENDBRANCH   7   9
BRANCH   1  21
ATOM     21  S   UNL     1       4.287   0.000   0.000  0.00  0.00    +0.000 S 
ATOM     22  O   UNL     1       4.699  -0.715   0.000  0.00  0.00    +0.000 OA
ATOM     23  O   UNL     1       3.874   0.715   0.000  0.00  0.00    +0.000 OA
BRANCH  21  30
ATOM     24 CL   UNL     1       0.000  -1.650   0.000  0.00  0.00    +0.000 Cl
ATOM     25  C   UNL     1       0.715  -1.238   0.000  0.00  0.00    +0.000 A 
ATOM     26  C   UNL     1       0.715  -0.412   0.000  0.00  0.00    +0.000 A 
ATOM     27  C   UNL     1       1.429   0.000   0.000  0.00  0.00    +0.000 A 
ATOM     28  C   UNL     1       2.143  -0.412   0.000  0.00  0.00    +0.000 A 
ATOM     29  C   UNL     1       2.858   0.000   0.000  0.00  0.00    +0.000 A 
ATOM     30  C   UNL     1       3.572  -0.412   0.000  0.00  0.00    +0.000 A 
ATOM     31  C   UNL     1       3.572  -1.238   0.000  0.00  0.00    +0.000 A 
ATOM     32  C   UNL     1       2.858  -1.650   0.000  0.00  0.00    +0.000 A 
ATOM     33  C   UNL     1       2.143  -1.238   0.000  0.00  0.00    +0.000 A 
ATOM     34  C   UNL     1       1.429  -1.650   0.000  0.00  0.00    +0.000 A 
ENDBRANCH  21  30
ENDBRANCH   1  21
TORSDOF 4
