REMARK  Name = 
REMARK  2 active torsions:
REMARK  status: ('A' for Active; 'I' for Inactive)
REMARK    1  A    between atoms: C_1  and  C_2
REMARK    2  A    between atoms: C_2  and  C_5
REMARK                            x       y       z     vdW  Elec       q    Type
REMARK                         _______ _______ _______ _____ _____    ______ ____
ROOT
ATOM      1  C   UNL     1      15.000  -9.511   0.000  0.00  0.00    +0.000 A 
ATOM      2  C   UNL     1      14.993 -10.332   0.000  0.00  0.00    +0.000 A 
ATOM      3  C   UNL     1      15.711  -9.092   0.000  0.00  0.00    +0.000 A 
ATOM      4  C   UNL     1      15.711 -10.744   0.000  0.00  0.00    +0.000 A 
ATOM      5 CL   UNL     1      14.279 -10.741   0.000  0.00  0.00    +0.000 Cl
ATOM      6  C   UNL     1      16.425  -9.505   0.000  0.00  0.00    +0.000 A 
ATOM      7 CL   UNL     1      15.707  -8.265   0.000  0.00  0.00    +0.000 Cl
ATOM      8  C   UNL     1      16.425 -10.332   0.000  0.00  0.00    +0.000 A 
ENDROOT
BRANCH   1   9
ATOM      9  C   UNL     1      14.282  -9.096   0.000  0.00  0.00    +0.000 C 
BRANCH   9  10
ATOM     10  C   UNL     1      13.571  -9.511   0.000  0.00  0.00    +0.000 C 
ATOM     11  N   UNL     1      12.857  -9.096   0.000  0.00  0.00    +0.000 NA
ATOM     12  O   UNL     1      13.571 -10.335   0.000  0.00  0.00    +0.000 OA
ATOM     13  C   UNL     1      12.139  -9.511   0.000  0.00  0.00    +0.000 C 
ATOM     14  N   UNL     1      11.425  -9.096   0.000  0.00  0.00    +0.000 NA
ATOM     15  N   UNL     1      12.139 -10.335   0.000  0.00  0.00    +0.000 NA
ENDBRANCH   9  10
ENDBRANCH   1   9
TORSDOF 2
