REMARK  Name = 
REMARK  1 active torsions:
REMARK  status: ('A' for Active; 'I' for Inactive)
REMARK    1  A    between atoms: C_4  and  C_9
REMARK                            x       y       z     vdW  Elec       q    Type
REMARK                         _______ _______ _______ _____ _____    ______ ____
ROOT
ATOM      1  O   UNL     1       5.665   1.429   0.000  0.00  0.00    +0.000 OA
ATOM      2  O   UNL     1       8.578   1.449   0.000  0.00  0.00    +0.000 OA
ATOM      3  C   UNL     1       4.951   0.192   0.000  0.00  0.00    +0.000 C 
ATOM      4  C   UNL     1       4.951   1.017   0.000  0.00  0.00    +0.000 C 
ATOM      5  C   UNL     1       6.380   0.192   0.000  0.00  0.00    +0.000 A 
ATOM      6  C   UNL     1       5.665  -0.221   0.000  0.00  0.00    +0.000 C 
ATOM      7  C   UNL     1       6.380   1.017   0.000  0.00  0.00    +0.000 A 
ATOM      8  C   UNL     1       7.117  -0.249   0.000  0.00  0.00    +0.000 A 
ATOM      9  C   UNL     1       7.117   1.458   0.000  0.00  0.00    +0.000 A 
ATOM     10  C   UNL     1       7.865   1.034   0.000  0.00  0.00    +0.000 A 
ATOM     11  C   UNL     1       7.865   0.175   0.000  0.00  0.00    +0.000 A 
ENDROOT
BRANCH   3  13
ATOM     12  O   UNL     1       2.093  -1.458   0.000  0.00  0.00    +0.000 OA
ATOM     13  C   UNL     1       4.236  -0.221   0.000  0.00  0.00    +0.000 A 
ATOM     14  C   UNL     1       3.522   0.192   0.000  0.00  0.00    +0.000 A 
ATOM     15  C   UNL     1       4.236  -1.046   0.000  0.00  0.00    +0.000 A 
ATOM     16  C   UNL     1       2.808  -0.221   0.000  0.00  0.00    +0.000 A 
ATOM     17  C   UNL     1       3.522  -1.458   0.000  0.00  0.00    +0.000 A 
ATOM     18  C   UNL     1       2.808  -1.046   0.000  0.00  0.00    +0.000 A 
ENDBRANCH   3  13
TORSDOF 1
