REMARK  Name = 
REMARK  3 active torsions:
REMARK  status: ('A' for Active; 'I' for Inactive)
REMARK    1  A    between atoms: CB_2  and  CA_4
REMARK    2  A    between atoms: CA_4  and  N_5
REMARK    3  A    between atoms: CA_4  and  C_9
REMARK                            x       y       z     vdW  Elec       q    Type
REMARK                         _______ _______ _______ _____ _____    ______ ____
ROOT
ATOM      1  CA  VAL A   1       1.952  -1.127   0.000  0.00  0.00    +0.000 C 
ENDROOT
BRANCH   1   2
ATOM      2  N   VAL A   1       1.238  -0.715   0.000  0.00  0.00    +0.000 NA
ATOM      3  C   UNK A   0       1.238   0.111   0.000  0.00  0.00    +0.000 C 
ATOM      4  N   UNK A   0       0.523   0.523   0.000  0.00  0.00    +0.000 NA
ATOM      5  O   UNK A   0       1.952   0.523   0.000  0.00  0.00    +0.000 OA
ENDBRANCH   1   2
BRANCH   1   7
ATOM      6  CG1 VAL A   1       2.666  -2.365   0.000  0.00  0.00    +0.000 C 
ATOM      7  CB  VAL A   1       1.952  -1.952   0.000  0.00  0.00    +0.000 C 
ATOM      8  CG2 VAL A   1       1.238  -2.365   0.000  0.00  0.00    +0.000 C 
ENDBRANCH   1   7
BRANCH   1   9
ATOM      9  C   VAL A   1       2.666  -0.715   0.000  0.00  0.00    +0.000 C 
ATOM     10  O   VAL A   1       2.666   0.111   0.000  0.00  0.00    +0.000 OA
ATOM     11  OXT VAL A   1       3.381  -1.127   0.000  0.00  0.00    +0.000 OA
ENDBRANCH   1   9
TORSDOF 3
