REMARK  Name = 
REMARK  10 active torsions:
REMARK  status: ('A' for Active; 'I' for Inactive)
REMARK    1  A    between atoms: C_1  and  C_2
REMARK    2  A    between atoms: C_1  and  C_3
REMARK    3  A    between atoms: C_2  and  C_4
REMARK    4  A    between atoms: C_3  and  C_6
REMARK    5  A    between atoms: C_4  and  C_11
REMARK    6  A    between atoms: C_5  and  C_7
REMARK    7  A    between atoms: C_8  and  C_12
REMARK    8  A    between atoms: C_8  and  S_29
REMARK    9  A    between atoms: C_11  and  S_29
REMARK   10  A    between atoms: C_18  and  N_25
REMARK                            x       y       z     vdW  Elec       q    Type
REMARK                         _______ _______ _______ _____ _____    ______ ____
ROOT
ATOM      1  C   UNL     1      -4.747   6.189   0.000  0.00  0.00    +0.000 C 
ATOM      2  C   UNL     1      -4.833   7.010   0.000  0.00  0.00    +0.000 C 
ATOM      3  C   UNL     1      -5.640   7.181   0.000  0.00  0.00    +0.000 C 
ATOM      4  C   UNL     1      -6.052   6.467   0.000  0.00  0.00    +0.000 C 
ATOM      5  O   UNL     1      -4.220   7.562   0.000  0.00  0.00    +0.000 OA
ATOM      6  O   UNL     1      -5.975   7.935   0.000  0.00  0.00    +0.000 OA
ATOM      7  O   UNL     1      -5.500   5.854   0.000  0.00  0.00    +0.000 OA
ENDROOT
BRANCH   4  17
ATOM      8  C   UNL     1      -8.006   8.299   0.000  0.00  0.00    +0.000 A 
ATOM      9  C   UNL     1      -7.285   5.666   0.000  0.00  0.00    +0.000 A 
ATOM     10  C   UNL     1      -8.179   6.658   0.000  0.00  0.00    +0.000 A 
ATOM     11  C   UNL     1      -8.846   7.143   0.000  0.00  0.00    +0.000 A 
ATOM     12  C   UNL     1      -7.425   6.994   0.000  0.00  0.00    +0.000 A 
ATOM     13  N   UNL     1      -9.600   6.807   0.000  0.00  0.00    +0.000 NA
ATOM     14  N   UNL     1      -8.760   7.963   0.000  0.00  0.00    +0.000 NA
ATOM     15  N   UNL     1      -7.339   7.814   0.000  0.00  0.00    +0.000 NA
ATOM     16  N   UNL     1      -8.092   5.838   0.000  0.00  0.00    +0.000 NA
ATOM     17  N   UNL     1      -6.873   6.380   0.000  0.00  0.00    +0.000 N 
ENDBRANCH   4  17
BRANCH   1  18
ATOM     18  C   UNL     1      -4.032   5.777   0.000  0.00  0.00    +0.000 C 
BRANCH  18  19
ATOM     19  S   UNL     1      -3.318   6.189   0.000  0.00  0.00    +0.000 S 
BRANCH  19  21
ATOM     20  C   UNL     1      -2.603   4.952   0.000  0.00  0.00    +0.000 C 
ATOM     21  C   UNL     1      -2.603   5.777   0.000  0.00  0.00    +0.000 C 
BRANCH  20  22
ATOM     22  C   UNL     1      -3.318   4.539   0.000  0.00  0.00    +0.000 C 
ATOM     23  N   UNL     1      -3.318   3.714   0.000  0.00  0.00    +0.000 NA
ENDBRANCH  20  22
BRANCH  21  24
ATOM     24  C   UNL     1      -1.889   6.189   0.000  0.00  0.00    +0.000 C 
BRANCH  24  25
ATOM     25  C   UNL     1      -1.174   5.777   0.000  0.00  0.00    +0.000 C 
BRANCH  25  26
ATOM     26  C   UNL     1      -0.460   6.189   0.000  0.00  0.00    +0.000 C 
BRANCH  26  27
ATOM     27  C   UNL     1       0.255   5.777   0.000  0.00  0.00    +0.000 C 
BRANCH  27  28
ATOM     28  C   UNL     1       0.969   6.189   0.000  0.00  0.00    +0.000 C 
ATOM     29  N   UNL     1       1.684   5.777   0.000  0.00  0.00    +0.000 NA
ENDBRANCH  27  28
ENDBRANCH  26  27
ENDBRANCH  25  26
ENDBRANCH  24  25
ENDBRANCH  21  24
ENDBRANCH  19  21
ENDBRANCH  18  19
ENDBRANCH   1  18
TORSDOF 10
