REMARK  Name = 
REMARK  4 active torsions:
REMARK  status: ('A' for Active; 'I' for Inactive)
REMARK    1  A    between atoms: C_1  and  C_5
REMARK    2  A    between atoms: C_5  and  C_12
REMARK    3  A    between atoms: C_11  and  C_15
REMARK    4  A    between atoms: C_15  and  C_20
REMARK                            x       y       z     vdW  Elec       q    Type
REMARK                         _______ _______ _______ _____ _____    ______ ____
ROOT
ATOM      1  C   UNL     1      13.534  -5.181   0.000  0.00  0.00    +0.000 C 
ATOM      2  C   UNL     1      12.746  -5.429   0.000  0.00  0.00    +0.000 C 
ATOM      3  C   UNL     1      14.012  -5.853   0.000  0.00  0.00    +0.000 C 
ATOM      4  O   UNL     1      14.023  -4.519   0.000  0.00  0.00    +0.000 OA
ATOM      5  C   UNL     1      12.739  -6.248   0.000  0.00  0.00    +0.000 C 
ATOM      6  C   UNL     1      12.042  -5.012   0.000  0.00  0.00    +0.000 C 
ATOM      7  C   UNL     1      12.728  -4.436   0.000  0.00  0.00    +0.000 C 
ATOM      8  C   UNL     1      13.519  -6.511   0.000  0.00  0.00    +0.000 C 
ATOM      9  O   UNL     1      14.792  -5.605   0.000  0.00  0.00    +0.000 OA
ATOM     10  C   UNL     1      14.803  -4.785   0.000  0.00  0.00    +0.000 C 
ATOM     11  C   UNL     1      12.027  -6.658   0.000  0.00  0.00    +0.000 C 
ATOM     12  C   UNL     1      11.326  -5.418   0.000  0.00  0.00    +0.000 C 
ATOM     13  C   UNL     1      11.319  -6.241   0.000  0.00  0.00    +0.000 C 
ATOM     14  C   UNL     1      12.027  -7.485   0.000  0.00  0.00    +0.000 C 
ATOM     15  O   UNL     1      10.467  -4.778   0.000  0.00  0.00    +0.000 OA
ATOM     16  C   UNL     1      10.596  -6.648   0.000  0.00  0.00    +0.000 C 
ATOM     17  C   UNL     1      11.312  -7.895   0.000  0.00  0.00    +0.000 C 
ATOM     18  C   UNL     1      10.593  -7.478   0.000  0.00  0.00    +0.000 C 
ATOM     19  C   UNL     1       9.884  -6.238   0.000  0.00  0.00    +0.000 C 
ATOM     20  C   UNL     1      10.589  -5.652   0.000  0.00  0.00    +0.000 C 
ATOM     21  C   UNL     1       9.884  -7.892   0.000  0.00  0.00    +0.000 C 
ATOM     22  C   UNL     1       9.169  -6.648   0.000  0.00  0.00    +0.000 C 
ATOM     23  C   UNL     1       9.169  -7.478   0.000  0.00  0.00    +0.000 C 
ATOM     24  O   UNL     1       8.450  -7.892   0.000  0.00  0.00    +0.000 OA
ENDROOT
BRANCH   1  25
ATOM     25  C   UNL     1      13.563  -4.055   0.000  0.00  0.00    +0.000 C 
ATOM     26  O   UNL     1      14.277  -3.643   0.000  0.00  0.00    +0.000 OA
BRANCH  25  27
ATOM     27  C   UNL     1      12.746  -3.552   0.000  0.00  0.00    +0.000 C 
ATOM     28  O   UNL     1      12.732  -2.596   0.000  0.00  0.00    +0.000 OA
ENDBRANCH  25  27
ENDBRANCH   1  25
BRANCH  10  29
ATOM     29  C   UNL     1      15.529  -4.354   0.000  0.00  0.00    +0.000 C 
BRANCH  29  30
ATOM     30  C   UNL     1      16.195  -4.731   0.000  0.00  0.00    +0.000 C 
ATOM     31  C   UNL     1      16.906  -4.307   0.000  0.00  0.00    +0.000 C 
ENDBRANCH  29  30
ENDBRANCH  10  29
TORSDOF 4
