REMARK  Name = 
REMARK  3 active torsions:
REMARK  status: ('A' for Active; 'I' for Inactive)
REMARK    1  A    between atoms: C_14  and  N_28
REMARK    2  A    between atoms: C_15  and  N_30
REMARK    3  A    between atoms: C_16  and  C_22
REMARK                            x       y       z     vdW  Elec       q    Type
REMARK                         _______ _______ _______ _____ _____    ______ ____
ROOT
ATOM      1  C   UNL     1       3.848  -1.732   0.000  0.00  0.00    +0.000 A 
ATOM      2  C   UNL     1       3.028  -1.641   0.000  0.00  0.00    +0.000 A 
ATOM      3  C   UNL     1       4.006  -0.311   0.000  0.00  0.00    +0.000 A 
ATOM      4  C   UNL     1       1.486   0.518   0.000  0.00  0.00    +0.000 C 
ATOM      5  C   UNL     1       0.018  -1.974   0.000  0.00  0.00    +0.000 C 
ATOM      6  C   UNL     1       4.337  -1.067   0.000  0.00  0.00    +0.000 A 
ATOM      7  C   UNL     1       3.186  -0.221   0.000  0.00  0.00    +0.000 A 
ATOM      8  C   UNL     1       0.642  -1.435   0.000  0.00  0.00    +0.000 C 
ATOM      9  C   UNL     1       2.697  -0.885   0.000  0.00  0.00    +0.000 A 
ATOM     10  C   UNL     1       1.334  -0.293   0.000  0.00  0.00    +0.000 C 
ATOM     11  C   UNL     1       2.971   0.576   0.000  0.00  0.00    +0.000 C 
ATOM     12  C   UNL     1       1.446  -1.623   0.000  0.00  0.00    +0.000 C 
ATOM     13  N   UNL     1       2.215   0.905   0.000  0.00  0.00    +0.000 NA
ATOM     14  N   UNL     1       0.573  -0.613   0.000  0.00  0.00    +0.000 NA
ATOM     15  N   UNL     1       1.873  -0.917   0.000  0.00  0.00    +0.000 N 
ATOM     16  O   UNL     1       1.765  -2.384   0.000  0.00  0.00    +0.000 OA
ENDROOT
BRANCH   5  23
ATOM     17  C   UNL     1      -3.099  -0.889   0.000  0.00  0.00    +0.000 C 
ATOM     18  C   UNL     1      -2.165  -1.971   0.000  0.00  0.00    +0.000 C 
ATOM     19  C   UNL     1      -1.695  -0.621   0.000  0.00  0.00    +0.000 C 
ATOM     20  C   UNL     1      -1.386  -2.242   0.000  0.00  0.00    +0.000 C 
ATOM     21  C   UNL     1      -0.916  -0.892   0.000  0.00  0.00    +0.000 C 
ATOM     22  N   UNL     1      -2.320  -1.160   0.000  0.00  0.00    +0.000 NA
ATOM     23  N   UNL     1      -0.761  -1.703   0.000  0.00  0.00    +0.000 N 
ENDBRANCH   5  23
BRANCH  11  28
ATOM     24  C   UNL     1       4.999   1.383   0.000  0.00  0.00    +0.000 A 
ATOM     25  C   UNL     1       4.845   2.193   0.000  0.00  0.00    +0.000 A 
ATOM     26  C   UNL     1       4.375   0.844   0.000  0.00  0.00    +0.000 A 
ATOM     27  C   UNL     1       4.065   2.465   0.000  0.00  0.00    +0.000 A 
ATOM     28  C   UNL     1       3.596   1.115   0.000  0.00  0.00    +0.000 A 
ATOM     29  C   UNL     1       3.441   1.926   0.000  0.00  0.00    +0.000 A 
ATOM     30 CL   UNL     1       2.662   2.197   0.000  0.00  0.00    +0.000 Cl
ENDBRANCH  11  28
BRANCH   6  31
ATOM     31  N   UNL     1       5.157  -1.158   0.000  0.00  0.00    +0.000 N 
ATOM     32  O   UNL     1       5.646  -0.494   0.000  0.00  0.00    +0.000 OA
ATOM     33  O   UNL     1       5.488  -1.914   0.000  0.00  0.00    +0.000 OA
ENDBRANCH   6  31
TORSDOF 3
