REMARK  Name = 
REMARK  8 active torsions:
REMARK  status: ('A' for Active; 'I' for Inactive)
REMARK    1  A    between atoms: C_15  and  C_17
REMARK    2  A    between atoms: C_15  and  C_22
REMARK    3  A    between atoms: C_20  and  C_24
REMARK    4  A    between atoms: C_21  and  S_36
REMARK    5  A    between atoms: C_22  and  C_25
REMARK    6  A    between atoms: C_22  and  N_29
REMARK    7  A    between atoms: C_23  and  C_26
REMARK    8  A    between atoms: N_29  and  S_36
REMARK                            x       y       z     vdW  Elec       q    Type
REMARK                         _______ _______ _______ _____ _____    ______ ____
ROOT
ATOM      1  C   UNL     1       3.572   3.712   0.000  0.00  0.00    +0.000 C 
ENDROOT
BRANCH   1   7
ATOM      2  C   UNL     1       2.858   6.600   0.000  0.00  0.00    +0.000 C 
ATOM      3  C   UNL     1       3.572   6.188   0.000  0.00  0.00    +0.000 C 
ATOM      4  C   UNL     1       2.143   6.188   0.000  0.00  0.00    +0.000 C 
ATOM      5  C   UNL     1       3.572   5.362   0.000  0.00  0.00    +0.000 C 
ATOM      6  C   UNL     1       2.143   5.362   0.000  0.00  0.00    +0.000 C 
ATOM      7  C   UNL     1       2.858   4.125   0.000  0.00  0.00    +0.000 C 
ATOM      8  N   UNL     1       2.858   4.950   0.000  0.00  0.00    +0.000 N 
ATOM      9  O   UNL     1       2.143   3.712   0.000  0.00  0.00    +0.000 OA
BRANCH   6  10
ATOM     10  C   UNL     1       1.429   4.950   0.000  0.00  0.00    +0.000 C 
ATOM     11  O   UNL     1       1.429   4.125   0.000  0.00  0.00    +0.000 OA
ATOM     12  O   UNL     1       0.715   5.362   0.000  0.00  0.00    +0.000 OA
ENDBRANCH   6  10
ENDBRANCH   1   7
BRANCH   1  13
ATOM     13  C   UNL     1       4.287   4.125   0.000  0.00  0.00    +0.000 C 
BRANCH  13  18
ATOM     14  C   UNL     1       5.716   2.475   0.000  0.00  0.00    +0.000 A 
ATOM     15  C   UNL     1       5.001   2.888   0.000  0.00  0.00    +0.000 A 
ATOM     16  C   UNL     1       6.430   2.888   0.000  0.00  0.00    +0.000 A 
ATOM     17  C   UNL     1       5.716   4.125   0.000  0.00  0.00    +0.000 A 
ATOM     18  C   UNL     1       5.001   3.712   0.000  0.00  0.00    +0.000 A 
ATOM     19  C   UNL     1       6.430   3.712   0.000  0.00  0.00    +0.000 A 
BRANCH  19  20
ATOM     20  C   UNL     1       7.145   4.125   0.000  0.00  0.00    +0.000 C 
ATOM     21  N   UNL     1       7.859   3.712   0.000  0.00  0.00    +0.000 NA
ATOM     22  N   UNL     1       7.145   4.950   0.000  0.00  0.00    +0.000 NA
ENDBRANCH  19  20
ENDBRANCH  13  18
ENDBRANCH   1  13
BRANCH   1  23
ATOM     23  N   UNL     1       3.572   2.888   0.000  0.00  0.00    +0.000 NA
BRANCH  23  26
ATOM     24  O   UNL     1       3.270   1.760   0.000  0.00  0.00    +0.000 OA
ATOM     25  O   UNL     1       2.445   3.189   0.000  0.00  0.00    +0.000 OA
ATOM     26  S   UNL     1       2.858   2.475   0.000  0.00  0.00    +0.000 S 
BRANCH  26  36
ATOM     27  C   UNL     1      -0.715   1.238   0.000  0.00  0.00    +0.000 A 
ATOM     28  C   UNL     1      -0.715   2.062   0.000  0.00  0.00    +0.000 A 
ATOM     29  C   UNL     1       0.000   0.825   0.000  0.00  0.00    +0.000 A 
ATOM     30  C   UNL     1       0.000   2.475   0.000  0.00  0.00    +0.000 A 
ATOM     31  C   UNL     1       1.429   0.825   0.000  0.00  0.00    +0.000 A 
ATOM     32  C   UNL     1       2.143   1.238   0.000  0.00  0.00    +0.000 A 
ATOM     33  C   UNL     1       1.429   2.475   0.000  0.00  0.00    +0.000 A 
ATOM     34  C   UNL     1       0.715   1.238   0.000  0.00  0.00    +0.000 A 
ATOM     35  C   UNL     1       0.715   2.062   0.000  0.00  0.00    +0.000 A 
ATOM     36  C   UNL     1       2.143   2.062   0.000  0.00  0.00    +0.000 A 
ENDBRANCH  26  36
ENDBRANCH  23  26
ENDBRANCH   1  23
TORSDOF 8
