REMARK  Name = 
REMARK  4 active torsions:
REMARK  status: ('A' for Active; 'I' for Inactive)
REMARK    1  A    between atoms: C_2  and  C_3
REMARK    2  A    between atoms: C_2  and  C_9
REMARK    3  A    between atoms: C_3  and  S_4
REMARK    4  A    between atoms: S_4  and  S_5
REMARK                            x       y       z     vdW  Elec       q    Type
REMARK                         _______ _______ _______ _____ _____    ______ ____
ROOT
ATOM      1  C   UNK     1       3.904   1.429   0.000  0.00  0.00    +0.000 C 
ENDROOT
BRANCH   1   3
ATOM      2  N   UNK     1       4.618   2.666   0.000  0.00  0.00    +0.000 NA
ATOM      3  C   UNK     1       4.618   1.841   0.000  0.00  0.00    +0.000 C 
BRANCH   3   4
ATOM      4  C   UNK     1       5.333   1.429   0.000  0.00  0.00    +0.000 C 
ATOM      5  O   UNK     1       6.047   1.841   0.000  0.00  0.00    +0.000 OA
ATOM      6  O   UNK     1       5.333   0.604   0.000  0.00  0.00    +0.000 OA
ENDBRANCH   3   4
ENDBRANCH   1   3
BRANCH   1   7
ATOM      7  S   UNK     1       3.189   1.841   0.000  0.00  0.00    +0.000 S 
BRANCH   7   8
ATOM      8  S   UNK     1       2.475   1.429   0.000  0.00  0.00    +0.000 S 
ATOM      9  O   UNK     1       1.760   1.016   0.000  0.00  0.00    +0.000 OA
ATOM     10  O   UNK     1       2.888   0.715   0.000  0.00  0.00    +0.000 OA
ATOM     11  O   UNK     1       2.062   2.143   0.000  0.00  0.00    +0.000 OA
ENDBRANCH   7   8
ENDBRANCH   1   7
TORSDOF 4
