REMARK  Name = 
REMARK  3 active torsions:
REMARK  status: ('A' for Active; 'I' for Inactive)
REMARK    1  A    between atoms: C_2  and  N_10
REMARK    2  A    between atoms: N_10  and  C_12
REMARK    3  A    between atoms: C_12  and  C_13
REMARK                            x       y       z     vdW  Elec       q    Type
REMARK                         _______ _______ _______ _____ _____    ______ ____
ROOT
ATOM      1  C   UNL     1      -0.589   0.943   0.000  0.00  0.00    +0.000 C 
ATOM      2  C   UNL     1      -1.304   0.530   0.000  0.00  0.00    +0.000 C 
ATOM      3  C   UNL     1      -1.304  -0.295   0.000  0.00  0.00    +0.000 C 
ATOM      4  C   UNL     1      -0.589  -0.707   0.000  0.00  0.00    +0.000 C 
ATOM      5  C   UNL     1       0.125  -0.295   0.000  0.00  0.00    +0.000 A 
ATOM      6  C   UNL     1       0.125   0.530   0.000  0.00  0.00    +0.000 A 
ATOM      7  S   UNL     1       0.910   0.785   0.000  0.00  0.00    +0.000 S 
ATOM      8  N   UNL     1       0.910  -0.550   0.000  0.00  0.00    +0.000 NA
ATOM      9  C   UNL     1       1.395   0.118   0.000  0.00  0.00    +0.000 A 
ATOM     10  N   UNL     1       2.220   0.118   0.000  0.00  0.00    +0.000 NA
ENDROOT
BRANCH   2  11
ATOM     11  N   UNL     1      -2.018   0.943   0.000  0.00  0.00    +0.000 NA
BRANCH  11  12
ATOM     12  C   UNL     1      -2.733   0.530   0.000  0.00  0.00    +0.000 C 
BRANCH  12  13
ATOM     13  C   UNL     1      -3.447   0.943   0.000  0.00  0.00    +0.000 C 
ATOM     14  C   UNL     1      -4.162   0.530   0.000  0.00  0.00    +0.000 C 
ENDBRANCH  12  13
ENDBRANCH  11  12
ENDBRANCH   2  11
TORSDOF 3
