REMARK  Name = 
REMARK  1 active torsions:
REMARK  status: ('A' for Active; 'I' for Inactive)
REMARK    1  A    between atoms: C_1  and  C_4
REMARK                            x       y       z     vdW  Elec       q    Type
REMARK                         _______ _______ _______ _____ _____    ______ ____
ROOT
ATOM      1  C   UNL     1       0.218   0.290   0.000  0.00  0.00    +0.000 A 
ATOM      2  C   UNL     1       0.218  -0.536   0.000  0.00  0.00    +0.000 A 
ATOM      3  C   UNL     1      -0.498   0.699   0.000  0.00  0.00    +0.000 A 
ATOM      4  N   UNL     1      -0.498  -0.955   0.000  0.00  0.00    +0.000 N 
ATOM      5  C   UNL     1      -1.208   0.290   0.000  0.00  0.00    +0.000 A 
ATOM      6  C   UNL     1      -1.208  -0.536   0.000  0.00  0.00    +0.000 A 
ATOM      7  C   UNL     1      -0.498  -1.764   0.000  0.00  0.00    +0.000 C 
ENDROOT
BRANCH   1   8
ATOM      8  C   UNL     1       0.921   0.703   0.000  0.00  0.00    +0.000 C 
ATOM      9  N   UNL     1       1.634   0.293   0.000  0.00  0.00    +0.000 NA
ATOM     10  O   UNL     1       0.918   1.518   0.000  0.00  0.00    +0.000 OA
ENDBRANCH   1   8
TORSDOF 1
