REMARK  Name = 
REMARK  6 active torsions:
REMARK  status: ('A' for Active; 'I' for Inactive)
REMARK    1  A    between atoms: C_3  and  O_19
REMARK    2  A    between atoms: C_5  and  O_20
REMARK    3  A    between atoms: C_6  and  O_19
REMARK    4  A    between atoms: C_10  and  C_13
REMARK    5  A    between atoms: O_20  and  C_21
REMARK    6  A    between atoms: C_23  and  C_27
REMARK                            x       y       z     vdW  Elec       q    Type
REMARK                         _______ _______ _______ _____ _____    ______ ____
ROOT
ATOM      1  C   UNL     1       0.715  -0.412   0.000  0.00  0.00    +0.000 C 
ATOM      2  C   UNL     1       0.000   0.825   0.000  0.00  0.00    +0.000 C 
ATOM      3  C   UNL     1       0.000  -0.825   0.000  0.00  0.00    +0.000 C 
ATOM      4  C   UNL     1      -0.715  -0.412   0.000  0.00  0.00    +0.000 C 
ATOM      5  C   UNL     1      -0.715   0.412   0.000  0.00  0.00    +0.000 C 
ATOM      6  N   UNL     1       0.000   1.650   0.000  0.00  0.00    +0.000 NA
ATOM      7  N   UNL     1       1.429  -0.825   0.000  0.00  0.00    +0.000 NA
ATOM      8  O   UNL     1      -1.429  -0.825   0.000  0.00  0.00    +0.000 OA
ATOM      9  C   UNL     1       0.715   0.412   0.000  0.00  0.00    +0.000 C 
ENDROOT
BRANCH   5  10
ATOM     10  O   UNL     1      -1.429   0.825   0.000  0.00  0.00    +0.000 OA
BRANCH  10  11
ATOM     11  C   UNL     1      -1.429   1.650   0.000  0.00  0.00    +0.000 C 
ATOM     12  O   UNL     1      -0.714   2.062   0.000  0.00  0.00    +0.000 OA
ATOM     13  C   UNL     1      -0.714   2.888   0.000  0.00  0.00    +0.000 C 
ATOM     14  C   UNL     1      -1.429   3.300   0.000  0.00  0.00    +0.000 C 
ATOM     15  C   UNL     1      -2.143   2.888   0.000  0.00  0.00    +0.000 C 
ATOM     16  C   UNL     1      -2.143   2.062   0.000  0.00  0.00    +0.000 C 
ATOM     17  O   UNL     1      -2.858   1.650   0.000  0.00  0.00    +0.000 OA
ATOM     18  O   UNL     1      -2.858   3.300   0.000  0.00  0.00    +0.000 OA
ATOM     19  O   UNL     1      -1.429   4.125   0.000  0.00  0.00    +0.000 OA
BRANCH  13  20
ATOM     20  C   UNL     1       0.000   3.300   0.000  0.00  0.00    +0.000 C 
ATOM     21  N   UNL     1       0.715   2.888   0.000  0.00  0.00    +0.000 NA
ENDBRANCH  13  20
ENDBRANCH  10  11
ENDBRANCH   5  10
BRANCH   3  22
ATOM     22  O   UNL     1       0.000  -1.650   0.000  0.00  0.00    +0.000 OA
BRANCH  22  23
ATOM     23  C   UNL     1      -0.714  -2.062   0.000  0.00  0.00    +0.000 C 
ATOM     24  C   UNL     1      -0.714  -2.888   0.000  0.00  0.00    +0.000 C 
ATOM     25  C   UNL     1      -1.429  -3.300   0.000  0.00  0.00    +0.000 C 
ATOM     26  C   UNL     1      -2.143  -2.888   0.000  0.00  0.00    +0.000 C 
ATOM     27  C   UNL     1      -2.143  -2.062   0.000  0.00  0.00    +0.000 C 
ATOM     28  O   UNL     1      -1.429  -1.650   0.000  0.00  0.00    +0.000 OA
ATOM     29  O   UNL     1      -2.858  -3.300   0.000  0.00  0.00    +0.000 OA
ATOM     30  N   UNL     1      -1.429  -4.125   0.000  0.00  0.00    +0.000 NA
ATOM     31  O   UNL     1       0.000  -3.300   0.000  0.00  0.00    +0.000 OA
BRANCH  27  32
ATOM     32  C   UNL     1      -2.858  -1.650   0.000  0.00  0.00    +0.000 C 
ATOM     33  O   UNL     1      -3.572  -2.062   0.000  0.00  0.00    +0.000 OA
ENDBRANCH  27  32
ENDBRANCH  22  23
ENDBRANCH   3  22
TORSDOF 6
