REMARK  Name = 
REMARK  5 active torsions:
REMARK  status: ('A' for Active; 'I' for Inactive)
REMARK    1  A    between atoms: C_1  and  C_2
REMARK    2  A    between atoms: C_1  and  C_3
REMARK    3  A    between atoms: C_2  and  C_4
REMARK    4  A    between atoms: C_3  and  C_5
REMARK    5  A    between atoms: C_4  and  C_6
REMARK                            x       y       z     vdW  Elec       q    Type
REMARK                         _______ _______ _______ _____ _____    ______ ____
ROOT
ATOM      1  C   UNL     1       1.540   0.412   0.000  0.00  0.00    +0.000 C 
ATOM      2  O   UNL     1       1.540   1.238   0.000  0.00  0.00    +0.000 OA
ENDROOT
BRANCH   1   3
ATOM      3  C   UNL     1       0.825   0.000   0.000  0.00  0.00    +0.000 C 
ATOM      4  O   UNL     1       0.825  -0.825   0.000  0.00  0.00    +0.000 OA
BRANCH   3   5
ATOM      5  C   UNL     1       0.111   0.412   0.000  0.00  0.00    +0.000 C 
ATOM      6  O   UNL     1      -0.604   0.000   0.000  0.00  0.00    +0.000 OA
ATOM      7  O   UNL     1       0.111   1.238   0.000  0.00  0.00    +0.000 OA
ENDBRANCH   3   5
ENDBRANCH   1   3
BRANCH   1   8
ATOM      8  C   UNL     1       2.254   0.000   0.000  0.00  0.00    +0.000 C 
BRANCH   8   9
ATOM      9  C   UNL     1       2.968   0.412   0.000  0.00  0.00    +0.000 C 
ATOM     10  O   UNL     1       2.968   1.238   0.000  0.00  0.00    +0.000 OA
BRANCH   9  11
ATOM     11  C   UNL     1       3.683   0.000   0.000  0.00  0.00    +0.000 C 
ATOM     12  O   UNL     1       4.397   0.412   0.000  0.00  0.00    +0.000 OA
ATOM     13  O   UNL     1       3.683  -0.825   0.000  0.00  0.00    +0.000 OA
ENDBRANCH   9  11
ENDBRANCH   8   9
ENDBRANCH   1   8
TORSDOF 5
