REMARK  Name = 
REMARK  5 active torsions:
REMARK  status: ('A' for Active; 'I' for Inactive)
REMARK    1  A    between atoms: C_2  and  C_3
REMARK    2  A    between atoms: C_3  and  C_4
REMARK    3  A    between atoms: C_4  and  C_5
REMARK    4  A    between atoms: C_5  and  C_6
REMARK    5  A    between atoms: C_6  and  C_10
REMARK                            x       y       z     vdW  Elec       q    Type
REMARK                         _______ _______ _______ _____ _____    ______ ____
ROOT
ATOM      1  C   UNL     1       2.143   3.712   0.000  0.00  0.00    +0.000 A 
ATOM      2  C   UNL     1       2.858   4.125   0.000  0.00  0.00    +0.000 A 
ATOM      3  C   UNL     1       2.143   5.362   0.000  0.00  0.00    +0.000 A 
ATOM      4  C   UNL     1       1.429   4.125   0.000  0.00  0.00    +0.000 A 
ATOM      5  C   UNL     1       2.858   4.950   0.000  0.00  0.00    +0.000 A 
ATOM      6  C   UNL     1       1.429   4.950   0.000  0.00  0.00    +0.000 A 
ATOM      7  O   UNL     1       3.572   5.362   0.000  0.00  0.00    +0.000 OA
ATOM      8  O   UNL     1       0.715   5.362   0.000  0.00  0.00    +0.000 OA
ENDROOT
BRANCH   4   9
ATOM      9  C   UNL     1       0.715   3.712   0.000  0.00  0.00    +0.000 C 
BRANCH   9  10
ATOM     10  C   UNL     1       0.000   4.125   0.000  0.00  0.00    +0.000 C 
BRANCH  10  11
ATOM     11  C   UNL     1      -0.715   3.712   0.000  0.00  0.00    +0.000 C 
BRANCH  11  12
ATOM     12  C   UNL     1      -1.429   4.125   0.000  0.00  0.00    +0.000 C 
BRANCH  12  14
ATOM     13  C   UNL     1      -2.858   4.125   0.000  0.00  0.00    +0.000 C 
ATOM     14  C   UNL     1      -2.143   3.712   0.000  0.00  0.00    +0.000 C 
ENDBRANCH  12  14
ENDBRANCH  11  12
ENDBRANCH  10  11
ENDBRANCH   9  10
ENDBRANCH   4   9
TORSDOF 5
