REMARK  Name = 
REMARK  4 active torsions:
REMARK  status: ('A' for Active; 'I' for Inactive)
REMARK    1  A    between atoms: C_3  and  C_4
REMARK    2  A    between atoms: C_4  and  O_5
REMARK    3  A    between atoms: O_5  and  P_6
REMARK    4  A    between atoms: C_11  and  C_15
REMARK                            x       y       z     vdW  Elec       q    Type
REMARK                         _______ _______ _______ _____ _____    ______ ____
ROOT
ATOM      1  O   UNL     1       1.465  -0.823   0.000  0.00  0.00    +0.000 OA
ATOM      2  C   UNL     1       0.980  -0.155   0.000  0.00  0.00    +0.000 C 
ATOM      3  C   UNL     1       0.155  -0.155   0.000  0.00  0.00    +0.000 C 
ATOM      4  O   UNL     1      -0.100   0.629   0.000  0.00  0.00    +0.000 OA
ATOM      5  C   UNL     1       0.568   1.114   0.000  0.00  0.00    +0.000 C 
ATOM      6  O   UNL     1       0.016   1.727   0.000  0.00  0.00    +0.000 OA
ATOM      7  C   UNL     1       1.235   0.629   0.000  0.00  0.00    +0.000 C 
ATOM      8  O   UNL     1       2.020   0.884   0.000  0.00  0.00    +0.000 OA
ENDROOT
BRANCH   5   9
ATOM      9  C   UNL     1       1.120   1.727   0.000  0.00  0.00    +0.000 C 
ATOM     10  O   UNL     1       0.865   2.512   0.000  0.00  0.00    +0.000 OA
ATOM     11  O   UNL     1       1.927   1.556   0.000  0.00  0.00    +0.000 OA
ENDBRANCH   5   9
BRANCH   3  12
ATOM     12  C   UNL     1      -0.330  -0.823   0.000  0.00  0.00    +0.000 C 
BRANCH  12  13
ATOM     13  O   UNL     1       0.006  -1.576   0.000  0.00  0.00    +0.000 OA
BRANCH  13  14
ATOM     14  P   UNL     1      -0.479  -2.244   0.000  0.00  0.00    +0.000 P 
ATOM     15  O   UNL     1      -0.964  -2.911   0.000  0.00  0.00    +0.000 OA
ATOM     16  O   UNL     1       0.188  -2.729   0.000  0.00  0.00    +0.000 OA
ATOM     17  O   UNL     1      -1.147  -1.759   0.000  0.00  0.00    +0.000 OA
ENDBRANCH  13  14
ENDBRANCH  12  13
ENDBRANCH   3  12
TORSDOF 4
