REMARK  Name = 
REMARK  5 active torsions:
REMARK  status: ('A' for Active; 'I' for Inactive)
REMARK    1  A    between atoms: C_2  and  C_4
REMARK    2  A    between atoms: C_4  and  C_6
REMARK    3  A    between atoms: C_6  and  O_7
REMARK    4  A    between atoms: O_7  and  C_8
REMARK    5  A    between atoms: C_8  and  C_9
REMARK                            x       y       z     vdW  Elec       q    Type
REMARK                         _______ _______ _______ _____ _____    ______ ____
ROOT
ATOM      1  O   UNL     1       0.000  -3.300   0.000  0.00  0.00    +0.000 OA
ENDROOT
BRANCH   1   2
ATOM      2  C   UNL     1      -0.715  -2.888   0.000  0.00  0.00    +0.000 C 
BRANCH   2   3
ATOM      3  C   UNL     1      -1.429  -3.300   0.000  0.00  0.00    +0.000 C 
ATOM      4  N   UNL     1      -1.429  -4.125   0.000  0.00  0.00    +0.000 NA
BRANCH   3   6
ATOM      5  C   UNL     1      -2.858  -3.300   0.000  0.00  0.00    +0.000 C 
ATOM      6  C   UNL     1      -2.143  -2.888   0.000  0.00  0.00    +0.000 C 
ATOM      7  O   UNL     1      -2.143  -2.062   0.000  0.00  0.00    +0.000 OA
ENDBRANCH   3   6
ENDBRANCH   2   3
ENDBRANCH   1   2
BRANCH   1   8
ATOM      8  C   UNL     1       0.715  -2.888   0.000  0.00  0.00    +0.000 C 
BRANCH   8   9
ATOM      9  C   UNL     1       1.429  -3.300   0.000  0.00  0.00    +0.000 A 
ATOM     10  C   UNL     1       2.143  -2.888   0.000  0.00  0.00    +0.000 A 
ATOM     11  C   UNL     1       2.858  -3.300   0.000  0.00  0.00    +0.000 A 
ATOM     12  C   UNL     1       2.858  -4.125   0.000  0.00  0.00    +0.000 A 
ATOM     13  C   UNL     1       2.143  -4.537   0.000  0.00  0.00    +0.000 A 
ATOM     14  C   UNL     1       1.429  -4.125   0.000  0.00  0.00    +0.000 A 
ENDBRANCH   8   9
ENDBRANCH   1   8
TORSDOF 5
