REMARK  Name = 
REMARK  3 active torsions:
REMARK  status: ('A' for Active; 'I' for Inactive)
REMARK    1  A    between atoms: C_4  and  C_5
REMARK    2  A    between atoms: C_5  and  O_6
REMARK    3  A    between atoms: O_6  and  P_7
REMARK                            x       y       z     vdW  Elec       q    Type
REMARK                         _______ _______ _______ _____ _____    ______ ____
ROOT
ATOM      1  O   UNL     1       0.715   2.062   0.000  0.00  0.00    +0.000 OA
ATOM      2  C   UNL     1       0.715   1.238   0.000  0.00  0.00    +0.000 C 
ATOM      3  O   UNL     1       1.429   0.825   0.000  0.00  0.00    +0.000 OA
ATOM      4  C   UNL     1       1.429   0.000   0.000  0.00  0.00    +0.000 C 
ATOM      5  C   UNL     1       0.715  -0.412   0.000  0.00  0.00    +0.000 C 
ATOM      6  O   UNL     1       0.715  -1.238   0.000  0.00  0.00    +0.000 OA
ATOM      7  C   UNL     1       0.000   0.000   0.000  0.00  0.00    +0.000 C 
ATOM      8  O   UNL     1      -0.715  -0.412   0.000  0.00  0.00    +0.000 OA
ATOM      9  C   UNL     1       0.000   0.825   0.000  0.00  0.00    +0.000 C 
ATOM     10  O   UNL     1      -0.715   1.238   0.000  0.00  0.00    +0.000 OA
ENDROOT
BRANCH   4  11
ATOM     11  C   UNL     1       2.143  -0.412   0.000  0.00  0.00    +0.000 C 
BRANCH  11  12
ATOM     12  O   UNL     1       2.143  -1.238   0.000  0.00  0.00    +0.000 OA
BRANCH  12  13
ATOM     13  P   UNL     1       2.858  -1.650   0.000  0.00  0.00    +0.000 P 
ATOM     14  O   UNL     1       3.572  -2.062   0.000  0.00  0.00    +0.000 OA
ATOM     15  O   UNL     1       3.270  -0.935   0.000  0.00  0.00    +0.000 OA
ATOM     16  O   UNL     1       2.445  -2.365   0.000  0.00  0.00    +0.000 OA
ENDBRANCH  12  13
ENDBRANCH  11  12
ENDBRANCH   4  11
TORSDOF 3
