REMARK  Name = 
REMARK  7 active torsions:
REMARK  status: ('A' for Active; 'I' for Inactive)
REMARK    1  A    between atoms: C_25  and  C_26
REMARK    2  A    between atoms: C_25  and  C_27
REMARK    3  A    between atoms: C_26  and  C_32
REMARK    4  A    between atoms: C_29  and  C_32
REMARK    5  A    between atoms: N_34  and  C_35
REMARK    6  A    between atoms: C_35  and  C_36
REMARK    7  A    between atoms: C_36  and  S_39
REMARK                            x       y       z     vdW  Elec       q    Type
REMARK                         _______ _______ _______ _____ _____    ______ ____
ROOT
ATOM      1  C   UNL     1      -1.703   0.216   0.000  0.00  0.00    +0.000 C 
ATOM      2  C   UNL     1      -2.417  -0.196   0.000  0.00  0.00    +0.000 C 
ATOM      3  C   UNL     1      -1.703  -1.433   0.000  0.00  0.00    +0.000 C 
ATOM      4  C   UNL     1      -0.274  -1.433   0.000  0.00  0.00    +0.000 C 
ATOM      5  C   UNL     1      -0.988  -0.196   0.000  0.00  0.00    +0.000 C 
ATOM      6  C   UNL     1      -0.274   1.042   0.000  0.00  0.00    +0.000 C 
ATOM      7  C   UNL     1       1.940  -0.038   0.000  0.00  0.00    +0.000 C 
ATOM      8  C   UNL     1       2.425   0.629   0.000  0.00  0.00    +0.000 C 
ATOM      9  C   UNL     1      -0.988   0.629   0.000  0.00  0.00    +0.000 C 
ATOM     10  C   UNL     1      -0.274   0.216   0.000  0.00  0.00    +0.000 C 
ATOM     11  C   UNL     1       0.441  -0.196   0.000  0.00  0.00    +0.000 C 
ATOM     12  C   UNL     1       1.155   0.216   0.000  0.00  0.00    +0.000 C 
ATOM     13  C   UNL     1       1.155   1.042   0.000  0.00  0.00    +0.000 C 
ATOM     14  C   UNL     1       1.155   1.867   0.000  0.00  0.00    +0.000 C 
ATOM     15  C   UNL     1      -2.417  -1.021   0.000  0.00  0.00    +0.000 C 
ATOM     16  O   UNL     1      -3.132  -1.433   0.000  0.00  0.00    +0.000 OA
ATOM     17  C   UNL     1       0.441  -1.021   0.000  0.00  0.00    +0.000 C 
ATOM     18  O   UNL     1       1.155  -1.433   0.000  0.00  0.00    +0.000 OA
ATOM     19  C   UNL     1      -0.988  -1.021   0.000  0.00  0.00    +0.000 C 
ATOM     20  C   UNL     1       1.940   1.296   0.000  0.00  0.00    +0.000 C 
ATOM     21  C   UNL     1       0.441   1.454   0.000  0.00  0.00    +0.000 C 
ATOM     22  O   UNL     1       0.441   2.279   0.000  0.00  0.00    +0.000 OA
ENDROOT
BRANCH  20  23
ATOM     23  C   UNL     1       2.153   2.093   0.000  0.00  0.00    +0.000 C 
ATOM     24  C   UNL     1       1.570   2.677   0.000  0.00  0.00    +0.000 C 
BRANCH  23  25
ATOM     25  C   UNL     1       2.868   2.506   0.000  0.00  0.00    +0.000 C 
BRANCH  25  26
ATOM     26  C   UNL     1       3.582   2.093   0.000  0.00  0.00    +0.000 C 
BRANCH  26  27
ATOM     27  C   UNL     1       4.296   2.506   0.000  0.00  0.00    +0.000 C 
ATOM     28  O   UNL     1       4.296   3.331   0.000  0.00  0.00    +0.000 OA
ATOM     29  N   UNL     1       5.011   2.093   0.000  0.00  0.00    +0.000 NA
BRANCH  29  30
ATOM     30  C   UNL     1       5.725   2.506   0.000  0.00  0.00    +0.000 C 
BRANCH  30  31
ATOM     31  C   UNL     1       6.440   2.093   0.000  0.00  0.00    +0.000 C 
BRANCH  31  34
ATOM     32  O   UNL     1       7.869   2.918   0.000  0.00  0.00    +0.000 OA
ATOM     33  O   UNL     1       6.742   3.220   0.000  0.00  0.00    +0.000 OA
ATOM     34  S   UNL     1       7.154   2.506   0.000  0.00  0.00    +0.000 S 
ATOM     35  O   UNL     1       7.567   1.791   0.000  0.00  0.00    +0.000 OA
ENDBRANCH  31  34
ENDBRANCH  30  31
ENDBRANCH  29  30
ENDBRANCH  26  27
ENDBRANCH  25  26
ENDBRANCH  23  25
ENDBRANCH  20  23
TORSDOF 7
