REMARK  Name = 
REMARK  6 active torsions:
REMARK  status: ('A' for Active; 'I' for Inactive)
REMARK    1  A    between atoms: O_3  and  N_5
REMARK    2  A    between atoms: O_3  and  C_14
REMARK    3  A    between atoms: N_4  and  C_12
REMARK    4  A    between atoms: C_12  and  C_13
REMARK    5  A    between atoms: C_13  and  C_14
REMARK    6  A    between atoms: C_15  and  C_16
REMARK                            x       y       z     vdW  Elec       q    Type
REMARK                         _______ _______ _______ _____ _____    ______ ____
ROOT
ATOM      1  O   UNL     1       3.079  -0.206   0.000  0.00  0.00    +0.000 OA
ENDROOT
BRANCH   1   3
ATOM      2 CL   UNL     1       1.650  -1.031   0.000  0.00  0.00    +0.000 Cl
ATOM      3  N   UNL     1       3.079  -1.031   0.000  0.00  0.00    +0.000 NA
ATOM      4  C   UNL     1       2.365  -1.444   0.000  0.00  0.00    +0.000 C 
BRANCH   4   6
ATOM      5  N   UNL     1       3.079  -3.506   0.000  0.00  0.00    +0.000 NA
ATOM      6  C   UNL     1       2.365  -2.269   0.000  0.00  0.00    +0.000 A 
ATOM      7  C   UNL     1       1.650  -2.681   0.000  0.00  0.00    +0.000 A 
ATOM      8  C   UNL     1       3.079  -2.681   0.000  0.00  0.00    +0.000 A 
ATOM      9  C   UNL     1       1.650  -3.506   0.000  0.00  0.00    +0.000 A 
ATOM     10  C   UNL     1       2.365  -3.919   0.000  0.00  0.00    +0.000 A 
ENDBRANCH   4   6
ENDBRANCH   1   3
BRANCH   1  11
ATOM     11  C   UNL     1       3.793   0.206   0.000  0.00  0.00    +0.000 C 
BRANCH  11  13
ATOM     12  O   UNL     1       3.079   1.444   0.000  0.00  0.00    +0.000 OA
ATOM     13  C   UNL     1       3.793   1.031   0.000  0.00  0.00    +0.000 C 
BRANCH  13  14
ATOM     14  C   UNL     1       4.508   1.444   0.000  0.00  0.00    +0.000 C 
BRANCH  14  15
ATOM     15  N   UNL     1       4.508   2.269   0.000  0.00  0.00    +0.000 NA
ATOM     16  C   UNL     1       3.793   2.681   0.000  0.00  0.00    +0.000 C 
ATOM     17  C   UNL     1       5.222   2.681   0.000  0.00  0.00    +0.000 C 
ATOM     18  C   UNL     1       3.793   3.506   0.000  0.00  0.00    +0.000 C 
ATOM     19  C   UNL     1       5.222   3.506   0.000  0.00  0.00    +0.000 C 
ATOM     20  C   UNL     1       4.508   3.919   0.000  0.00  0.00    +0.000 C 
ENDBRANCH  14  15
ENDBRANCH  13  14
ENDBRANCH  11  13
ENDBRANCH   1  11
TORSDOF 6
