REMARK  Name = 
REMARK  3 active torsions:
REMARK  status: ('A' for Active; 'I' for Inactive)
REMARK    1  A    between atoms: C_11  and  C_12
REMARK    2  A    between atoms: C_13  and  C_20
REMARK    3  A    between atoms: C_14  and  C_19
REMARK                            x       y       z     vdW  Elec       q    Type
REMARK                         _______ _______ _______ _____ _____    ______ ____
ROOT
ATOM      1  C   UNL     1      -2.691   2.237   0.000  0.00  0.00    +0.000 A 
ATOM      2  C   UNL     1      -3.103   1.523   0.000  0.00  0.00    +0.000 A 
ATOM      3  C   UNL     1      -1.866   2.237   0.000  0.00  0.00    +0.000 A 
ATOM      4  C   UNL     1      -2.691   0.808   0.000  0.00  0.00    +0.000 A 
ATOM      5  C   UNL     1      -1.453   1.523   0.000  0.00  0.00    +0.000 A 
ATOM      6  C   UNL     1      -1.866   0.808   0.000  0.00  0.00    +0.000 A 
ATOM      7  O   UNL     1      -1.453   0.094   0.000  0.00  0.00    +0.000 OA
ENDROOT
BRANCH   5  14
ATOM      8  C   UNL     1       1.356   0.698   0.000  0.00  0.00    +0.000 A 
ATOM      9  C   UNL     1       1.356   2.348   0.000  0.00  0.00    +0.000 A 
ATOM     10  C   UNL     1       2.070   1.110   0.000  0.00  0.00    +0.000 A 
ATOM     11  C   UNL     1       2.070   1.935   0.000  0.00  0.00    +0.000 A 
ATOM     12  C   UNL     1       0.641   1.110   0.000  0.00  0.00    +0.000 A 
ATOM     13  C   UNL     1       0.641   1.935   0.000  0.00  0.00    +0.000 A 
ATOM     14  C   UNL     1      -0.628   1.523   0.000  0.00  0.00    +0.000 A 
ATOM     15 CL   UNL     1       2.784   2.348   0.000  0.00  0.00    +0.000 Cl
ATOM     16  N   UNL     1      -0.143   0.856   0.000  0.00  0.00    +0.000 NA
ATOM     17  N   UNL     1      -0.143   2.190   0.000  0.00  0.00    +0.000 NA
BRANCH  10  18
ATOM     18  C   UNL     1       2.784   0.698   0.000  0.00  0.00    +0.000 C 
ATOM     19  N   UNL     1       3.499   1.110   0.000  0.00  0.00    +0.000 NA
ATOM     20  N   UNL     1       2.784  -0.127   0.000  0.00  0.00    +0.000 NA
ENDBRANCH  10  18
ENDBRANCH   5  14
BRANCH   4  26
ATOM     21  C   UNL     1      -3.928  -1.335   0.000  0.00  0.00    +0.000 A 
ATOM     22  C   UNL     1      -3.103  -1.335   0.000  0.00  0.00    +0.000 A 
ATOM     23  C   UNL     1      -4.341  -0.621   0.000  0.00  0.00    +0.000 A 
ATOM     24  C   UNL     1      -2.691  -0.621   0.000  0.00  0.00    +0.000 A 
ATOM     25  C   UNL     1      -3.928   0.094   0.000  0.00  0.00    +0.000 A 
ATOM     26  C   UNL     1      -3.103   0.094   0.000  0.00  0.00    +0.000 A 
ENDBRANCH   4  26
TORSDOF 3
