REMARK  Name = 
REMARK  1 active torsions:
REMARK  status: ('A' for Active; 'I' for Inactive)
REMARK    1  A    between atoms: CA_5  and  C_6
REMARK                            x       y       z     vdW  Elec       q    Type
REMARK                         _______ _______ _______ _____ _____    ______ ____
ROOT
ATOM      1  C   UNL     1      -0.884   0.884   0.000  0.00  0.00    +0.000 C 
ATOM      2  C   UNL     1       0.155  -0.155   0.000  0.00  0.00    +0.000 C 
ATOM      3  C   UNL     1       0.980  -0.155   0.000  0.00  0.00    +0.000 C 
ATOM      4  C   UNL     1      -0.100   0.629   0.000  0.00  0.00    +0.000 C 
ATOM      5  CA  UNL     1       0.568   1.114   0.000  0.00  0.00    +0.000 C 
ATOM      6  N   UNL     1       1.235   0.629   0.000  0.00  0.00    +0.000 NA
ENDROOT
BRANCH   5   7
ATOM      7  C   UNL     1       0.568   1.939   0.000  0.00  0.00    +0.000 C 
ATOM      8  O   UNL     1      -0.147   2.352   0.000  0.00  0.00    +0.000 OA
ATOM      9  OXT UNL     1       1.282   2.352   0.000  0.00  0.00    +0.000 OA
ENDBRANCH   5   7
TORSDOF 1
