REMARK  Name = 
REMARK  3 active torsions:
REMARK  status: ('A' for Active; 'I' for Inactive)
REMARK    1  A    between atoms: C_2  and  N_3
REMARK    2  A    between atoms: C_4  and  C_6
REMARK    3  A    between atoms: C_8  and  N_13
REMARK                            x       y       z     vdW  Elec       q    Type
REMARK                         _______ _______ _______ _____ _____    ______ ____
ROOT
ATOM      1  C   UNL     1      -0.398   2.089   0.000  0.00  0.00    +0.000 C 
ATOM      2  O   UNL     1       0.086   1.422   0.000  0.00  0.00    +0.000 OA
ATOM      3  C   UNL     1      -0.398   0.754   0.000  0.00  0.00    +0.000 C 
ATOM      4  C   UNL     1      -1.183   1.009   0.000  0.00  0.00    +0.000 C 
ATOM      5  O   UNL     1      -1.851   0.524   0.000  0.00  0.00    +0.000 OA
ATOM      6  C   UNL     1      -1.183   1.834   0.000  0.00  0.00    +0.000 C 
ATOM      7  O   UNL     1      -1.851   2.319   0.000  0.00  0.00    +0.000 OA
ENDROOT
BRANCH   3   8
ATOM      8  N   UNL     1      -0.143  -0.030   0.000  0.00  0.00    +0.000 N 
ATOM      9  C   UNL     1      -0.628  -0.698   0.000  0.00  0.00    +0.000 A 
ATOM     10  N   UNL     1      -0.143  -1.365   0.000  0.00  0.00    +0.000 NA
ATOM     11  C   UNL     1       0.641  -1.110   0.000  0.00  0.00    +0.000 A 
ATOM     12  C   UNL     1       0.641  -0.285   0.000  0.00  0.00    +0.000 A 
ATOM     13  N   UNL     1       1.356   0.127   0.000  0.00  0.00    +0.000 NA
ATOM     14  C   UNL     1       2.070  -0.285   0.000  0.00  0.00    +0.000 A 
ATOM     15  N   UNL     1       2.070  -1.110   0.000  0.00  0.00    +0.000 NA
ATOM     16  C   UNL     1       1.356  -1.523   0.000  0.00  0.00    +0.000 A 
ATOM     17  N   UNL     1       1.356  -2.348   0.000  0.00  0.00    +0.000 NA
ENDBRANCH   3   8
BRANCH   1  19
ATOM     18  N   UNL     1      -0.696   3.487   0.000  0.00  0.00    +0.000 NA
ATOM     19  C   UNL     1      -0.143   2.874   0.000  0.00  0.00    +0.000 C 
ATOM     20  O   UNL     1       0.663   3.045   0.000  0.00  0.00    +0.000 OA
BRANCH  18  22
ATOM     21  C   UNL     1      -0.993   4.884   0.000  0.00  0.00    +0.000 C 
ATOM     22  C   UNL     1      -0.441   4.271   0.000  0.00  0.00    +0.000 C 
ENDBRANCH  18  22
ENDBRANCH   1  19
TORSDOF 3
