REMARK  Name = 
REMARK  6 active torsions:
REMARK  status: ('A' for Active; 'I' for Inactive)
REMARK    1  A    between atoms: C_5  and  C_7
REMARK    2  A    between atoms: C_5  and  C_21
REMARK    3  A    between atoms: C_6  and  C_8
REMARK    4  A    between atoms: C_6  and  C_22
REMARK    5  A    between atoms: C_7  and  C_29
REMARK    6  A    between atoms: C_8  and  C_30
REMARK                            x       y       z     vdW  Elec       q    Type
REMARK                         _______ _______ _______ _____ _____    ______ ____
ROOT
ATOM      1  C   UNL     1      -3.717  -1.679   0.000  0.00  0.00    +0.000 C 
ATOM      2  C   UNL     1      -2.466   2.791   0.000  0.00  0.00    +0.000 C 
ATOM      3  C   UNL     1       0.788  -2.877   0.000  0.00  0.00    +0.000 C 
ATOM      4  C   UNL     1       0.732   2.849   0.000  0.00  0.00    +0.000 C 
ATOM      5  C   UNL     1      -2.343  -2.091   0.000  0.00  0.00    +0.000 C 
ATOM      6  C   UNL     1      -2.901   1.388   0.000  0.00  0.00    +0.000 A 
ATOM      7  C   UNL     1      -2.917  -0.076   0.000  0.00  0.00    +0.000 C 
ATOM      8  C   UNL     1      -0.850  -2.078   0.000  0.00  0.00    +0.000 C 
ATOM      9  C   UNL     1      -0.857   2.021   0.000  0.00  0.00    +0.000 C 
ATOM     10  C   UNL     1       1.181  -0.011   0.000  0.00  0.00    +0.000 C 
ATOM     11  C   UNL     1      -2.904  -1.540   0.000  0.00  0.00    +0.000 C 
ATOM     12  C   UNL     1      -2.320   1.979   0.000  0.00  0.00    +0.000 A 
ATOM     13  C   UNL     1       0.643  -2.065   0.000  0.00  0.00    +0.000 A 
ATOM     14  C   UNL     1       0.607   2.034   0.000  0.00  0.00    +0.000 C 
ATOM     15  C   UNL     1      -2.543   0.689   0.000  0.00  0.00    +0.000 A 
ATOM     16  C   UNL     1      -1.586  -1.675   0.000  0.00  0.00    +0.000 C 
ATOM     17  C   UNL     1       1.194  -1.504   0.000  0.00  0.00    +0.000 A 
ATOM     18  C   UNL     1       1.168   1.482   0.000  0.00  0.00    +0.000 C 
ATOM     19  C   UNL     1      -2.530  -0.775   0.000  0.00  0.00    +0.000 C 
ATOM     20  C   UNL     1      -1.585   1.634   0.000  0.00  0.00    +0.000 A 
ATOM     21  C   UNL     1      -0.151  -1.692   0.000  0.00  0.00    +0.000 A 
ATOM     22  C   UNL     1      -0.151   1.646   0.000  0.00  0.00    +0.000 C 
ATOM     23  C   UNL     1       0.807  -0.717   0.000  0.00  0.00    +0.000 A 
ATOM     24  C   UNL     1       0.765   0.717   0.000  0.00  0.00    +0.000 C 
ATOM     25  N   UNL     1      -1.709  -0.914   0.000  0.00  0.00    +0.000 NA
ATOM     26  N   UNL     1      -1.754   0.842   0.000  0.00  0.00    +0.000 NA
ATOM     27  N   UNL     1      -0.011  -0.900   0.000  0.00  0.00    +0.000 NA
ATOM     28  N   UNL     1       0.003   0.828   0.000  0.00  0.00    +0.000 NA
ENDROOT
BRANCH  18  29
ATOM     29  C   UNL     1       1.984   1.609   0.000  0.00  0.00    +0.000 C 
BRANCH  29  30
ATOM     30  C   UNL     1       2.281   2.378   0.000  0.00  0.00    +0.000 C 
BRANCH  30  31
ATOM     31  C   UNL     1       3.096   2.506   0.000  0.00  0.00    +0.000 C 
ATOM     32  O   UNL     1       3.394   3.275   0.000  0.00  0.00    +0.000 OA
ATOM     33  O   UNL     1       3.614   1.863   0.000  0.00  0.00    +0.000 OA
ENDBRANCH  30  31
ENDBRANCH  29  30
ENDBRANCH  18  29
BRANCH  17  34
ATOM     34  C   UNL     1       2.009  -1.635   0.000  0.00  0.00    +0.000 C 
BRANCH  34  35
ATOM     35  C   UNL     1       2.303  -2.406   0.000  0.00  0.00    +0.000 C 
BRANCH  35  36
ATOM     36  C   UNL     1       3.117  -2.537   0.000  0.00  0.00    +0.000 C 
ATOM     37  O   UNL     1       3.638  -1.897   0.000  0.00  0.00    +0.000 OA
ATOM     38  O   UNL     1       3.411  -3.308   0.000  0.00  0.00    +0.000 OA
ENDBRANCH  35  36
ENDBRANCH  34  35
ENDBRANCH  17  34
TORSDOF 6
REMARK  Name = 
REMARK  6 active torsions:
REMARK  status: ('A' for Active; 'I' for Inactive)
REMARK    1  A    between atoms: C_5  and  C_7
REMARK    2  A    between atoms: C_5  and  C_21
REMARK    3  A    between atoms: C_6  and  C_8
REMARK    4  A    between atoms: C_6  and  C_22
REMARK    5  A    between atoms: C_7  and  C_29
REMARK    6  A    between atoms: C_8  and  C_30
REMARK                            x       y       z     vdW  Elec       q    Type
REMARK                         _______ _______ _______ _____ _____    ______ ____
ROOT
ATOM      1 CO   UNL     1       5.995   0.000   0.000  0.00  0.00    +0.000 Co
ENDROOT
TORSDOF 0
