REMARK  Name = 
REMARK  7 active torsions:
REMARK  status: ('A' for Active; 'I' for Inactive)
REMARK    1  A    between atoms: C_3  and  C_4
REMARK    2  A    between atoms: C_3  and  C_5
REMARK    3  A    between atoms: C_4  and  N_21
REMARK    4  A    between atoms: C_5  and  N_25
REMARK    5  A    between atoms: C_10  and  N_21
REMARK    6  A    between atoms: C_14  and  S_28
REMARK    7  A    between atoms: C_18  and  S_28
REMARK                            x       y       z     vdW  Elec       q    Type
REMARK                         _______ _______ _______ _____ _____    ______ ____
ROOT
ATOM      1  C   UNL     1       0.978   0.910   0.000  0.00  0.00    +0.000 A 
ATOM      2  C   UNL     1       2.082   2.136   0.000  0.00  0.00    +0.000 A 
ATOM      3  C   UNL     1       2.337   1.352   0.000  0.00  0.00    +0.000 A 
ATOM      4  C   UNL     1       1.274   2.308   0.000  0.00  0.00    +0.000 A 
ATOM      5  C   UNL     1       1.942   3.464   0.000  0.00  0.00    +0.000 A 
ATOM      6  N   UNL     1       3.143   1.180   0.000  0.00  0.00    +0.000 NA
ATOM      7  N   UNL     1       1.784   0.739   0.000  0.00  0.00    +0.000 NA
ATOM      8  N   UNL     1       0.723   1.695   0.000  0.00  0.00    +0.000 NA
ATOM      9  N   UNL     1       2.494   2.851   0.000  0.00  0.00    +0.000 NA
ATOM     10  N   UNL     1       1.188   3.128   0.000  0.00  0.00    +0.000 N 
ENDROOT
BRANCH  10  11
ATOM     11  C   UNL     1       0.474   3.541   0.000  0.00  0.00    +0.000 C 
BRANCH  11  12
ATOM     12  C   UNL     1      -0.241   3.128   0.000  0.00  0.00    +0.000 C 
BRANCH  12  13
ATOM     13  C   UNL     1      -0.955   3.541   0.000  0.00  0.00    +0.000 C 
BRANCH  13  14
ATOM     14  N   UNL     1      -1.670   3.128   0.000  0.00  0.00    +0.000 NA
BRANCH  14  17
ATOM     15  C   UNL     1      -3.099   3.128   0.000  0.00  0.00    +0.000 C 
ATOM     16  C   UNL     1      -2.384   4.366   0.000  0.00  0.00    +0.000 C 
ATOM     17  C   UNL     1      -2.384   3.541   0.000  0.00  0.00    +0.000 C 
ENDBRANCH  14  17
ENDBRANCH  13  14
ENDBRANCH  12  13
ENDBRANCH  11  12
ENDBRANCH  10  11
BRANCH   5  18
ATOM     18  S   UNL     1       2.114   4.271   0.000  0.00  0.00    +0.000 S 
BRANCH  18  25
ATOM     19  C   UNL     1       3.854   5.588   0.000  0.00  0.00    +0.000 A 
ATOM     20  C   UNL     1       3.511   3.974   0.000  0.00  0.00    +0.000 A 
ATOM     21  C   UNL     1       5.623   4.368   0.000  0.00  0.00    +0.000 C 
ATOM     22  C   UNL     1       3.070   5.333   0.000  0.00  0.00    +0.000 A 
ATOM     23  C   UNL     1       4.467   5.035   0.000  0.00  0.00    +0.000 A 
ATOM     24  C   UNL     1       4.296   4.229   0.000  0.00  0.00    +0.000 A 
ATOM     25  C   UNL     1       2.898   4.526   0.000  0.00  0.00    +0.000 A 
ATOM     26  I   UNL     1       2.457   5.885   0.000  0.00  0.00    +0.000 I 
ATOM     27  O   UNL     1       5.288   5.122   0.000  0.00  0.00    +0.000 OA
ATOM     28  O   UNL     1       5.010   3.816   0.000  0.00  0.00    +0.000 OA
ENDBRANCH  18  25
ENDBRANCH   5  18
TORSDOF 7
