REMARK  Name = 
REMARK  7 active torsions:
REMARK  status: ('A' for Active; 'I' for Inactive)
REMARK    1  A    between atoms: N_7  and  C_19
REMARK    2  A    between atoms: C_19  and  C_20
REMARK    3  A    between atoms: C_20  and  C_22
REMARK    4  A    between atoms: C_22  and  C_24
REMARK    5  A    between atoms: C_24  and  C_25
REMARK    6  A    between atoms: C_25  and  O_26
REMARK    7  A    between atoms: O_26  and  P_28
REMARK                            x       y       z     vdW  Elec       q    Type
REMARK                         _______ _______ _______ _____ _____    ______ ____
ROOT
ATOM      1  C   UNL     1      15.163 -10.530   0.000  0.00  0.00    +0.000 A 
ATOM      2  C   UNL     1      15.163 -11.355   0.000  0.00  0.00    +0.000 A 
ATOM      3  C   UNL     1      15.877 -11.767   0.000  0.00  0.00    +0.000 A 
ATOM      4  C   UNL     1      16.592 -11.355   0.000  0.00  0.00    +0.000 A 
ATOM      5  C   UNL     1      16.592 -10.530   0.000  0.00  0.00    +0.000 A 
ATOM      6  C   UNL     1      15.877 -10.117   0.000  0.00  0.00    +0.000 A 
ATOM      7  N   UNL     1      17.306 -11.767   0.000  0.00  0.00    +0.000 N 
ATOM      8  C   UNL     1      18.021 -11.355   0.000  0.00  0.00    +0.000 A 
ATOM      9  C   UNL     1      18.021 -10.530   0.000  0.00  0.00    +0.000 A 
ATOM     10  N   UNL     1      17.306 -10.117   0.000  0.00  0.00    +0.000 NA
ATOM     11  N   UNL     1      18.735 -11.767   0.000  0.00  0.00    +0.000 NA
ATOM     12  C   UNL     1      19.450 -11.355   0.000  0.00  0.00    +0.000 A 
ATOM     13  N   UNL     1      19.450 -10.530   0.000  0.00  0.00    +0.000 NA
ATOM     14  C   UNL     1      18.735 -10.117   0.000  0.00  0.00    +0.000 A 
ATOM     15  C   UNL     1      14.448 -10.117   0.000  0.00  0.00    +0.000 C 
ATOM     16  C   UNL     1      14.448 -11.767   0.000  0.00  0.00    +0.000 C 
ATOM     17  O   UNL     1      20.164 -11.767   0.000  0.00  0.00    +0.000 OA
ATOM     18  O   UNL     1      18.735  -9.292   0.000  0.00  0.00    +0.000 OA
ENDROOT
BRANCH   7  19
ATOM     19  C   UNL     1      17.306 -12.592   0.000  0.00  0.00    +0.000 C 
BRANCH  19  20
ATOM     20  C   UNL     1      16.592 -13.005   0.000  0.00  0.00    +0.000 C 
ATOM     21  O   UNL     1      15.877 -12.592   0.000  0.00  0.00    +0.000 OA
BRANCH  20  22
ATOM     22  C   UNL     1      16.592 -13.830   0.000  0.00  0.00    +0.000 C 
ATOM     23  O   UNL     1      17.306 -14.242   0.000  0.00  0.00    +0.000 OA
BRANCH  22  24
ATOM     24  C   UNL     1      15.877 -14.242   0.000  0.00  0.00    +0.000 C 
ATOM     25  O   UNL     1      15.877 -15.067   0.000  0.00  0.00    +0.000 OA
BRANCH  24  26
ATOM     26  C   UNL     1      15.163 -13.830   0.000  0.00  0.00    +0.000 C 
BRANCH  26  27
ATOM     27  O   UNL     1      14.448 -14.242   0.000  0.00  0.00    +0.000 OA
BRANCH  27  28
ATOM     28  P   UNL     1      13.734 -13.830   0.000  0.00  0.00    +0.000 P 
ATOM     29  O   UNL     1      13.019 -14.242   0.000  0.00  0.00    +0.000 OA
ATOM     30  O   UNL     1      13.734 -13.005   0.000  0.00  0.00    +0.000 OA
ATOM     31  O   UNL     1      14.448 -13.417   0.000  0.00  0.00    +0.000 OA
ENDBRANCH  27  28
ENDBRANCH  26  27
ENDBRANCH  24  26
ENDBRANCH  22  24
ENDBRANCH  20  22
ENDBRANCH  19  20
ENDBRANCH   7  19
TORSDOF 7
