REMARK  Name = 
REMARK  4 active torsions:
REMARK  status: ('A' for Active; 'I' for Inactive)
REMARK    1  A    between atoms: O_2  and  C_3
REMARK    2  A    between atoms: C_3  and  C_5
REMARK    3  A    between atoms: C_5  and  C_7
REMARK    4  A    between atoms: C_10  and  C_14
REMARK                            x       y       z     vdW  Elec       q    Type
REMARK                         _______ _______ _______ _____ _____    ______ ____
ROOT
ATOM      1  C   UNL     1       0.715  -1.238   0.000  0.00  0.00    +0.000 A 
ATOM      2  C   UNL     1       1.429  -1.650   0.000  0.00  0.00    +0.000 A 
ATOM      3  C   UNL     1       1.429  -2.475   0.000  0.00  0.00    +0.000 A 
ATOM      4  C   UNL     1       0.715  -2.888   0.000  0.00  0.00    +0.000 A 
ATOM      5  C   UNL     1       0.000  -2.475   0.000  0.00  0.00    +0.000 A 
ATOM      6  F   UNL     1      -0.715  -2.888   0.000  0.00  0.00    +0.000 F 
ATOM      7  C   UNL     1       0.000  -1.650   0.000  0.00  0.00    +0.000 A 
ENDROOT
BRANCH   4   8
ATOM      8  C   UNL     1       0.715  -3.712   0.000  0.00  0.00    +0.000 A 
ATOM      9  C   UNL     1       1.429  -4.125   0.000  0.00  0.00    +0.000 A 
ATOM     10  C   UNL     1       1.429  -4.950   0.000  0.00  0.00    +0.000 A 
ATOM     11  C   UNL     1       0.715  -5.362   0.000  0.00  0.00    +0.000 A 
ATOM     12  C   UNL     1       0.000  -4.950   0.000  0.00  0.00    +0.000 A 
ATOM     13  C   UNL     1       0.000  -4.125   0.000  0.00  0.00    +0.000 A 
ENDBRANCH   4   8
BRANCH   1  14
ATOM     14  C   UNL     1       0.715  -0.412   0.000  0.00  0.00    +0.000 C 
ATOM     15  C   UNL     1       1.429   0.000   0.000  0.00  0.00    +0.000 C 
BRANCH  14  16
ATOM     16  C   UNL     1       0.000   0.000   0.000  0.00  0.00    +0.000 C 
ATOM     17  O   UNL     1      -0.715  -0.412   0.000  0.00  0.00    +0.000 OA
BRANCH  16  19
ATOM     18  C   UNL     1      -0.715   1.238   0.000  0.00  0.00    +0.000 C 
ATOM     19  O   UNL     1       0.000   0.825   0.000  0.00  0.00    +0.000 OA
ENDBRANCH  16  19
ENDBRANCH  14  16
ENDBRANCH   1  14
TORSDOF 4
