REMARK  Name = 
REMARK  0 active torsions:
REMARK  status: ('A' for Active; 'I' for Inactive)
REMARK                            x       y       z     vdW  Elec       q    Type
REMARK                         _______ _______ _______ _____ _____    ______ ____
ROOT
ATOM      1  F   UNL     1       1.238  -0.715   0.000  0.00  0.00    +0.000 F 
ATOM      2 SN   UNL     1       1.952  -1.127   0.000  0.00  0.00    +0.000 Sn
ATOM      3  F   UNL     1       2.666  -0.715   0.000  0.00  0.00    +0.000 F 
ENDROOT
TORSDOF 0
