REMARK  Name = 
REMARK  3 active torsions:
REMARK  status: ('A' for Active; 'I' for Inactive)
REMARK    1  A    between atoms: C_1  and  C_3
REMARK    2  A    between atoms: C_2  and  C_4
REMARK    3  A    between atoms: C_3  and  C_4
REMARK                            x       y       z     vdW  Elec       q    Type
REMARK                         _______ _______ _______ _____ _____    ______ ____
ROOT
ATOM      1  C   UNL     1       0.825   0.000   0.000  0.00  0.00    +0.000 C 
ATOM      2  O   UNL     1       0.825  -0.825   0.000  0.00  0.00    +0.000 OA
ENDROOT
BRANCH   1   3
ATOM      3  C   UNL     1       0.111   0.412   0.000  0.00  0.00    +0.000 C 
ATOM      4  S   UNL     1      -0.604   0.000   0.000  0.00  0.00    +0.000 S 
ENDBRANCH   1   3
BRANCH   1   5
ATOM      5  C   UNL     1       1.540   0.412   0.000  0.00  0.00    +0.000 C 
ATOM      6  O   UNL     1       1.540   1.238   0.000  0.00  0.00    +0.000 OA
BRANCH   5   7
ATOM      7  C   UNL     1       2.254   0.000   0.000  0.00  0.00    +0.000 C 
ATOM      8  S   UNL     1       2.968   0.412   0.000  0.00  0.00    +0.000 S 
ENDBRANCH   5   7
ENDBRANCH   1   5
TORSDOF 3
