REMARK  Name = 
REMARK  6 active torsions:
REMARK  status: ('A' for Active; 'I' for Inactive)
REMARK    1  A    between atoms: C_5  and  C_6
REMARK    2  A    between atoms: C_6  and  O_7
REMARK    3  A    between atoms: O_7  and  P_8
REMARK    4  A    between atoms: C_13  and  C_14
REMARK    5  A    between atoms: C_14  and  O_15
REMARK    6  A    between atoms: O_15  and  P_16
REMARK                            x       y       z     vdW  Elec       q    Type
REMARK                         _______ _______ _______ _____ _____    ______ ____
ROOT
ATOM      1  O   UNL     1       2.005  -0.430   0.000  0.00  0.00    +0.000 OA
ATOM      2  C   UNL     1       1.520   0.237   0.000  0.00  0.00    +0.000 C 
ATOM      3  C   UNL     1       0.695   0.237   0.000  0.00  0.00    +0.000 C 
ATOM      4  O   UNL     1       0.210  -0.430   0.000  0.00  0.00    +0.000 OA
ATOM      5  C   UNL     1       0.440   1.022   0.000  0.00  0.00    +0.000 C 
ATOM      6  O   UNL     1       1.108   1.507   0.000  0.00  0.00    +0.000 OA
ATOM      7  C   UNL     1       1.775   1.022   0.000  0.00  0.00    +0.000 C 
ATOM      8  O   UNL     1       2.359   0.438   0.000  0.00  0.00    +0.000 OA
ENDROOT
BRANCH   5   9
ATOM      9  C   UNL     1      -0.344   1.277   0.000  0.00  0.00    +0.000 C 
BRANCH   9  10
ATOM     10  O   UNL     1      -0.957   0.725   0.000  0.00  0.00    +0.000 OA
BRANCH  10  11
ATOM     11  P   UNL     1      -1.742   0.980   0.000  0.00  0.00    +0.000 P 
ATOM     12  O   UNL     1      -2.526   1.235   0.000  0.00  0.00    +0.000 OA
ATOM     13  O   UNL     1      -1.997   0.195   0.000  0.00  0.00    +0.000 OA
ATOM     14  O   UNL     1      -1.487   1.764   0.000  0.00  0.00    +0.000 OA
ENDBRANCH  10  11
ENDBRANCH   9  10
ENDBRANCH   5   9
BRANCH   7  15
ATOM     15  C   UNL     1       2.560   1.276   0.000  0.00  0.00    +0.000 C 
BRANCH  15  16
ATOM     16  O   UNL     1       3.173   0.725   0.000  0.00  0.00    +0.000 OA
BRANCH  16  17
ATOM     17  P   UNL     1       3.958   0.979   0.000  0.00  0.00    +0.000 P 
ATOM     18  O   UNL     1       4.742   1.234   0.000  0.00  0.00    +0.000 OA
ATOM     19  O   UNL     1       4.213   0.195   0.000  0.00  0.00    +0.000 OA
ATOM     20  O   UNL     1       3.703   1.764   0.000  0.00  0.00    +0.000 OA
ENDBRANCH  16  17
ENDBRANCH  15  16
ENDBRANCH   7  15
TORSDOF 6
