REMARK  Name = 
REMARK  2 active torsions:
REMARK  status: ('A' for Active; 'I' for Inactive)
REMARK    1  A    between atoms: C_2  and  C_3
REMARK    2  A    between atoms: C_3  and  N_4
REMARK                            x       y       z     vdW  Elec       q    Type
REMARK                         _______ _______ _______ _____ _____    ______ ____
ROOT
ATOM      1  N   UNL     1       3.663  -1.157   0.000  0.00  0.00    +0.000 NA
ATOM      2  C   UNL     1       3.408  -0.372   0.000  0.00  0.00    +0.000 A 
ATOM      3  N   UNL     1       3.960   0.241   0.000  0.00  0.00    +0.000 NA
ATOM      4  C   UNL     1       3.705   1.026   0.000  0.00  0.00    +0.000 A 
ATOM      5  N   UNL     1       2.898   1.197   0.000  0.00  0.00    +0.000 NA
ATOM      6  C   UNL     1       2.346   0.584   0.000  0.00  0.00    +0.000 A 
ATOM      7  C   UNL     1       2.601  -0.201   0.000  0.00  0.00    +0.000 A 
ATOM      8  N   UNL     1       1.934  -0.685   0.000  0.00  0.00    +0.000 NA
ATOM      9  C   UNL     1       1.266  -0.201   0.000  0.00  0.00    +0.000 A 
ATOM     10  C   UNL     1       0.460  -0.372   0.000  0.00  0.00    +0.000 A 
ATOM     11  C   UNL     1      -0.092   0.241   0.000  0.00  0.00    +0.000 A 
ATOM     12  C   UNL     1       0.162   1.026   0.000  0.00  0.00    +0.000 A 
ATOM     13  C   UNL     1       0.969   1.197   0.000  0.00  0.00    +0.000 A 
ATOM     14  N   UNL     1       1.521   0.584   0.000  0.00  0.00    +0.000 N 
ENDROOT
BRANCH   1  15
ATOM     15  C   UNL     1       4.470  -1.328   0.000  0.00  0.00    +0.000 C 
BRANCH  15  17
ATOM     16  O   UNL     1       5.532  -2.284   0.000  0.00  0.00    +0.000 OA
ATOM     17  C   UNL     1       4.725  -2.113   0.000  0.00  0.00    +0.000 C 
ENDBRANCH  15  17
ENDBRANCH   1  15
TORSDOF 2
