REMARK  Name = 
REMARK  5 active torsions:
REMARK  status: ('A' for Active; 'I' for Inactive)
REMARK    1  A    between atoms: C_3  and  C_13
REMARK    2  A    between atoms: C_7  and  C_20
REMARK    3  A    between atoms: C_8  and  C_9
REMARK    4  A    between atoms: C_10  and  C_11
REMARK    5  A    between atoms: C_12  and  C_18
REMARK                            x       y       z     vdW  Elec       q    Type
REMARK                         _______ _______ _______ _____ _____    ______ ____
ROOT
ATOM      1  C   UNL     1       3.572   0.412   0.000  0.00  0.00    +0.000 C 
ATOM      2  C   UNL     1       2.858   0.825   0.000  0.00  0.00    +0.000 C 
ATOM      3  C   UNL     1       2.858   1.650   0.000  0.00  0.00    +0.000 C 
ENDROOT
BRANCH   1   5
ATOM      4  C   UNL     1       5.001   0.412   0.000  0.00  0.00    +0.000 C 
ATOM      5  C   UNL     1       4.287   0.825   0.000  0.00  0.00    +0.000 C 
BRANCH   4   7
ATOM      6  C   UNL     1       6.430   0.412   0.000  0.00  0.00    +0.000 C 
ATOM      7  C   UNL     1       5.716   0.825   0.000  0.00  0.00    +0.000 C 
ATOM      8  C   UNL     1       5.716   1.650   0.000  0.00  0.00    +0.000 C 
BRANCH   6   9
ATOM      9  C   UNL     1       6.430  -0.412   0.000  0.00  0.00    +0.000 C 
ATOM     10  O   UNL     1       5.716  -0.825   0.000  0.00  0.00    +0.000 OA
ATOM     11  O   UNL     1       7.145  -0.825   0.000  0.00  0.00    +0.000 OA
ENDBRANCH   6   9
ENDBRANCH   4   7
ENDBRANCH   1   5
BRANCH   2  13
ATOM     12  C   UNL     1       1.429   0.825   0.000  0.00  0.00    +0.000 C 
ATOM     13  C   UNL     1       2.143   0.412   0.000  0.00  0.00    +0.000 C 
BRANCH  12  16
ATOM     14  C   UNL     1       0.000   0.825   0.000  0.00  0.00    +0.000 C 
ATOM     15  C   UNL     1      -0.715   0.412   0.000  0.00  0.00    +0.000 C 
ATOM     16  C   UNL     1       0.715   0.412   0.000  0.00  0.00    +0.000 C 
ATOM     17  C   UNL     1       0.715  -0.412   0.000  0.00  0.00    +0.000 C 
ATOM     18  C   UNL     1       0.000  -0.825   0.000  0.00  0.00    +0.000 C 
ATOM     19  C   UNL     1      -0.715  -0.412   0.000  0.00  0.00    +0.000 C 
ATOM     20  C   UNL     1       0.412   1.540   0.000  0.00  0.00    +0.000 C 
ATOM     21  C   UNL     1      -0.412   1.540   0.000  0.00  0.00    +0.000 C 
ATOM     22  C   UNL     1       1.429  -0.825   0.000  0.00  0.00    +0.000 C 
ENDBRANCH  12  16
ENDBRANCH   2  13
TORSDOF 5
