REMARK  Name = 
REMARK  7 active torsions:
REMARK  status: ('A' for Active; 'I' for Inactive)
REMARK    1  A    between atoms: N_2  and  C_3
REMARK    2  A    between atoms: N_2  and  C_10
REMARK    3  A    between atoms: C_3  and  C_4
REMARK    4  A    between atoms: C_4  and  CA_5
REMARK    5  A    between atoms: CA_5  and  C_7
REMARK    6  A    between atoms: C_10  and  C_11
REMARK    7  A    between atoms: C_13  and  N_18
REMARK                            x       y       z     vdW  Elec       q    Type
REMARK                         _______ _______ _______ _____ _____    ______ ____
ROOT
ATOM      1  C   UNL     1      11.345  -0.969   0.000  0.00  0.00    +0.000 C 
ATOM      2  O   UNL     1      12.098  -0.634   0.000  0.00  0.00    +0.000 OA
ATOM      3  C   UNL     1      12.650  -1.247   0.000  0.00  0.00    +0.000 C 
ATOM      4  C   UNL     1      12.238  -1.961   0.000  0.00  0.00    +0.000 C 
ATOM      5  O   UNL     1      12.574  -2.715   0.000  0.00  0.00    +0.000 OA
ATOM      6  C   UNL     1      11.431  -1.790   0.000  0.00  0.00    +0.000 C 
ATOM      7  O   UNL     1      10.818  -2.342   0.000  0.00  0.00    +0.000 OA
ENDROOT
BRANCH   3   8
ATOM      8  N   UNL     1      13.471  -1.161   0.000  0.00  0.00    +0.000 N 
ATOM      9  C   UNL     1      13.883  -0.446   0.000  0.00  0.00    +0.000 A 
ATOM     10  N   UNL     1      14.691  -0.618   0.000  0.00  0.00    +0.000 NA
ATOM     11  C   UNL     1      14.777  -1.438   0.000  0.00  0.00    +0.000 A 
ATOM     12  C   UNL     1      15.444  -1.923   0.000  0.00  0.00    +0.000 A 
ATOM     13  N   UNL     1      16.198  -1.588   0.000  0.00  0.00    +0.000 NA
ATOM     14  N   UNL     1      15.358  -2.744   0.000  0.00  0.00    +0.000 NA
ATOM     15  C   UNL     1      14.604  -3.079   0.000  0.00  0.00    +0.000 A 
ATOM     16  N   UNL     1      13.937  -2.594   0.000  0.00  0.00    +0.000 NA
ATOM     17  C   UNL     1      14.023  -1.774   0.000  0.00  0.00    +0.000 A 
ENDBRANCH   3   8
BRANCH   1  18
ATOM     18  C   UNL     1      10.630  -0.557   0.000  0.00  0.00    +0.000 C 
BRANCH  18  20
ATOM     19  C   UNL     1       9.916  -1.794   0.000  0.00  0.00    +0.000 C 
ATOM     20  N   UNL     1       9.916  -0.969   0.000  0.00  0.00    +0.000 NA
BRANCH  20  21
ATOM     21  C   UNL     1       9.201  -0.557   0.000  0.00  0.00    +0.000 C 
BRANCH  21  22
ATOM     22  C   UNL     1       8.487  -0.969   0.000  0.00  0.00    +0.000 C 
BRANCH  22  23
ATOM     23  CA  UNL     1       7.772  -0.557   0.000  0.00  0.00    +0.000 C 
ATOM     24  N   UNL     1       7.772   0.268   0.000  0.00  0.00    +0.000 NA
BRANCH  23  25
ATOM     25  C   UNL     1       7.058  -0.969   0.000  0.00  0.00    +0.000 C 
ATOM     26  O   UNL     1       6.343  -0.557   0.000  0.00  0.00    +0.000 OA
ATOM     27  OXT UNL     1       7.058  -1.794   0.000  0.00  0.00    +0.000 OA
ENDBRANCH  23  25
ENDBRANCH  22  23
ENDBRANCH  21  22
ENDBRANCH  20  21
ENDBRANCH  18  20
ENDBRANCH   1  18
TORSDOF 7
