REMARK  Name = 
REMARK  3 active torsions:
REMARK  status: ('A' for Active; 'I' for Inactive)
REMARK    1  A    between atoms: C_2  and  O_12
REMARK    2  A    between atoms: C_5  and  C_10
REMARK    3  A    between atoms: O_12  and  P_15
REMARK                            x       y       z     vdW  Elec       q    Type
REMARK                         _______ _______ _______ _____ _____    ______ ____
ROOT
ATOM      1  C   UNL     1       0.715  -0.412   0.000  0.00  0.00    +0.000 C 
ATOM      2  C   UNL     1       0.715   0.412   0.000  0.00  0.00    +0.000 C 
ATOM      3  O   UNL     1       0.000   0.825   0.000  0.00  0.00    +0.000 OA
ATOM      4  C   UNL     1       0.000  -0.825   0.000  0.00  0.00    +0.000 C 
ATOM      5  C   UNL     1      -0.715   0.412   0.000  0.00  0.00    +0.000 C 
ATOM      6  C   UNL     1      -0.715  -0.412   0.000  0.00  0.00    +0.000 C 
ATOM      7  N   UNL     1       1.429  -0.825   0.000  0.00  0.00    +0.000 NA
ATOM      8  O   UNL     1       0.000  -1.650   0.000  0.00  0.00    +0.000 OA
ATOM      9  O   UNL     1      -1.429  -0.825   0.000  0.00  0.00    +0.000 OA
ENDROOT
BRANCH   5  10
ATOM     10  C   UNL     1      -1.429   0.825   0.000  0.00  0.00    +0.000 C 
ATOM     11  O   UNL     1      -2.143   0.412   0.000  0.00  0.00    +0.000 OA
ENDBRANCH   5  10
BRANCH   2  12
ATOM     12  O   UNL     1       1.429   0.825   0.000  0.00  0.00    +0.000 OA
BRANCH  12  15
ATOM     13  O   UNL     1       1.429   2.475   0.000  0.00  0.00    +0.000 OA
ATOM     14  O   UNL     1       2.143   2.062   0.000  0.00  0.00    +0.000 OA
ATOM     15  P   UNL     1       1.429   1.650   0.000  0.00  0.00    +0.000 P 
ATOM     16  O   UNL     1       0.714   2.062   0.000  0.00  0.00    +0.000 OA
ENDBRANCH  12  15
ENDBRANCH   2  12
TORSDOF 3
