REMARK  Name = 
REMARK  4 active torsions:
REMARK  status: ('A' for Active; 'I' for Inactive)
REMARK    1  A    between atoms: C_3  and  C_8
REMARK    2  A    between atoms: C_5  and  O_12
REMARK    3  A    between atoms: C_6  and  N_16
REMARK    4  A    between atoms: O_12  and  S_13
REMARK                            x       y       z     vdW  Elec       q    Type
REMARK                         _______ _______ _______ _____ _____    ______ ____
ROOT
ATOM      1  O   UNL     1       7.671  -6.261   0.000  0.00  0.00    +0.000 OA
ATOM      2  C   UNL     1       6.956  -6.673   0.000  0.00  0.00    +0.000 C 
ATOM      3  C   UNL     1       7.671  -5.436   0.000  0.00  0.00    +0.000 C 
ATOM      4  C   UNL     1       6.242  -6.261   0.000  0.00  0.00    +0.000 C 
ATOM      5  C   UNL     1       6.956  -5.023   0.000  0.00  0.00    +0.000 C 
ATOM      6  C   UNL     1       6.242  -5.436   0.000  0.00  0.00    +0.000 C 
ATOM      7  O   UNL     1       8.385  -5.023   0.000  0.00  0.00    +0.000 OA
ATOM      8  O   UNL     1       5.527  -5.023   0.000  0.00  0.00    +0.000 OA
ENDROOT
BRANCH   5   9
ATOM      9  N   UNL     1       6.956  -4.198   0.000  0.00  0.00    +0.000 NA
ATOM     10  C   UNL     1       6.242  -3.786   0.000  0.00  0.00    +0.000 C 
ATOM     11  C   UNL     1       6.242  -2.961   0.000  0.00  0.00    +0.000 C 
ATOM     12  O   UNL     1       5.527  -4.198   0.000  0.00  0.00    +0.000 OA
ENDBRANCH   5   9
BRANCH   2  13
ATOM     13  C   UNL     1       6.956  -7.498   0.000  0.00  0.00    +0.000 C 
ATOM     14  O   UNL     1       7.671  -7.911   0.000  0.00  0.00    +0.000 OA
ENDBRANCH   2  13
BRANCH   4  15
ATOM     15  O   UNL     1       5.527  -6.673   0.000  0.00  0.00    +0.000 OA
BRANCH  15  17
ATOM     16  O   UNL     1       6.352  -7.498   0.000  0.00  0.00    +0.000 OA
ATOM     17  S   UNL     1       5.527  -7.498   0.000  0.00  0.00    +0.000 S 
ATOM     18  O   UNL     1       4.702  -7.498   0.000  0.00  0.00    +0.000 OA
ATOM     19  O   UNL     1       5.527  -8.323   0.000  0.00  0.00    +0.000 OA
ENDBRANCH  15  17
ENDBRANCH   4  15
TORSDOF 4
