REMARK  Name = 
REMARK  5 active torsions:
REMARK  status: ('A' for Active; 'I' for Inactive)
REMARK    1  A    between atoms: N_2  and  C_4
REMARK    2  A    between atoms: C_8  and  C_21
REMARK    3  A    between atoms: C_12  and  N_18
REMARK    4  A    between atoms: C_24  and  N_30
REMARK    5  A    between atoms: C_26  and  C_27
REMARK                            x       y       z     vdW  Elec       q    Type
REMARK                         _______ _______ _______ _____ _____    ______ ____
ROOT
ATOM      1  C   UNL     1       1.429  -2.475   0.000  0.00  0.00    +0.000 C 
ATOM      2  C   UNL     1       1.429  -1.650   0.000  0.00  0.00    +0.000 C 
ATOM      3  C   UNL     1       2.143  -1.238   0.000  0.00  0.00    +0.000 C 
ATOM      4  C   UNL     1       2.858  -1.650   0.000  0.00  0.00    +0.000 C 
ATOM      5  C   UNL     1       3.572  -1.238   0.000  0.00  0.00    +0.000 C 
ATOM      6  C   UNL     1       4.287  -1.650   0.000  0.00  0.00    +0.000 A 
ATOM      7  C   UNL     1       5.001  -1.238   0.000  0.00  0.00    +0.000 A 
ATOM      8  C   UNL     1       5.716  -1.650   0.000  0.00  0.00    +0.000 A 
ATOM      9  C   UNL     1       5.716  -2.475   0.000  0.00  0.00    +0.000 A 
ATOM     10  C   UNL     1       5.001  -2.888   0.000  0.00  0.00    +0.000 A 
ATOM     11  C   UNL     1       4.287  -2.475   0.000  0.00  0.00    +0.000 A 
ATOM     12  O   UNL     1       3.572  -2.888   0.000  0.00  0.00    +0.000 OA
ATOM     13  C   UNL     1       2.858  -2.475   0.000  0.00  0.00    +0.000 C 
ATOM     14  C   UNL     1       2.143  -2.888   0.000  0.00  0.00    +0.000 C 
ENDROOT
BRANCH   5  15
ATOM     15  C   UNL     1       3.572  -0.412   0.000  0.00  0.00    +0.000 A 
ATOM     16  C   UNL     1       2.858   0.000   0.000  0.00  0.00    +0.000 A 
ATOM     17  C   UNL     1       2.858   0.825   0.000  0.00  0.00    +0.000 A 
ATOM     18  C   UNL     1       3.572   1.238   0.000  0.00  0.00    +0.000 A 
ATOM     19  C   UNL     1       4.287   0.825   0.000  0.00  0.00    +0.000 A 
ATOM     20  C   UNL     1       4.287   0.000   0.000  0.00  0.00    +0.000 A 
BRANCH  18  21
ATOM     21  N   UNL     1       3.572   2.062   0.000  0.00  0.00    +0.000 N 
ATOM     22  C   UNL     1       2.905   2.547   0.000  0.00  0.00    +0.000 C 
ATOM     23  O   UNL     1       2.120   2.292   0.000  0.00  0.00    +0.000 OA
ATOM     24  C   UNL     1       3.160   3.332   0.000  0.00  0.00    +0.000 C 
ATOM     25  C   UNL     1       3.985   3.332   0.000  0.00  0.00    +0.000 C 
ATOM     26  C   UNL     1       4.240   2.547   0.000  0.00  0.00    +0.000 C 
ATOM     27  O   UNL     1       5.024   2.292   0.000  0.00  0.00    +0.000 OA
ENDBRANCH  18  21
BRANCH  20  28
ATOM     28  C   UNL     1       5.001  -0.412   0.000  0.00  0.00    +0.000 C 
ATOM     29  O   UNL     1       5.486  -1.080   0.000  0.00  0.00    +0.000 OA
ATOM     30  O   UNL     1       5.716   0.000   0.000  0.00  0.00    +0.000 OA
ENDBRANCH  20  28
ENDBRANCH   5  15
BRANCH   1  32
ATOM     31  C   UNL     1       0.715  -3.712   0.000  0.00  0.00    +0.000 C 
ATOM     32  N   UNL     1       0.715  -2.888   0.000  0.00  0.00    +0.000 N 
ATOM     33  C   UNL     1       0.000  -2.475   0.000  0.00  0.00    +0.000 C 
ENDBRANCH   1  32
BRANCH   9  34
ATOM     34  N   UNL     1       6.430  -2.888   0.000  0.00  0.00    +0.000 N 
ATOM     35  C   UNL     1       6.430  -3.712   0.000  0.00  0.00    +0.000 C 
ATOM     36  C   UNL     1       7.145  -2.475   0.000  0.00  0.00    +0.000 C 
ENDBRANCH   9  34
TORSDOF 5
