REMARK  Name = 
REMARK  10 active torsions:
REMARK  status: ('A' for Active; 'I' for Inactive)
REMARK    1  A    between atoms: N_1  and  C_2
REMARK    2  A    between atoms: C_2  and  C_3
REMARK    3  A    between atoms: C_5  and  C_6
REMARK    4  A    between atoms: C_9  and  C_15
REMARK    5  A    between atoms: C_11  and  C_12
REMARK    6  A    between atoms: C_11  and  C_25
REMARK    7  A    between atoms: C_20  and  C_21
REMARK    8  A    between atoms: C_21  and  C_22
REMARK    9  A    between atoms: C_22  and  C_23
REMARK   10  A    between atoms: C_25  and  C_26
REMARK                            x       y       z     vdW  Elec       q    Type
REMARK                         _______ _______ _______ _____ _____    ______ ____
ROOT
ATOM      1  N   UNL     1      -0.715  -0.412   0.000  0.00  0.00    +0.000 N 
ATOM      2  C   UNL     1      -0.715   0.412   0.000  0.00  0.00    +0.000 A 
ATOM      3  C   UNL     1      -1.499   0.667   0.000  0.00  0.00    +0.000 A 
ATOM      4  N   UNL     1      -1.984   0.000   0.000  0.00  0.00    +0.000 NA
ATOM      5  C   UNL     1      -1.499  -0.667   0.000  0.00  0.00    +0.000 A 
ENDROOT
BRANCH   2   6
ATOM      6  C   UNL     1       0.000   0.825   0.000  0.00  0.00    +0.000 C 
ATOM      7  C   UNL     1       0.000   1.650   0.000  0.00  0.00    +0.000 C 
BRANCH   7   8
ATOM      8  C   UNL     1       0.715   2.062   0.000  0.00  0.00    +0.000 C 
ATOM      9  O   UNL     1       0.715   2.887   0.000  0.00  0.00    +0.000 OA
ATOM     10  O   UNL     1       1.429   1.650   0.000  0.00  0.00    +0.000 OA
ENDBRANCH   7   8
BRANCH   7  11
ATOM     11  C   UNL     1      -0.714   2.062   0.000  0.00  0.00    +0.000 C 
BRANCH  11  12
ATOM     12  C   UNL     1      -0.714   2.887   0.000  0.00  0.00    +0.000 A 
ATOM     13  S   UNL     1      -0.047   3.372   0.000  0.00  0.00    +0.000 S 
ATOM     14  C   UNL     1      -0.301   4.157   0.000  0.00  0.00    +0.000 A 
ATOM     15  C   UNL     1      -1.127   4.157   0.000  0.00  0.00    +0.000 A 
ATOM     16  C   UNL     1      -1.382   3.372   0.000  0.00  0.00    +0.000 A 
ENDBRANCH  11  12
ENDBRANCH   7  11
ENDBRANCH   2   6
BRANCH   1  17
ATOM     17  C   UNL     1       0.000  -0.825   0.000  0.00  0.00    +0.000 C 
BRANCH  17  18
ATOM     18  C   UNL     1       0.715  -0.412   0.000  0.00  0.00    +0.000 A 
ATOM     19  C   UNL     1       0.715   0.412   0.000  0.00  0.00    +0.000 A 
ATOM     20  C   UNL     1       1.429  -0.825   0.000  0.00  0.00    +0.000 A 
ATOM     21  C   UNL     1       2.143  -0.413   0.000  0.00  0.00    +0.000 A 
ATOM     22  C   UNL     1       2.143   0.412   0.000  0.00  0.00    +0.000 A 
ATOM     23  C   UNL     1       1.429   0.825   0.000  0.00  0.00    +0.000 A 
BRANCH  22  24
ATOM     24  C   UNL     1       2.858   0.825   0.000  0.00  0.00    +0.000 C 
ATOM     25  O   UNL     1       2.858   1.650   0.000  0.00  0.00    +0.000 OA
ATOM     26  O   UNL     1       3.572   0.412   0.000  0.00  0.00    +0.000 OA
ENDBRANCH  22  24
ENDBRANCH  17  18
ENDBRANCH   1  17
BRANCH   5  27
ATOM     27  C   UNL     1      -1.754  -1.452   0.000  0.00  0.00    +0.000 C 
BRANCH  27  28
ATOM     28  C   UNL     1      -2.561  -1.623   0.000  0.00  0.00    +0.000 C 
BRANCH  28  29
ATOM     29  C   UNL     1      -2.816  -2.408   0.000  0.00  0.00    +0.000 C 
ATOM     30  C   UNL     1      -3.623  -2.580   0.000  0.00  0.00    +0.000 C 
ENDBRANCH  28  29
ENDBRANCH  27  28
ENDBRANCH   5  27
TORSDOF 10
