REMARK  Name = 
REMARK  17 active torsions:
REMARK  status: ('A' for Active; 'I' for Inactive)
REMARK    1  A    between atoms: N_8  and  C_12
REMARK    2  A    between atoms: C_15  and  C_16
REMARK    3  A    between atoms: C_16  and  C_17
REMARK    4  A    between atoms: C_17  and  C_19
REMARK    5  A    between atoms: C_19  and  C_21
REMARK    6  A    between atoms: C_21  and  C_23
REMARK    7  A    between atoms: C_23  and  O_24
REMARK    8  A    between atoms: O_24  and  C_25
REMARK    9  A    between atoms: C_27  and  C_28
REMARK   10  A    between atoms: C_28  and  O_29
REMARK   11  A    between atoms: O_29  and  P_30
REMARK   12  A    between atoms: P_30  and  O_33
REMARK   13  A    between atoms: O_33  and  C_34
REMARK   14  A    between atoms: C_34  and  C_35
REMARK   15  A    between atoms: C_34  and  C_40
REMARK   16  A    between atoms: C_35  and  C_36
REMARK   17  A    between atoms: C_36  and  C_37
REMARK                            x       y       z     vdW  Elec       q    Type
REMARK                         _______ _______ _______ _____ _____    ______ ____
ROOT
ATOM      1  C   UNL     1     -16.378   3.087   0.000  0.00  0.00    +0.000 C 
ATOM      2  O   UNL     1     -15.776   3.651   0.000  0.00  0.00    +0.000 OA
ENDROOT
BRANCH   1   3
ATOM      3  C   UNL     1     -16.191   2.284   0.000  0.00  0.00    +0.000 C 
ATOM      4  O   UNL     1     -16.793   1.720   0.000  0.00  0.00    +0.000 OA
BRANCH   3   5
ATOM      5  C   UNL     1     -15.402   2.044   0.000  0.00  0.00    +0.000 C 
BRANCH   5   6
ATOM      6  O   UNL     1     -15.214   1.241   0.000  0.00  0.00    +0.000 OA
BRANCH   6   7
ATOM      7  C   UNL     1     -14.425   1.001   0.000  0.00  0.00    +0.000 C 
ATOM      8  O   UNL     1     -13.767   1.498   0.000  0.00  0.00    +0.000 OA
ATOM      9  C   UNL     1     -13.090   1.027   0.000  0.00  0.00    +0.000 C 
ATOM     10  C   UNL     1     -13.330   0.237   0.000  0.00  0.00    +0.000 C 
ATOM     11  O   UNL     1     -12.832  -0.421   0.000  0.00  0.00    +0.000 OA
ATOM     12  C   UNL     1     -14.155   0.221   0.000  0.00  0.00    +0.000 C 
ATOM     13  O   UNL     1     -14.627  -0.455   0.000  0.00  0.00    +0.000 OA
BRANCH   9  14
ATOM     14  C   UNL     1     -12.311   1.297   0.000  0.00  0.00    +0.000 C 
BRANCH  14  15
ATOM     15  O   UNL     1     -11.687   0.756   0.000  0.00  0.00    +0.000 OA
BRANCH  15  16
ATOM     16  P   UNL     1     -10.908   1.027   0.000  0.00  0.00    +0.000 P 
ATOM     17  O   UNL     1     -11.178   1.806   0.000  0.00  0.00    +0.000 OA
ATOM     18  O   UNL     1     -10.638   0.247   0.000  0.00  0.00    +0.000 OA
BRANCH  16  19
ATOM     19  O   UNL     1     -10.128   1.297   0.000  0.00  0.00    +0.000 OA
BRANCH  19  20
ATOM     20  C   UNL     1      -9.504   0.756   0.000  0.00  0.00    +0.000 C 
BRANCH  20  21
ATOM     21  C   UNL     1      -9.660  -0.054   0.000  0.00  0.00    +0.000 C 
ATOM     22  O   UNL     1      -9.037  -0.594   0.000  0.00  0.00    +0.000 OA
ATOM     23  O   UNL     1     -10.440  -0.324   0.000  0.00  0.00    +0.000 OA
ENDBRANCH  20  21
BRANCH  20  24
ATOM     24  C   UNL     1      -8.725   1.027   0.000  0.00  0.00    +0.000 C 
BRANCH  24  25
ATOM     25  C   UNL     1      -8.101   0.486   0.000  0.00  0.00    +0.000 C 
BRANCH  25  26
ATOM     26  C   UNL     1      -7.322   0.756   0.000  0.00  0.00    +0.000 C 
ATOM     27  O   UNL     1      -6.698   0.216   0.000  0.00  0.00    +0.000 OA
ATOM     28  O   UNL     1      -7.166   1.567   0.000  0.00  0.00    +0.000 OA
ENDBRANCH  25  26
ENDBRANCH  24  25
ENDBRANCH  20  24
ENDBRANCH  19  20
ENDBRANCH  16  19
ENDBRANCH  15  16
ENDBRANCH  14  15
ENDBRANCH   9  14
ENDBRANCH   6   7
ENDBRANCH   5   6
ENDBRANCH   3   5
ENDBRANCH   1   3
BRANCH   1  29
ATOM     29  C   UNL     1     -17.167   3.327   0.000  0.00  0.00    +0.000 C 
ATOM     30  O   UNL     1     -17.770   2.763   0.000  0.00  0.00    +0.000 OA
BRANCH  29  31
ATOM     31  C   UNL     1     -17.354   4.131   0.000  0.00  0.00    +0.000 C 
BRANCH  31  35
ATOM     32  C   UNL     1     -19.723   4.850   0.000  0.00  0.00    +0.000 A 
ATOM     33  C   UNL     1     -19.120   5.413   0.000  0.00  0.00    +0.000 A 
ATOM     34  C   UNL     1     -18.331   5.174   0.000  0.00  0.00    +0.000 A 
ATOM     35  C   UNL     1     -18.144   4.370   0.000  0.00  0.00    +0.000 A 
ATOM     36  C   UNL     1     -18.746   3.807   0.000  0.00  0.00    +0.000 A 
ATOM     37  C   UNL     1     -19.535   4.046   0.000  0.00  0.00    +0.000 A 
BRANCH  32  45
ATOM     38  C   UNL     1     -21.931   7.245   0.000  0.00  0.00    +0.000 C 
ATOM     39  C   UNL     1     -22.171   6.455   0.000  0.00  0.00    +0.000 C 
ATOM     40  N   UNL     1     -22.974   6.268   0.000  0.00  0.00    +0.000 NA
ATOM     41  C   UNL     1     -23.214   5.479   0.000  0.00  0.00    +0.000 A 
ATOM     42  C   UNL     1     -22.650   4.877   0.000  0.00  0.00    +0.000 A 
ATOM     43  N   UNL     1     -21.847   5.064   0.000  0.00  0.00    +0.000 N 
ATOM     44  C   UNL     1     -21.170   4.592   0.000  0.00  0.00    +0.000 C 
ATOM     45  N   UNL     1     -20.512   5.090   0.000  0.00  0.00    +0.000 N 
ATOM     46  C   UNL     1     -20.782   5.869   0.000  0.00  0.00    +0.000 C 
ATOM     47  C   UNL     1     -20.310   6.546   0.000  0.00  0.00    +0.000 C 
ATOM     48  C   UNL     1     -21.607   5.853   0.000  0.00  0.00    +0.000 C 
ATOM     49  C   UNL     1     -22.890   4.087   0.000  0.00  0.00    +0.000 A 
ATOM     50  O   UNL     1     -22.326   3.485   0.000  0.00  0.00    +0.000 OA
ATOM     51  N   UNL     1     -23.693   3.900   0.000  0.00  0.00    +0.000 NA
ATOM     52  C   UNL     1     -24.257   4.503   0.000  0.00  0.00    +0.000 A 
ATOM     53  N   UNL     1     -25.061   4.315   0.000  0.00  0.00    +0.000 NA
ATOM     54  N   UNL     1     -24.017   5.292   0.000  0.00  0.00    +0.000 NA
ENDBRANCH  32  45
ENDBRANCH  31  35
ENDBRANCH  29  31
ENDBRANCH   1  29
TORSDOF 17
