REMARK  Name = 
REMARK  7 active torsions:
REMARK  status: ('A' for Active; 'I' for Inactive)
REMARK    1  A    between atoms: C_15  and  O_26
REMARK    2  A    between atoms: C_16  and  O_27
REMARK    3  A    between atoms: C_17  and  C_22
REMARK    4  A    between atoms: C_18  and  C_22
REMARK    5  A    between atoms: C_19  and  O_26
REMARK    6  A    between atoms: C_20  and  O_27
REMARK    7  A    between atoms: C_21  and  C_22
REMARK                            x       y       z     vdW  Elec       q    Type
REMARK                         _______ _______ _______ _____ _____    ______ ____
ROOT
ATOM      1  C   UNL     1      -2.143   2.062   0.000  0.00  0.00    +0.000 C 
ENDROOT
BRANCH   1   6
ATOM      2  C   UNL     1      -0.714   2.062   0.000  0.00  0.00    +0.000 A 
ATOM      3  C   UNL     1      -1.429   3.300   0.000  0.00  0.00    +0.000 A 
ATOM      4  C   UNL     1       0.000   2.475   0.000  0.00  0.00    +0.000 A 
ATOM      5  C   UNL     1      -0.714   3.712   0.000  0.00  0.00    +0.000 A 
ATOM      6  C   UNL     1      -1.429   2.475   0.000  0.00  0.00    +0.000 A 
ATOM      7  C   UNL     1       0.000   3.300   0.000  0.00  0.00    +0.000 A 
BRANCH   7   8
ATOM      8  O   UNL     1       0.714   3.712   0.000  0.00  0.00    +0.000 OA
BRANCH   8  10
ATOM      9  C   UNL     1       2.143   3.712   0.000  0.00  0.00    +0.000 C 
ATOM     10  C   UNL     1       1.429   3.300   0.000  0.00  0.00    +0.000 C 
ATOM     11  O   UNL     1       1.429   2.475   0.000  0.00  0.00    +0.000 OA
ENDBRANCH   8  10
ENDBRANCH   7   8
ENDBRANCH   1   6
BRANCH   1  16
ATOM     12  C   UNL     1      -2.858   3.300   0.000  0.00  0.00    +0.000 A 
ATOM     13  C   UNL     1      -3.572   2.062   0.000  0.00  0.00    +0.000 A 
ATOM     14  C   UNL     1      -3.572   3.712   0.000  0.00  0.00    +0.000 A 
ATOM     15  C   UNL     1      -4.287   2.475   0.000  0.00  0.00    +0.000 A 
ATOM     16  C   UNL     1      -2.858   2.475   0.000  0.00  0.00    +0.000 A 
ATOM     17  C   UNL     1      -4.287   3.300   0.000  0.00  0.00    +0.000 A 
BRANCH  17  18
ATOM     18  O   UNL     1      -5.001   3.712   0.000  0.00  0.00    +0.000 OA
BRANCH  18  20
ATOM     19  C   UNL     1      -6.430   3.712   0.000  0.00  0.00    +0.000 C 
ATOM     20  C   UNL     1      -5.716   3.300   0.000  0.00  0.00    +0.000 C 
ATOM     21  O   UNL     1      -5.716   2.475   0.000  0.00  0.00    +0.000 OA
ENDBRANCH  18  20
ENDBRANCH  17  18
ENDBRANCH   1  16
BRANCH   1  26
ATOM     22  C   UNL     1      -2.858   0.000   0.000  0.00  0.00    +0.000 A 
ATOM     23  C   UNL     1      -2.143  -0.412   0.000  0.00  0.00    +0.000 A 
ATOM     24  C   UNL     1      -2.858   0.825   0.000  0.00  0.00    +0.000 A 
ATOM     25  C   UNL     1      -1.429   0.000   0.000  0.00  0.00    +0.000 A 
ATOM     26  C   UNL     1      -2.143   1.238   0.000  0.00  0.00    +0.000 A 
ATOM     27  N   UNL     1      -1.429   0.825   0.000  0.00  0.00    +0.000 NA
ENDBRANCH   1  26
TORSDOF 7
