REMARK  Name = 
REMARK  6 active torsions:
REMARK  status: ('A' for Active; 'I' for Inactive)
REMARK    1  A    between atoms: C_6  and  C_8
REMARK    2  A    between atoms: C_18  and  C_19
REMARK    3  A    between atoms: C_18  and  C_24
REMARK    4  A    between atoms: C_19  and  C_20
REMARK    5  A    between atoms: C_20  and  C_23
REMARK    6  A    between atoms: C_23  and  C_30
REMARK                            x       y       z     vdW  Elec       q    Type
REMARK                         _______ _______ _______ _____ _____    ______ ____
ROOT
ATOM      1  C   UNL     1      -1.089   1.276   0.000  0.00  0.00    +0.000 C 
ATOM      2  C   UNL     1      -1.089  -0.373   0.000  0.00  0.00    +0.000 C 
ATOM      3  C   UNL     1       0.410  -0.216   0.000  0.00  0.00    +0.000 C 
ATOM      4  C   UNL     1       0.895   0.452   0.000  0.00  0.00    +0.000 C 
ATOM      5  C   UNL     1      -1.804   0.864   0.000  0.00  0.00    +0.000 C 
ATOM      6  C   UNL     1      -1.089  -1.198   0.000  0.00  0.00    +0.000 C 
ATOM      7  C   UNL     1      -1.804   0.039   0.000  0.00  0.00    +0.000 C 
ATOM      8  C   UNL     1       0.410   1.119   0.000  0.00  0.00    +0.000 C 
ATOM      9  C   UNL     1      -0.374   0.039   0.000  0.00  0.00    +0.000 C 
ATOM     10  C   UNL     1      -0.374   0.864   0.000  0.00  0.00    +0.000 C 
ATOM     11  C   UNL     1      -0.374   1.689   0.000  0.00  0.00    +0.000 C 
ENDROOT
BRANCH   6  12
ATOM     12  C   UNL     1      -1.804  -1.611   0.000  0.00  0.00    +0.000 C 
ATOM     13  C   UNL     1      -1.804  -2.436   0.000  0.00  0.00    +0.000 C 
ATOM     14  C   UNL     1      -1.089  -2.849   0.000  0.00  0.00    +0.000 C 
ATOM     15  C   UNL     1      -2.518  -2.849   0.000  0.00  0.00    +0.000 C 
ATOM     16  C   UNL     1      -1.089  -3.674   0.000  0.00  0.00    +0.000 C 
ATOM     17  C   UNL     1      -0.374  -2.436   0.000  0.00  0.00    +0.000 C 
ATOM     18  C   UNL     1      -2.518  -3.674   0.000  0.00  0.00    +0.000 C 
ATOM     19  C   UNL     1      -1.804  -4.086   0.000  0.00  0.00    +0.000 C 
ATOM     20  O   UNL     1      -3.232  -4.086   0.000  0.00  0.00    +0.000 OA
ENDBRANCH   6  12
BRANCH   8  22
ATOM     21  C   UNL     1      -0.304   2.357   0.000  0.00  0.00    +0.000 C 
ATOM     22  C   UNL     1       0.410   1.944   0.000  0.00  0.00    +0.000 C 
BRANCH  22  23
ATOM     23  C   UNL     1       1.125   2.357   0.000  0.00  0.00    +0.000 C 
BRANCH  23  24
ATOM     24  C   UNL     1       1.839   1.944   0.000  0.00  0.00    +0.000 C 
BRANCH  24  25
ATOM     25  C   UNL     1       2.554   2.357   0.000  0.00  0.00    +0.000 C 
BRANCH  25  28
ATOM     26  C   UNL     1       3.982   2.357   0.000  0.00  0.00    +0.000 C 
ATOM     27  C   UNL     1       3.268   1.119   0.000  0.00  0.00    +0.000 C 
ATOM     28  C   UNL     1       3.268   1.944   0.000  0.00  0.00    +0.000 C 
ATOM     29  O   UNL     1       3.982   1.532   0.000  0.00  0.00    +0.000 OA
ENDBRANCH  25  28
ENDBRANCH  24  25
ENDBRANCH  23  24
ENDBRANCH  22  23
ENDBRANCH   8  22
TORSDOF 6
