REMARK  Name = 
REMARK  4 active torsions:
REMARK  status: ('A' for Active; 'I' for Inactive)
REMARK    1  A    between atoms: C_2  and  C_3
REMARK    2  A    between atoms: C_2  and  S_9
REMARK    3  A    between atoms: C_3  and  C_4
REMARK    4  A    between atoms: S_8  and  S_9
REMARK                            x       y       z     vdW  Elec       q    Type
REMARK                         _______ _______ _______ _____ _____    ______ ____
ROOT
ATOM      1  C   UNK     1      -0.935   1.016   0.000  0.00  0.00    +0.000 C 
ATOM      2  N   UNK     1      -0.935   0.191   0.000  0.00  0.00    +0.000 NA
ENDROOT
BRANCH   1   3
ATOM      3  C   UNK     1      -1.650   1.429   0.000  0.00  0.00    +0.000 C 
ATOM      4  O   UNK     1      -2.365   1.016   0.000  0.00  0.00    +0.000 OA
ATOM      5  O   UNK     1      -1.650   2.254   0.000  0.00  0.00    +0.000 OA
ENDBRANCH   1   3
BRANCH   1   6
ATOM      6  C   UNK     1      -0.221   1.429   0.000  0.00  0.00    +0.000 C 
BRANCH   6   7
ATOM      7  S   UNK     1       0.493   1.016   0.000  0.00  0.00    +0.000 S 
BRANCH   7   9
ATOM      8  C   UNK     1       1.922   1.016   0.000  0.00  0.00    +0.000 C 
ATOM      9  S   UNK     1       1.208   1.429   0.000  0.00  0.00    +0.000 S 
ENDBRANCH   7   9
ENDBRANCH   6   7
ENDBRANCH   1   6
TORSDOF 4
