REMARK  Name = 
REMARK  4 active torsions:
REMARK  status: ('A' for Active; 'I' for Inactive)
REMARK    1  A    between atoms: C_5  and  C_6
REMARK    2  A    between atoms: C_8  and  C_9
REMARK    3  A    between atoms: C_9  and  O_10
REMARK    4  A    between atoms: O_10  and  P_11
REMARK                            x       y       z     vdW  Elec       q    Type
REMARK                         _______ _______ _______ _____ _____    ______ ____
ROOT
ATOM      1  C   UNL     1       2.143   1.238   0.000  0.00  0.00    +0.000 C 
ATOM      2  C   UNL     1       1.429   0.825   0.000  0.00  0.00    +0.000 A 
ATOM      3  C   UNL     1       1.429   0.000   0.000  0.00  0.00    +0.000 A 
ATOM      4  O   UNL     1       2.143  -0.412   0.000  0.00  0.00    +0.000 OA
ATOM      5  C   UNL     1       0.715  -0.412   0.000  0.00  0.00    +0.000 A 
ATOM      6  C   UNL     1       0.000   0.000   0.000  0.00  0.00    +0.000 A 
ATOM      7  C   UNL     1       0.000   0.825   0.000  0.00  0.00    +0.000 A 
ATOM      8  N   UNL     1       0.715   1.238   0.000  0.00  0.00    +0.000 N 
ATOM      9  C   UNL     1       0.715   2.062   0.000  0.00  0.00    +0.000 C 
ENDROOT
BRANCH   5  10
ATOM     10  C   UNL     1       0.715  -1.238   0.000  0.00  0.00    +0.000 C 
ATOM     11  O   UNL     1       0.000  -1.650   0.000  0.00  0.00    +0.000 OA
ENDBRANCH   5  10
BRANCH   6  12
ATOM     12  C   UNL     1      -0.715  -0.412   0.000  0.00  0.00    +0.000 C 
BRANCH  12  13
ATOM     13  O   UNL     1      -1.429   0.000   0.000  0.00  0.00    +0.000 OA
BRANCH  13  14
ATOM     14  P   UNL     1      -2.143  -0.412   0.000  0.00  0.00    +0.000 P 
ATOM     15  O   UNL     1      -2.858  -0.825   0.000  0.00  0.00    +0.000 OA
ATOM     16  O   UNL     1      -2.556   0.302   0.000  0.00  0.00    +0.000 OA
ATOM     17  O   UNL     1      -1.731  -1.127   0.000  0.00  0.00    +0.000 OA
ENDBRANCH  13  14
ENDBRANCH  12  13
ENDBRANCH   6  12
TORSDOF 4
