REMARK  Name = 
REMARK  0 active torsions:
REMARK  status: ('A' for Active; 'I' for Inactive)
REMARK                            x       y       z     vdW  Elec       q    Type
REMARK                         _______ _______ _______ _____ _____    ______ ____
ROOT
ATOM      1  S   UNL     1       2.364   0.206   0.000  0.00  0.00    +0.000 S 
ATOM      2  O   UNL     1       3.079   0.619   0.000  0.00  0.00    +0.000 OA
ATOM      3  C   UNL     1       1.650   0.619   0.000  0.00  0.00    +0.000 C 
ATOM      4  C   UNL     1       2.364  -0.619   0.000  0.00  0.00    +0.000 C 
ENDROOT
TORSDOF 0
