REMARK  Name = 
REMARK  4 active torsions:
REMARK  status: ('A' for Active; 'I' for Inactive)
REMARK    1  A    between atoms: C_11  and  C_13
REMARK    2  A    between atoms: C_11  and  C_16
REMARK    3  A    between atoms: C_12  and  C_15
REMARK    4  A    between atoms: C_14  and  C_15
REMARK                            x       y       z     vdW  Elec       q    Type
REMARK                         _______ _______ _______ _____ _____    ______ ____
ROOT
ATOM      1  C   UNL     1       1.429   4.950   0.000  0.00  0.00    +0.000 A 
ATOM      2  C   UNL     1       1.429   5.775   0.000  0.00  0.00    +0.000 A 
ATOM      3  C   UNL     1       0.715   4.537   0.000  0.00  0.00    +0.000 A 
ATOM      4  C   UNL     1       0.000   5.775   0.000  0.00  0.00    +0.000 A 
ATOM      5  C   UNL     1       0.715   6.188   0.000  0.00  0.00    +0.000 A 
ATOM      6  C   UNL     1       0.000   4.950   0.000  0.00  0.00    +0.000 A 
ENDROOT
BRANCH   5   8
ATOM      7  C   UNL     1       0.000   7.425   0.000  0.00  0.00    +0.000 C 
ATOM      8  C   UNL     1       0.715   7.013   0.000  0.00  0.00    +0.000 C 
BRANCH   8   9
ATOM      9  C   UNL     1       1.429   7.425   0.000  0.00  0.00    +0.000 C 
ATOM     10  O   UNL     1       1.429   8.250   0.000  0.00  0.00    +0.000 OA
ATOM     11  O   UNL     1       2.143   7.013   0.000  0.00  0.00    +0.000 OA
ENDBRANCH   8   9
ENDBRANCH   5   8
BRANCH   6  12
ATOM     12  C   UNL     1      -0.715   4.537   0.000  0.00  0.00    +0.000 C 
ATOM     13  O   UNL     1      -1.429   4.950   0.000  0.00  0.00    +0.000 OA
BRANCH  12  19
ATOM     14  C   UNL     1      -0.715   2.062   0.000  0.00  0.00    +0.000 A 
ATOM     15  C   UNL     1       0.000   2.475   0.000  0.00  0.00    +0.000 A 
ATOM     16  C   UNL     1      -1.429   2.475   0.000  0.00  0.00    +0.000 A 
ATOM     17  C   UNL     1       0.000   3.300   0.000  0.00  0.00    +0.000 A 
ATOM     18  C   UNL     1      -1.429   3.300   0.000  0.00  0.00    +0.000 A 
ATOM     19  C   UNL     1      -0.715   3.712   0.000  0.00  0.00    +0.000 A 
ENDBRANCH  12  19
ENDBRANCH   6  12
TORSDOF 4
