REMARK  Name = 
REMARK  6 active torsions:
REMARK  status: ('A' for Active; 'I' for Inactive)
REMARK    1  A    between atoms: C_3  and  O_17
REMARK    2  A    between atoms: C_6  and  C_11
REMARK    3  A    between atoms: C_12  and  C_21
REMARK    4  A    between atoms: C_13  and  C_14
REMARK    5  A    between atoms: C_15  and  C_23
REMARK    6  A    between atoms: C_16  and  C_19
REMARK                            x       y       z     vdW  Elec       q    Type
REMARK                         _______ _______ _______ _____ _____    ______ ____
ROOT
ATOM      1  C   UNL     1      -0.884   1.825   0.000  0.00  0.00    +0.000 C 
ATOM      2  C   UNL     1      -0.169   1.413   0.000  0.00  0.00    +0.000 C 
ENDROOT
BRANCH   1   8
ATOM      3  C   UNL     1      -2.312   1.825   0.000  0.00  0.00    +0.000 A 
ATOM      4  C   UNL     1      -3.027   1.413   0.000  0.00  0.00    +0.000 A 
ATOM      5  C   UNL     1      -3.027   0.588   0.000  0.00  0.00    +0.000 A 
ATOM      6  C   UNL     1      -2.312   0.175   0.000  0.00  0.00    +0.000 A 
ATOM      7  C   UNL     1      -1.598   0.588   0.000  0.00  0.00    +0.000 A 
ATOM      8  C   UNL     1      -1.598   1.413   0.000  0.00  0.00    +0.000 A 
ATOM      9  C   UNL     1      -2.312   2.650   0.000  0.00  0.00    +0.000 C 
ATOM     10  C   UNL     1      -3.741   1.825   0.000  0.00  0.00    +0.000 C 
ATOM     11  C   UNL     1      -0.884   0.175   0.000  0.00  0.00    +0.000 C 
BRANCH   5  13
ATOM     12  C   UNL     1      -4.456   0.588   0.000  0.00  0.00    +0.000 C 
ATOM     13  O   UNL     1      -3.741   0.175   0.000  0.00  0.00    +0.000 OA
ENDBRANCH   5  13
ENDBRANCH   1   8
BRANCH   2  15
ATOM     14  C   UNL     1       1.260   1.413   0.000  0.00  0.00    +0.000 C 
ATOM     15  C   UNL     1       0.545   1.825   0.000  0.00  0.00    +0.000 C 
ATOM     16  C   UNL     1       0.545   2.650   0.000  0.00  0.00    +0.000 C 
BRANCH  14  17
ATOM     17  C   UNL     1       1.974   1.825   0.000  0.00  0.00    +0.000 C 
ATOM     18  C   UNL     1       2.689   1.413   0.000  0.00  0.00    +0.000 C 
BRANCH  18  20
ATOM     19  C   UNL     1       4.118   1.413   0.000  0.00  0.00    +0.000 C 
ATOM     20  C   UNL     1       3.403   1.825   0.000  0.00  0.00    +0.000 C 
ATOM     21  C   UNL     1       3.403   2.650   0.000  0.00  0.00    +0.000 C 
BRANCH  19  23
ATOM     22  O   UNL     1       4.832   2.650   0.000  0.00  0.00    +0.000 OA
ATOM     23  C   UNL     1       4.832   1.825   0.000  0.00  0.00    +0.000 C 
ATOM     24  O   UNL     1       5.547   1.413   0.000  0.00  0.00    +0.000 OA
ENDBRANCH  19  23
ENDBRANCH  18  20
ENDBRANCH  14  17
ENDBRANCH   2  15
TORSDOF 6
