REMARK  Name = 
REMARK  4 active torsions:
REMARK  status: ('A' for Active; 'I' for Inactive)
REMARK    1  A    between atoms: C_2  and  C_3
REMARK    2  A    between atoms: C_2  and  C_5
REMARK    3  A    between atoms: C_5  and  CA_6
REMARK    4  A    between atoms: CA_6  and  C_8
REMARK                            x       y       z     vdW  Elec       q    Type
REMARK                         _______ _______ _______ _____ _____    ______ ____
ROOT
ATOM      1  C   UNL     1       3.904   1.429   0.000  0.00  0.00    +0.000 C 
ENDROOT
BRANCH   1   3
ATOM      2  C   UNL     1       3.189   2.666   0.000  0.00  0.00    +0.000 C 
ATOM      3  C   UNL     1       3.189   1.841   0.000  0.00  0.00    +0.000 C 
BRANCH   3   4
ATOM      4  C   UNL     1       2.475   1.429   0.000  0.00  0.00    +0.000 C 
ATOM      5  F   UNL     1       1.760   1.841   0.000  0.00  0.00    +0.000 F 
ENDBRANCH   3   4
ENDBRANCH   1   3
BRANCH   1   6
ATOM      6  CA  UNL     1       4.618   1.841   0.000  0.00  0.00    +0.000 C 
ATOM      7  N   UNL     1       4.618   2.666   0.000  0.00  0.00    +0.000 NA
BRANCH   6   8
ATOM      8  C   UNL     1       5.333   1.429   0.000  0.00  0.00    +0.000 C 
ATOM      9  O   UNL     1       6.047   1.841   0.000  0.00  0.00    +0.000 OA
ATOM     10  OXT UNL     1       5.333   0.604   0.000  0.00  0.00    +0.000 OA
ENDBRANCH   6   8
ENDBRANCH   1   6
TORSDOF 4
