REMARK  Name = 
REMARK  3 active torsions:
REMARK  status: ('A' for Active; 'I' for Inactive)
REMARK    1  A    between atoms: C_9  and  C_11
REMARK    2  A    between atoms: C_9  and  N_12
REMARK    3  A    between atoms: C_10  and  C_11
REMARK                            x       y       z     vdW  Elec       q    Type
REMARK                         _______ _______ _______ _____ _____    ______ ____
ROOT
ATOM      1  C   UNL     1       0.715  -1.238   0.000  0.00  0.00    +0.000 C 
ATOM      2  C   UNL     1       1.429   0.000   0.000  0.00  0.00    +0.000 A 
ATOM      3  C   UNL     1       0.000   0.000   0.000  0.00  0.00    +0.000 A 
ATOM      4  C   UNL     1       1.429   0.825   0.000  0.00  0.00    +0.000 A 
ATOM      5  C   UNL     1       0.000   0.825   0.000  0.00  0.00    +0.000 A 
ATOM      6  C   UNL     1       0.715  -0.412   0.000  0.00  0.00    +0.000 A 
ATOM      7  C   UNL     1       0.715   1.238   0.000  0.00  0.00    +0.000 A 
ENDROOT
BRANCH   7   8
ATOM      8  C   UNL     1       0.715   2.062   0.000  0.00  0.00    +0.000 C 
ATOM      9  O   UNL     1       1.429   2.475   0.000  0.00  0.00    +0.000 OA
BRANCH   8  11
ATOM     10  C   UNL     1      -0.715   2.062   0.000  0.00  0.00    +0.000 C 
ATOM     11  C   UNL     1       0.000   2.475   0.000  0.00  0.00    +0.000 C 
BRANCH  11  13
ATOM     12  C   UNL     1      -0.715   3.712   0.000  0.00  0.00    +0.000 C 
ATOM     13  N   UNL     1       0.000   3.300   0.000  0.00  0.00    +0.000 NA
ENDBRANCH  11  13
ENDBRANCH   8  11
ENDBRANCH   7   8
TORSDOF 3
