REMARK  Name = 
REMARK  44 active torsions:
REMARK  status: ('A' for Active; 'I' for Inactive)
REMARK    1  A    between atoms: C_3  and  C_5
REMARK    2  A    between atoms: C_4  and  C_6
REMARK    3  A    between atoms: C_5  and  C_7
REMARK    4  A    between atoms: C_6  and  C_8
REMARK    5  A    between atoms: C_7  and  C_9
REMARK    6  A    between atoms: C_8  and  C_10
REMARK    7  A    between atoms: C_9  and  C_11
REMARK    8  A    between atoms: C_10  and  C_12
REMARK    9  A    between atoms: C_11  and  C_13
REMARK   10  A    between atoms: C_12  and  C_14
REMARK   11  A    between atoms: C_13  and  C_15
REMARK   12  A    between atoms: C_14  and  C_16
REMARK   13  A    between atoms: C_15  and  C_17
REMARK   14  A    between atoms: C_16  and  C_18
REMARK   15  A    between atoms: C_17  and  C_19
REMARK   16  A    between atoms: C_18  and  C_20
REMARK   17  A    between atoms: C_19  and  C_21
REMARK   18  A    between atoms: C_20  and  C_22
REMARK   19  A    between atoms: C_21  and  C_23
REMARK   20  A    between atoms: C_22  and  C_24
REMARK   21  A    between atoms: C_23  and  C_25
REMARK   22  A    between atoms: C_24  and  C_26
REMARK   23  A    between atoms: C_25  and  C_27
REMARK   24  A    between atoms: C_26  and  C_28
REMARK   25  A    between atoms: C_27  and  C_29
REMARK   26  A    between atoms: C_28  and  C_30
REMARK   27  A    between atoms: C_29  and  C_31
REMARK   28  A    between atoms: C_30  and  C_32
REMARK   29  A    between atoms: C_31  and  C_33
REMARK   30  A    between atoms: C_32  and  C_34
REMARK   31  A    between atoms: C_33  and  C_42
REMARK   32  A    between atoms: C_34  and  C_43
REMARK   33  A    between atoms: C_35  and  C_40
REMARK   34  A    between atoms: C_36  and  C_39
REMARK   35  A    between atoms: C_36  and  O_61
REMARK   36  A    between atoms: C_37  and  C_39
REMARK   37  A    between atoms: C_37  and  O_62
REMARK   38  A    between atoms: C_38  and  C_41
REMARK   39  A    between atoms: C_38  and  O_63
REMARK   40  A    between atoms: C_39  and  O_64
REMARK   41  A    between atoms: C_42  and  O_61
REMARK   42  A    between atoms: C_43  and  O_64
REMARK   43  A    between atoms: C_50  and  O_62
REMARK   44  A    between atoms: C_51  and  O_63
REMARK                            x       y       z     vdW  Elec       q    Type
REMARK                         _______ _______ _______ _____ _____    ______ ____
ROOT
ATOM      1  C   UNL     1       0.000   3.300   0.000  0.00  0.00    +0.000 C 
ENDROOT
BRANCH   1   2
ATOM      2  C   UNL     1      -0.715   3.712   0.000  0.00  0.00    +0.000 C 
BRANCH   2   3
ATOM      3  O   UNL     1      -1.429   3.300   0.000  0.00  0.00    +0.000 OA
BRANCH   3   4
ATOM      4  C   UNL     1      -2.143   3.712   0.000  0.00  0.00    +0.000 C 
ATOM      5  O   UNL     1      -2.143   4.537   0.000  0.00  0.00    +0.000 OA
BRANCH   4   6
ATOM      6  C   UNL     1      -2.858   3.300   0.000  0.00  0.00    +0.000 C 
BRANCH   6   7
ATOM      7  C   UNL     1      -3.572   3.712   0.000  0.00  0.00    +0.000 C 
BRANCH   7   8
ATOM      8  C   UNL     1      -4.287   3.300   0.000  0.00  0.00    +0.000 C 
BRANCH   8   9
ATOM      9  C   UNL     1      -5.001   3.712   0.000  0.00  0.00    +0.000 C 
BRANCH   9  10
ATOM     10  C   UNL     1      -5.716   3.300   0.000  0.00  0.00    +0.000 C 
BRANCH  10  11
ATOM     11  C   UNL     1      -6.430   3.712   0.000  0.00  0.00    +0.000 C 
BRANCH  11  12
ATOM     12  C   UNL     1      -7.145   3.300   0.000  0.00  0.00    +0.000 C 
BRANCH  12  13
ATOM     13  C   UNL     1      -7.859   3.712   0.000  0.00  0.00    +0.000 C 
BRANCH  13  14
ATOM     14  C   UNL     1      -8.574   3.300   0.000  0.00  0.00    +0.000 C 
BRANCH  14  15
ATOM     15  C   UNL     1      -9.288   3.712   0.000  0.00  0.00    +0.000 C 
BRANCH  15  16
ATOM     16  C   UNL     1     -10.003   3.300   0.000  0.00  0.00    +0.000 C 
BRANCH  16  17
ATOM     17  C   UNL     1     -10.717   3.712   0.000  0.00  0.00    +0.000 C 
BRANCH  17  18
ATOM     18  C   UNL     1     -11.431   3.300   0.000  0.00  0.00    +0.000 C 
BRANCH  18  19
ATOM     19  C   UNL     1     -12.146   3.712   0.000  0.00  0.00    +0.000 C 
BRANCH  19  20
ATOM     20  C   UNL     1     -12.861   3.300   0.000  0.00  0.00    +0.000 C 
BRANCH  20  22
ATOM     21  C   UNL     1     -14.289   3.300   0.000  0.00  0.00    +0.000 C 
ATOM     22  C   UNL     1     -13.575   3.712   0.000  0.00  0.00    +0.000 C 
ENDBRANCH  20  22
ENDBRANCH  19  20
ENDBRANCH  18  19
ENDBRANCH  17  18
ENDBRANCH  16  17
ENDBRANCH  15  16
ENDBRANCH  14  15
ENDBRANCH  13  14
ENDBRANCH  12  13
ENDBRANCH  11  12
ENDBRANCH  10  11
ENDBRANCH   9  10
ENDBRANCH   8   9
ENDBRANCH   7   8
ENDBRANCH   6   7
ENDBRANCH   4   6
ENDBRANCH   3   4
ENDBRANCH   2   3
ENDBRANCH   1   2
BRANCH   1  23
ATOM     23  C   UNL     1       0.000   2.475   0.000  0.00  0.00    +0.000 C 
BRANCH  23  24
ATOM     24  O   UNL     1       0.715   2.062   0.000  0.00  0.00    +0.000 OA
BRANCH  24  29
ATOM     25  C   UNL     1       0.000   0.000   0.000  0.00  0.00    +0.000 C 
ATOM     26  C   UNL     1       0.715  -0.412   0.000  0.00  0.00    +0.000 C 
ATOM     27  C   UNL     1       1.429   0.000   0.000  0.00  0.00    +0.000 C 
ATOM     28  C   UNL     1       1.429   0.825   0.000  0.00  0.00    +0.000 C 
ATOM     29  C   UNL     1       0.715   1.238   0.000  0.00  0.00    +0.000 C 
ATOM     30  O   UNL     1       0.715  -1.238   0.000  0.00  0.00    +0.000 OA
ATOM     31  O   UNL     1       2.143  -0.412   0.000  0.00  0.00    +0.000 OA
ATOM     32  O   UNL     1       2.143   1.238   0.000  0.00  0.00    +0.000 OA
ATOM     33  O   UNL     1       0.000   0.825   0.000  0.00  0.00    +0.000 OA
BRANCH  25  34
ATOM     34  C   UNL     1      -0.715  -0.412   0.000  0.00  0.00    +0.000 C 
BRANCH  34  35
ATOM     35  O   UNL     1      -0.715  -1.238   0.000  0.00  0.00    +0.000 OA
BRANCH  35  40
ATOM     36  C   UNL     1      -2.858  -1.650   0.000  0.00  0.00    +0.000 C 
ATOM     37  C   UNL     1      -2.858  -2.475   0.000  0.00  0.00    +0.000 C 
ATOM     38  C   UNL     1      -2.143  -2.888   0.000  0.00  0.00    +0.000 C 
ATOM     39  C   UNL     1      -1.429  -2.475   0.000  0.00  0.00    +0.000 C 
ATOM     40  C   UNL     1      -1.429  -1.650   0.000  0.00  0.00    +0.000 C 
ATOM     41  O   UNL     1      -3.572  -2.888   0.000  0.00  0.00    +0.000 OA
ATOM     42  O   UNL     1      -2.143  -3.712   0.000  0.00  0.00    +0.000 OA
ATOM     43  O   UNL     1      -0.715  -2.888   0.000  0.00  0.00    +0.000 OA
ATOM     44  O   UNL     1      -2.143  -1.238   0.000  0.00  0.00    +0.000 OA
BRANCH  36  45
ATOM     45  C   UNL     1      -3.572  -1.238   0.000  0.00  0.00    +0.000 C 
ATOM     46  O   UNL     1      -3.572  -0.412   0.000  0.00  0.00    +0.000 OA
ENDBRANCH  36  45
ENDBRANCH  35  40
ENDBRANCH  34  35
ENDBRANCH  25  34
ENDBRANCH  24  29
ENDBRANCH  23  24
ENDBRANCH   1  23
BRANCH   1  47
ATOM     47  O   UNL     1       0.715   3.712   0.000  0.00  0.00    +0.000 OA
BRANCH  47  48
ATOM     48  C   UNL     1       1.429   3.300   0.000  0.00  0.00    +0.000 C 
ATOM     49  O   UNL     1       1.429   2.475   0.000  0.00  0.00    +0.000 OA
BRANCH  48  50
ATOM     50  C   UNL     1       2.143   3.712   0.000  0.00  0.00    +0.000 C 
BRANCH  50  51
ATOM     51  C   UNL     1       2.858   3.300   0.000  0.00  0.00    +0.000 C 
BRANCH  51  52
ATOM     52  C   UNL     1       3.572   3.712   0.000  0.00  0.00    +0.000 C 
BRANCH  52  53
ATOM     53  C   UNL     1       4.287   3.300   0.000  0.00  0.00    +0.000 C 
BRANCH  53  54
ATOM     54  C   UNL     1       5.001   3.712   0.000  0.00  0.00    +0.000 C 
BRANCH  54  55
ATOM     55  C   UNL     1       5.716   3.300   0.000  0.00  0.00    +0.000 C 
BRANCH  55  56
ATOM     56  C   UNL     1       6.430   3.712   0.000  0.00  0.00    +0.000 C 
BRANCH  56  57
ATOM     57  C   UNL     1       7.145   3.300   0.000  0.00  0.00    +0.000 C 
BRANCH  57  58
ATOM     58  C   UNL     1       7.859   3.712   0.000  0.00  0.00    +0.000 C 
BRANCH  58  59
ATOM     59  C   UNL     1       8.574   3.300   0.000  0.00  0.00    +0.000 C 
BRANCH  59  60
ATOM     60  C   UNL     1       9.288   3.712   0.000  0.00  0.00    +0.000 C 
BRANCH  60  61
ATOM     61  C   UNL     1      10.003   3.300   0.000  0.00  0.00    +0.000 C 
BRANCH  61  62
ATOM     62  C   UNL     1      10.717   3.712   0.000  0.00  0.00    +0.000 C 
BRANCH  62  63
ATOM     63  C   UNL     1      11.431   3.300   0.000  0.00  0.00    +0.000 C 
BRANCH  63  64
ATOM     64  C   UNL     1      12.146   3.712   0.000  0.00  0.00    +0.000 C 
BRANCH  64  66
ATOM     65  C   UNL     1      13.575   3.712   0.000  0.00  0.00    +0.000 C 
ATOM     66  C   UNL     1      12.861   3.300   0.000  0.00  0.00    +0.000 C 
ENDBRANCH  64  66
ENDBRANCH  63  64
ENDBRANCH  62  63
ENDBRANCH  61  62
ENDBRANCH  60  61
ENDBRANCH  59  60
ENDBRANCH  58  59
ENDBRANCH  57  58
ENDBRANCH  56  57
ENDBRANCH  55  56
ENDBRANCH  54  55
ENDBRANCH  53  54
ENDBRANCH  52  53
ENDBRANCH  51  52
ENDBRANCH  50  51
ENDBRANCH  48  50
ENDBRANCH  47  48
ENDBRANCH   1  47
TORSDOF 44
