REMARK  Name = 
REMARK  8 active torsions:
REMARK  status: ('A' for Active; 'I' for Inactive)
REMARK    1  A    between atoms: C_2  and  C_3
REMARK    2  A    between atoms: C_2  and  C_4
REMARK    3  A    between atoms: C_3  and  C_7
REMARK    4  A    between atoms: C_4  and  C_10
REMARK    5  A    between atoms: C_7  and  C_13
REMARK    6  A    between atoms: C_10  and  C_20
REMARK    7  A    between atoms: C_13  and  N_23
REMARK    8  A    between atoms: C_21  and  N_23
REMARK                            x       y       z     vdW  Elec       q    Type
REMARK                         _______ _______ _______ _____ _____    ______ ____
ROOT
ATOM      1  C   UNL     1      -4.828   1.398   0.000  0.00  0.00    +0.000 C 
ATOM      2  C   UNL     1      -3.337   3.836   0.000  0.00  0.00    +0.000 A 
ATOM      3  C   UNL     1      -4.125   3.593   0.000  0.00  0.00    +0.000 A 
ATOM      4  C   UNL     1      -2.732   3.275   0.000  0.00  0.00    +0.000 A 
ATOM      5  C   UNL     1      -4.309   2.788   0.000  0.00  0.00    +0.000 A 
ATOM      6  C   UNL     1      -1.200   0.136   0.000  0.00  0.00    +0.000 A 
ATOM      7  C   UNL     1      -1.384   0.940   0.000  0.00  0.00    +0.000 A 
ATOM      8  C   UNL     1      -2.593  -0.182   0.000  0.00  0.00    +0.000 A 
ATOM      9  C   UNL     1      -1.805  -0.426   0.000  0.00  0.00    +0.000 A 
ATOM     10  C   UNL     1      -2.916   2.470   0.000  0.00  0.00    +0.000 A 
ATOM     11  C   UNL     1      -2.172   1.183   0.000  0.00  0.00    +0.000 A 
ATOM     12  C   UNL     1      -3.704   2.227   0.000  0.00  0.00    +0.000 A 
ATOM     13  C   UNL     1      -2.777   0.622   0.000  0.00  0.00    +0.000 A 
ATOM     14  C   UNL     1      -2.234   2.006   0.000  0.00  0.00    +0.000 C 
ATOM     15 CL   UNL     1      -1.621  -1.230   0.000  0.00  0.00    +0.000 Cl
ATOM     16  N   UNL     1      -4.005   1.459   0.000  0.00  0.00    +0.000 N 
ATOM     17  O   UNL     1      -3.697  -0.074   0.000  0.00  0.00    +0.000 OA
ATOM     18  O   UNL     1      -4.316   0.348   0.000  0.00  0.00    +0.000 OA
ATOM     19  S   UNL     1      -3.593   0.745   0.000  0.00  0.00    +0.000 S 
ENDROOT
BRANCH  14  20
ATOM     20  N   UNL     1      -1.519   2.418   0.000  0.00  0.00    +0.000 NA
BRANCH  20  21
ATOM     21  C   UNL     1      -0.805   2.006   0.000  0.00  0.00    +0.000 C 
BRANCH  21  22
ATOM     22  C   UNL     1      -0.090   2.418   0.000  0.00  0.00    +0.000 C 
BRANCH  22  23
ATOM     23  C   UNL     1       0.624   2.006   0.000  0.00  0.00    +0.000 C 
BRANCH  23  24
ATOM     24  C   UNL     1       1.339   2.418   0.000  0.00  0.00    +0.000 C 
BRANCH  24  25
ATOM     25  C   UNL     1       2.053   2.006   0.000  0.00  0.00    +0.000 C 
BRANCH  25  26
ATOM     26  C   UNL     1       2.767   2.418   0.000  0.00  0.00    +0.000 C 
BRANCH  26  27
ATOM     27  C   UNL     1       3.482   2.006   0.000  0.00  0.00    +0.000 C 
ATOM     28  O   UNL     1       4.196   2.418   0.000  0.00  0.00    +0.000 OA
ATOM     29  O   UNL     1       3.482   1.181   0.000  0.00  0.00    +0.000 OA
ENDBRANCH  26  27
ENDBRANCH  25  26
ENDBRANCH  24  25
ENDBRANCH  23  24
ENDBRANCH  22  23
ENDBRANCH  21  22
ENDBRANCH  20  21
ENDBRANCH  14  20
TORSDOF 8
