REMARK  Name = 
REMARK  2 active torsions:
REMARK  status: ('A' for Active; 'I' for Inactive)
REMARK    1  A    between atoms: C_2  and  C_8
REMARK    2  A    between atoms: C_10  and  O_11
REMARK                            x       y       z     vdW  Elec       q    Type
REMARK                         _______ _______ _______ _____ _____    ______ ____
ROOT
ATOM      1  O   UNL     1      -1.785   0.617   0.000  0.00  0.00    +0.000 OA
ATOM      2  C   UNL     1      -1.072   0.205   0.000  0.00  0.00    +0.000 A 
ATOM      3  C   UNL     1      -1.072  -0.620   0.000  0.00  0.00    +0.000 A 
ATOM      4  C   UNL     1      -0.357  -1.032   0.000  0.00  0.00    +0.000 A 
ATOM      5  C   UNL     1       0.357  -0.620   0.000  0.00  0.00    +0.000 A 
ATOM      6  C   UNL     1       0.357   0.206   0.000  0.00  0.00    +0.000 A 
ATOM      7  C   UNL     1      -0.357   0.618   0.000  0.00  0.00    +0.000 A 
ENDROOT
BRANCH   5   9
ATOM      8  O   UNL     1       1.071  -1.855   0.000  0.00  0.00    +0.000 OA
ATOM      9  C   UNL     1       1.071  -1.031   0.000  0.00  0.00    +0.000 C 
ATOM     10  C   UNL     1       1.785  -0.618   0.000  0.00  0.00    +0.000 C 
ENDBRANCH   5   9
BRANCH   7  11
ATOM     11  O   UNL     1      -0.357   1.442   0.000  0.00  0.00    +0.000 OA
ATOM     12  C   UNL     1       0.357   1.855   0.000  0.00  0.00    +0.000 C 
ENDBRANCH   7  11
TORSDOF 2
