REMARK  Name = 
REMARK  3 active torsions:
REMARK  status: ('A' for Active; 'I' for Inactive)
REMARK    1  A    between atoms: C_7  and  C_13
REMARK    2  A    between atoms: C_13  and  C_15
REMARK    3  A    between atoms: C_15  and  C_17
REMARK                            x       y       z     vdW  Elec       q    Type
REMARK                         _______ _______ _______ _____ _____    ______ ____
ROOT
ATOM      1  N   UNL     1       0.000   0.000   0.000  0.00  0.00    +0.000 NA
ATOM      2  C   UNL     1       0.715  -0.412   0.000  0.00  0.00    +0.000 A 
ATOM      3  N   UNL     1       1.429   0.000   0.000  0.00  0.00    +0.000 NA
ATOM      4  C   UNL     1       2.143  -0.412   0.000  0.00  0.00    +0.000 A 
ATOM      5  N   UNL     1       2.858   0.000   0.000  0.00  0.00    +0.000 NA
ATOM      6  C   UNL     1       3.572  -0.412   0.000  0.00  0.00    +0.000 A 
ATOM      7  C   UNL     1       3.572  -1.238   0.000  0.00  0.00    +0.000 A 
ATOM      8  N   UNL     1       2.858  -1.650   0.000  0.00  0.00    +0.000 NA
ATOM      9  C   UNL     1       2.143  -1.238   0.000  0.00  0.00    +0.000 A 
ATOM     10  C   UNL     1       1.429  -1.650   0.000  0.00  0.00    +0.000 A 
ATOM     11  O   UNL     1       1.429  -2.475   0.000  0.00  0.00    +0.000 OA
ATOM     12  N   UNL     1       0.715  -1.238   0.000  0.00  0.00    +0.000 NA
ENDROOT
BRANCH   7  13
ATOM     13  C   UNL     1       4.287  -1.650   0.000  0.00  0.00    +0.000 C 
ATOM     14  O   UNL     1       4.287  -2.475   0.000  0.00  0.00    +0.000 OA
BRANCH  13  15
ATOM     15  C   UNL     1       5.001  -1.238   0.000  0.00  0.00    +0.000 C 
ATOM     16  O   UNL     1       5.001  -0.412   0.000  0.00  0.00    +0.000 OA
BRANCH  15  17
ATOM     17  C   UNL     1       5.716  -1.650   0.000  0.00  0.00    +0.000 C 
ATOM     18  O   UNL     1       6.430  -1.238   0.000  0.00  0.00    +0.000 OA
ENDBRANCH  15  17
ENDBRANCH  13  15
ENDBRANCH   7  13
TORSDOF 3
