REMARK  Name = 
REMARK  7 active torsions:
REMARK  status: ('A' for Active; 'I' for Inactive)
REMARK    1  A    between atoms: O_4  and  C_15
REMARK    2  A    between atoms: O_4  and  C_18
REMARK    3  A    between atoms: N_7  and  C_9
REMARK    4  A    between atoms: N_7  and  C_11
REMARK    5  A    between atoms: C_8  and  C_9
REMARK    6  A    between atoms: C_11  and  C_12
REMARK    7  A    between atoms: C_12  and  C_15
REMARK                            x       y       z     vdW  Elec       q    Type
REMARK                         _______ _______ _______ _____ _____    ______ ____
ROOT
ATOM      1 CL   UNL     1       5.302   5.600   0.000  0.00  0.00    +0.000 Cl
ENDROOT
TORSDOF 0
REMARK  Name = 
REMARK  7 active torsions:
REMARK  status: ('A' for Active; 'I' for Inactive)
REMARK    1  A    between atoms: O_4  and  C_15
REMARK    2  A    between atoms: O_4  and  C_18
REMARK    3  A    between atoms: N_7  and  C_9
REMARK    4  A    between atoms: N_7  and  C_11
REMARK    5  A    between atoms: C_8  and  C_9
REMARK    6  A    between atoms: C_11  and  C_12
REMARK    7  A    between atoms: C_12  and  C_15
REMARK                            x       y       z     vdW  Elec       q    Type
REMARK                         _______ _______ _______ _____ _____    ______ ____
ROOT
ATOM      1  C   UNL     1       5.929   1.749   0.000  0.00  0.00    +0.000 C 
ENDROOT
BRANCH   1   2
ATOM      2  N   UNL     1       6.644   2.162   0.000  0.00  0.00    +0.000 NA
BRANCH   2   3
ATOM      3  C   UNL     1       7.358   1.749   0.000  0.00  0.00    +0.000 C 
BRANCH   3   6
ATOM      4  O   UNL     1       8.787   1.749   0.000  0.00  0.00    +0.000 OA
ATOM      5  O   UNL     1       8.787   3.399   0.000  0.00  0.00    +0.000 OA
ATOM      6  C   UNL     1       8.073   2.162   0.000  0.00  0.00    +0.000 C 
ATOM      7  C   UNL     1       8.073   2.987   0.000  0.00  0.00    +0.000 C 
ATOM      8  C   UNL     1       9.502   2.162   0.000  0.00  0.00    +0.000 A 
ATOM      9  C   UNL     1       9.502   2.987   0.000  0.00  0.00    +0.000 A 
ATOM     10  C   UNL     1      10.239   1.720   0.000  0.00  0.00    +0.000 A 
ATOM     11  C   UNL     1      10.239   3.428   0.000  0.00  0.00    +0.000 A 
ATOM     12  C   UNL     1      10.987   2.144   0.000  0.00  0.00    +0.000 A 
ATOM     13  C   UNL     1      10.987   3.004   0.000  0.00  0.00    +0.000 A 
ENDBRANCH   3   6
ENDBRANCH   2   3
ENDBRANCH   1   2
BRANCH   1  14
ATOM     14  C   UNL     1       5.215   2.162   0.000  0.00  0.00    +0.000 C 
BRANCH  14  15
ATOM     15  C   UNL     1       4.500   1.749   0.000  0.00  0.00    +0.000 C 
BRANCH  15  16
ATOM     16  O   UNL     1       3.786   2.162   0.000  0.00  0.00    +0.000 OA
BRANCH  16  19
ATOM     17  O   UNL     1       0.862   2.000   0.000  0.00  0.00    +0.000 OA
ATOM     18  O   UNL     1       0.862   0.673   0.000  0.00  0.00    +0.000 OA
ATOM     19  C   UNL     1       3.071   1.749   0.000  0.00  0.00    +0.000 A 
ATOM     20  C   UNL     1       1.642   1.749   0.000  0.00  0.00    +0.000 A 
ATOM     21  C   UNL     1       2.357   2.162   0.000  0.00  0.00    +0.000 A 
ATOM     22  C   UNL     1       1.642   0.924   0.000  0.00  0.00    +0.000 A 
ATOM     23  C   UNL     1       3.071   0.924   0.000  0.00  0.00    +0.000 A 
ATOM     24  C   UNL     1       2.357   0.511   0.000  0.00  0.00    +0.000 A 
ATOM     25  C   UNL     1       0.380   1.337   0.000  0.00  0.00    +0.000 C 
ENDBRANCH  16  19
ENDBRANCH  15  16
ENDBRANCH  14  15
ENDBRANCH   1  14
TORSDOF 7
