REMARK  Name = 
REMARK  3 active torsions:
REMARK  status: ('A' for Active; 'I' for Inactive)
REMARK    1  A    between atoms: N_2  and  C_16
REMARK    2  A    between atoms: C_8  and  C_9
REMARK    3  A    between atoms: C_9  and  C_12
REMARK                            x       y       z     vdW  Elec       q    Type
REMARK                         _______ _______ _______ _____ _____    ______ ____
ROOT
ATOM      1  N   UNL     1       4.508  -1.650   0.000  0.00  0.00    +0.000 NA
ATOM      2  N   UNL     1       3.793   0.412   0.000  0.00  0.00    +0.000 NA
ATOM      3  N   UNL     1       3.793  -0.412   0.000  0.00  0.00    +0.000 NA
ATOM      4  C   UNL     1       5.222   0.412   0.000  0.00  0.00    +0.000 A 
ATOM      5  C   UNL     1       5.222  -0.412   0.000  0.00  0.00    +0.000 A 
ATOM      6  C   UNL     1       4.508   0.825   0.000  0.00  0.00    +0.000 A 
ATOM      7  C   UNL     1       4.508  -0.825   0.000  0.00  0.00    +0.000 A 
ATOM      8  C   UNL     1       5.960   0.854   0.000  0.00  0.00    +0.000 A 
ATOM      9  C   UNL     1       5.960  -0.854   0.000  0.00  0.00    +0.000 A 
ATOM     10  C   UNL     1       6.707   0.430   0.000  0.00  0.00    +0.000 A 
ATOM     11  C   UNL     1       6.707  -0.430   0.000  0.00  0.00    +0.000 A 
ENDROOT
BRANCH   1  13
ATOM     12 CL   UNL     1       1.650  -3.300   0.000  0.00  0.00    +0.000 Cl
ATOM     13  C   UNL     1       3.793  -2.062   0.000  0.00  0.00    +0.000 A 
ATOM     14  C   UNL     1       3.793  -2.888   0.000  0.00  0.00    +0.000 A 
ATOM     15  C   UNL     1       3.079  -1.650   0.000  0.00  0.00    +0.000 A 
ATOM     16  C   UNL     1       3.079  -3.300   0.000  0.00  0.00    +0.000 A 
ATOM     17  C   UNL     1       2.364  -2.062   0.000  0.00  0.00    +0.000 A 
ATOM     18  C   UNL     1       2.364  -2.888   0.000  0.00  0.00    +0.000 A 
ENDBRANCH   1  13
BRANCH   6  19
ATOM     19  C   UNL     1       4.508   1.650   0.000  0.00  0.00    +0.000 C 
BRANCH  19  21
ATOM     20  N   UNL     1       2.364   2.888   0.000  0.00  0.00    +0.000 NA
ATOM     21  C   UNL     1       3.793   2.062   0.000  0.00  0.00    +0.000 A 
ATOM     22  C   UNL     1       3.079   1.650   0.000  0.00  0.00    +0.000 A 
ATOM     23  C   UNL     1       3.793   2.888   0.000  0.00  0.00    +0.000 A 
ATOM     24  C   UNL     1       2.364   2.062   0.000  0.00  0.00    +0.000 A 
ATOM     25  C   UNL     1       3.079   3.300   0.000  0.00  0.00    +0.000 A 
ENDBRANCH  19  21
ENDBRANCH   6  19
TORSDOF 3
