REMARK  Name = 
REMARK  8 active torsions:
REMARK  status: ('A' for Active; 'I' for Inactive)
REMARK    1  A    between atoms: C_2  and  O_15
REMARK    2  A    between atoms: C_3  and  C_4
REMARK    3  A    between atoms: C_3  and  C_8
REMARK    4  A    between atoms: C_4  and  S_16
REMARK    5  A    between atoms: C_6  and  C_9
REMARK    6  A    between atoms: C_6  and  S_16
REMARK    7  A    between atoms: C_7  and  C_10
REMARK    8  A    between atoms: C_9  and  O_15
REMARK                            x       y       z     vdW  Elec       q    Type
REMARK                         _______ _______ _______ _____ _____    ______ ____
ROOT
ATOM      1  C   UNK     1       4.435   6.058   0.000  0.00  0.00    +0.000 C 
ENDROOT
BRANCH   1   4
ATOM      2  C   UNK     1       6.043   4.654   0.000  0.00  0.00    +0.000 C 
ATOM      3  C   UNK     1       6.456   5.368   0.000  0.00  0.00    +0.000 C 
ATOM      4  C   UNK     1       5.150   5.646   0.000  0.00  0.00    +0.000 C 
ATOM      5  N   UNK     1       5.904   5.981   0.000  0.00  0.00    +0.000 NA
ATOM      6  S   UNK     1       5.236   4.825   0.000  0.00  0.00    +0.000 S 
BRANCH   3   7
ATOM      7  C   UNK     1       7.276   5.454   0.000  0.00  0.00    +0.000 C 
ATOM      8  O   UNK     1       7.612   6.208   0.000  0.00  0.00    +0.000 OA
ATOM      9  O   UNK     1       7.761   4.787   0.000  0.00  0.00    +0.000 OA
ENDBRANCH   3   7
ENDBRANCH   1   4
BRANCH   1  10
ATOM     10  C   UNK     1       3.721   5.646   0.000  0.00  0.00    +0.000 C 
BRANCH  10  11
ATOM     11  S   UNK     1       3.006   6.058   0.000  0.00  0.00    +0.000 S 
BRANCH  11  12
ATOM     12  C   UNK     1       2.292   5.646   0.000  0.00  0.00    +0.000 C 
BRANCH  12  13
ATOM     13  C   UNK     1       1.577   6.058   0.000  0.00  0.00    +0.000 C 
ATOM     14  O   UNK     1       1.577   6.883   0.000  0.00  0.00    +0.000 OA
BRANCH  13  15
ATOM     15  O   UNK     1       0.863   5.646   0.000  0.00  0.00    +0.000 OA
BRANCH  15  17
ATOM     16  C   UNK     1      -0.566   5.646   0.000  0.00  0.00    +0.000 C 
ATOM     17  C   UNK     1       0.148   6.058   0.000  0.00  0.00    +0.000 C 
ENDBRANCH  15  17
ENDBRANCH  13  15
ENDBRANCH  12  13
ENDBRANCH  11  12
ENDBRANCH  10  11
ENDBRANCH   1  10
TORSDOF 8
