REMARK  Name = 
REMARK  3 active torsions:
REMARK  status: ('A' for Active; 'I' for Inactive)
REMARK    1  A    between atoms: CA_2  and  C_3
REMARK    2  A    between atoms: CA_2  and  C_18
REMARK    3  A    between atoms: C_3  and  C_4
REMARK                            x       y       z     vdW  Elec       q    Type
REMARK                         _______ _______ _______ _____ _____    ______ ____
ROOT
ATOM      1  C   UNL     1      -1.841  -0.111   0.000  0.00  0.00    +0.000 A 
ATOM      2  C   UNL     1      -2.254  -0.825   0.000  0.00  0.00    +0.000 A 
ATOM      3  C   UNL     1      -1.841  -1.540   0.000  0.00  0.00    +0.000 A 
ATOM      4  C   UNL     1      -1.016  -1.540   0.000  0.00  0.00    +0.000 A 
ATOM      5  C   UNL     1      -0.604  -2.254   0.000  0.00  0.00    +0.000 A 
ATOM      6  C   UNL     1       0.221  -2.254   0.000  0.00  0.00    +0.000 A 
ATOM      7  C   UNL     1       0.634  -1.540   0.000  0.00  0.00    +0.000 A 
ATOM      8  C   UNL     1       0.221  -0.825   0.000  0.00  0.00    +0.000 A 
ATOM      9  N   UNL     1       0.634  -0.111   0.000  0.00  0.00    +0.000 NA
ATOM     10  C   UNL     1       1.459  -0.111   0.000  0.00  0.00    +0.000 A 
ATOM     11  C   UNL     1       1.871  -0.825   0.000  0.00  0.00    +0.000 A 
ATOM     12  C   UNL     1       1.459  -1.540   0.000  0.00  0.00    +0.000 A 
ATOM     13  C   UNL     1      -0.604  -0.825   0.000  0.00  0.00    +0.000 A 
ATOM     14  N   UNL     1      -1.016  -0.111   0.000  0.00  0.00    +0.000 NA
ENDROOT
BRANCH   1  15
ATOM     15  C   UNL     1      -2.254   0.604   0.000  0.00  0.00    +0.000 C 
BRANCH  15  17
ATOM     16  N   UNL     1      -3.491  -0.111   0.000  0.00  0.00    +0.000 NA
ATOM     17  CA  UNL     1      -3.079   0.604   0.000  0.00  0.00    +0.000 C 
BRANCH  17  18
ATOM     18  C   UNL     1      -3.491   1.318   0.000  0.00  0.00    +0.000 C 
ATOM     19  O   UNL     1      -4.316   1.318   0.000  0.00  0.00    +0.000 OA
ATOM     20  OXT UNL     1      -3.079   2.033   0.000  0.00  0.00    +0.000 OA
ENDBRANCH  17  18
ENDBRANCH  15  17
ENDBRANCH   1  15
TORSDOF 3
