REMARK  Name = 
REMARK  8 active torsions:
REMARK  status: ('A' for Active; 'I' for Inactive)
REMARK    1  A    between atoms: C_1  and  C_10
REMARK    2  A    between atoms: C_1  and  C_11
REMARK    3  A    between atoms: C_10  and  O_22
REMARK    4  A    between atoms: C_11  and  O_23
REMARK    5  A    between atoms: C_12  and  C_16
REMARK    6  A    between atoms: C_13  and  C_17
REMARK    7  A    between atoms: C_14  and  O_22
REMARK    8  A    between atoms: C_15  and  O_23
REMARK                            x       y       z     vdW  Elec       q    Type
REMARK                         _______ _______ _______ _____ _____    ______ ____
ROOT
ATOM      1  C   UNL     1       6.430  -0.412   0.000  0.00  0.00    +0.000 C 
ENDROOT
BRANCH   1   2
ATOM      2  C   UNL     1       7.145  -0.825   0.000  0.00  0.00    +0.000 C 
BRANCH   2   3
ATOM      3  O   UNL     1       7.859  -0.412   0.000  0.00  0.00    +0.000 OA
BRANCH   3   9
ATOM      4  C   UNL     1      10.003  -0.825   0.000  0.00  0.00    +0.000 A 
ATOM      5  C   UNL     1       9.288  -2.062   0.000  0.00  0.00    +0.000 A 
ATOM      6  C   UNL     1       9.288  -0.412   0.000  0.00  0.00    +0.000 A 
ATOM      7  C   UNL     1       8.574  -1.650   0.000  0.00  0.00    +0.000 A 
ATOM      8  C   UNL     1      10.003  -1.650   0.000  0.00  0.00    +0.000 A 
ATOM      9  C   UNL     1       8.574  -0.825   0.000  0.00  0.00    +0.000 A 
BRANCH   8  10
ATOM     10  C   UNL     1      10.717  -2.062   0.000  0.00  0.00    +0.000 C 
ATOM     11  N   UNL     1      11.431  -1.650   0.000  0.00  0.00    +0.000 NA
ATOM     12  N   UNL     1      10.717  -2.888   0.000  0.00  0.00    +0.000 NA
ENDBRANCH   8  10
ENDBRANCH   3   9
ENDBRANCH   2   3
ENDBRANCH   1   2
BRANCH   1  13
ATOM     13  C   UNL     1       5.716  -0.825   0.000  0.00  0.00    +0.000 C 
BRANCH  13  14
ATOM     14  O   UNL     1       5.001  -0.412   0.000  0.00  0.00    +0.000 OA
BRANCH  14  20
ATOM     15  C   UNL     1       3.572  -2.062   0.000  0.00  0.00    +0.000 A 
ATOM     16  C   UNL     1       2.858  -0.825   0.000  0.00  0.00    +0.000 A 
ATOM     17  C   UNL     1       4.287  -1.650   0.000  0.00  0.00    +0.000 A 
ATOM     18  C   UNL     1       3.572  -0.412   0.000  0.00  0.00    +0.000 A 
ATOM     19  C   UNL     1       2.858  -1.650   0.000  0.00  0.00    +0.000 A 
ATOM     20  C   UNL     1       4.287  -0.825   0.000  0.00  0.00    +0.000 A 
BRANCH  19  21
ATOM     21  C   UNL     1       2.143  -2.062   0.000  0.00  0.00    +0.000 C 
ATOM     22  N   UNL     1       1.429  -1.650   0.000  0.00  0.00    +0.000 NA
ATOM     23  N   UNL     1       2.143  -2.888   0.000  0.00  0.00    +0.000 NA
ENDBRANCH  19  21
ENDBRANCH  14  20
ENDBRANCH  13  14
ENDBRANCH   1  13
TORSDOF 8
