REMARK  Name = 
REMARK  2 active torsions:
REMARK  status: ('A' for Active; 'I' for Inactive)
REMARK    1  A    between atoms: C_2  and  C_4
REMARK    2  A    between atoms: CA_9  and  C_10
REMARK                            x       y       z     vdW  Elec       q    Type
REMARK                         _______ _______ _______ _____ _____    ______ ____
ROOT
ATOM      1  C   UNL     1       1.429   0.825   0.000  0.00  0.00    +0.000 A 
ATOM      2  C   UNL     1       1.429   0.000   0.000  0.00  0.00    +0.000 A 
ATOM      3  C   UNL     1       0.715  -0.412   0.000  0.00  0.00    +0.000 A 
ATOM      4  C   UNL     1       0.000   0.000   0.000  0.00  0.00    +0.000 A 
ATOM      5  N   UNL     1       0.000   0.825   0.000  0.00  0.00    +0.000 NA
ATOM      6  CA  UNL     1       0.715   1.238   0.000  0.00  0.00    +0.000 A 
ENDROOT
BRANCH   1   8
ATOM      7  O   UNL     1       2.143   2.062   0.000  0.00  0.00    +0.000 OA
ATOM      8  C   UNL     1       2.143   1.238   0.000  0.00  0.00    +0.000 C 
ATOM      9  O   UNL     1       2.858   0.825   0.000  0.00  0.00    +0.000 OA
ENDBRANCH   1   8
BRANCH   6  10
ATOM     10  C   UNL     1       0.715   2.062   0.000  0.00  0.00    +0.000 C 
ATOM     11  O   UNL     1       1.429   2.475   0.000  0.00  0.00    +0.000 OA
ATOM     12  OXT UNL     1       0.000   2.475   0.000  0.00  0.00    +0.000 OA
ENDBRANCH   6  10
TORSDOF 2
