REMARK  Name = 
REMARK  9 active torsions:
REMARK  status: ('A' for Active; 'I' for Inactive)
REMARK    1  A    between atoms: C_2  and  C_3
REMARK    2  A    between atoms: C_5  and  C_6
REMARK    3  A    between atoms: C_7  and  C_8
REMARK    4  A    between atoms: C_10  and  C_11
REMARK    5  A    between atoms: C_12  and  C_13
REMARK    6  A    between atoms: C_14  and  C_16
REMARK    7  A    between atoms: C_17  and  C_18
REMARK    8  A    between atoms: C_19  and  C_21
REMARK    9  A    between atoms: C_22  and  C_23
REMARK                            x       y       z     vdW  Elec       q    Type
REMARK                         _______ _______ _______ _____ _____    ______ ____
ROOT
ATOM      1  C   UNL     1       5.001   2.062   0.000  0.00  0.00    +0.000 C 
ATOM      2  C   UNL     1       4.287   2.475   0.000  0.00  0.00    +0.000 C 
ENDROOT
BRANCH   1   4
ATOM      3  C   UNL     1       6.430   2.062   0.000  0.00  0.00    +0.000 C 
ATOM      4  C   UNL     1       5.716   2.475   0.000  0.00  0.00    +0.000 C 
ATOM      5  C   UNL     1       5.716   3.300   0.000  0.00  0.00    +0.000 C 
BRANCH   3   7
ATOM      6  C   UNL     1       7.145   0.825   0.000  0.00  0.00    +0.000 C 
ATOM      7  C   UNL     1       6.430   1.238   0.000  0.00  0.00    +0.000 C 
BRANCH   6  10
ATOM      8  C   UNL     1       7.859  -0.412   0.000  0.00  0.00    +0.000 C 
ATOM      9  C   UNL     1       7.859  -1.238   0.000  0.00  0.00    +0.000 C 
ATOM     10  C   UNL     1       7.145   0.000   0.000  0.00  0.00    +0.000 C 
BRANCH   8  12
ATOM     11  C   UNL     1       9.288  -0.412   0.000  0.00  0.00    +0.000 C 
ATOM     12  C   UNL     1       8.574   0.000   0.000  0.00  0.00    +0.000 C 
BRANCH  11  15
ATOM     13  C   UNL     1      10.717  -1.238   0.000  0.00  0.00    +0.000 C 
ATOM     14  C   UNL     1      10.717  -0.412   0.000  0.00  0.00    +0.000 C 
ATOM     15  C   UNL     1      10.003   0.000   0.000  0.00  0.00    +0.000 C 
BRANCH  14  16
ATOM     16  C   UNL     1      11.431   0.000   0.000  0.00  0.00    +0.000 C 
ATOM     17  O   UNL     1      12.146  -0.412   0.000  0.00  0.00    +0.000 OA
ENDBRANCH  14  16
ENDBRANCH  11  15
ENDBRANCH   8  12
ENDBRANCH   6  10
ENDBRANCH   3   7
ENDBRANCH   1   4
BRANCH   2  18
ATOM     18  C   UNL     1       3.572   2.062   0.000  0.00  0.00    +0.000 C 
ATOM     19  C   UNL     1       2.858   2.475   0.000  0.00  0.00    +0.000 C 
ATOM     20  C   UNL     1       2.858   3.300   0.000  0.00  0.00    +0.000 C 
BRANCH  19  21
ATOM     21  C   UNL     1       2.143   2.062   0.000  0.00  0.00    +0.000 C 
ATOM     22  C   UNL     1       2.143   1.238   0.000  0.00  0.00    +0.000 C 
BRANCH  22  23
ATOM     23  C   UNL     1       1.429   0.825   0.000  0.00  0.00    +0.000 C 
ATOM     24  C   UNL     1       1.429   0.000   0.000  0.00  0.00    +0.000 C 
ATOM     25  C   UNL     1       2.143  -0.412   0.000  0.00  0.00    +0.000 C 
ATOM     26  C   UNL     1       0.715  -0.412   0.000  0.00  0.00    +0.000 C 
ATOM     27  C   UNL     1       0.000   0.000   0.000  0.00  0.00    +0.000 C 
ATOM     28  O   UNL     1      -0.715  -0.412   0.000  0.00  0.00    +0.000 OA
ATOM     29  C   UNL     1       0.000   0.825   0.000  0.00  0.00    +0.000 C 
ATOM     30  C   UNL     1       0.715   1.238   0.000  0.00  0.00    +0.000 C 
ATOM     31  C   UNL     1       0.327   1.966   0.000  0.00  0.00    +0.000 C 
ATOM     32  C   UNL     1       1.102   1.966   0.000  0.00  0.00    +0.000 C 
ENDBRANCH  22  23
ENDBRANCH  19  21
ENDBRANCH   2  18
TORSDOF 9
