REMARK  Name = 
REMARK  12 active torsions:
REMARK  status: ('A' for Active; 'I' for Inactive)
REMARK    1  A    between atoms: N_6  and  C_7
REMARK    2  A    between atoms: C_9  and  C_10
REMARK    3  A    between atoms: C_10  and  O_11
REMARK    4  A    between atoms: O_11  and  P_12
REMARK    5  A    between atoms: P_12  and  O_15
REMARK    6  A    between atoms: O_15  and  P_16
REMARK    7  A    between atoms: P_16  and  O_19
REMARK    8  A    between atoms: O_19  and  P_20
REMARK    9  A    between atoms: P_20  and  O_23
REMARK   10  A    between atoms: O_23  and  P_24
REMARK   11  A    between atoms: P_24  and  O_27
REMARK   12  A    between atoms: O_27  and  P_28
REMARK                            x       y       z     vdW  Elec       q    Type
REMARK                         _______ _______ _______ _____ _____    ______ ____
ROOT
ATOM      1  P   UNL     1      -1.063   3.429   0.000  0.00  0.00    +0.000 P 
ATOM      2  O   UNL     1      -0.650   2.715   0.000  0.00  0.00    +0.000 OA
ATOM      3  O   UNL     1      -1.475   4.144   0.000  0.00  0.00    +0.000 OA
ENDROOT
BRANCH   1   4
ATOM      4  O   UNL     1      -0.348   3.842   0.000  0.00  0.00    +0.000 OA
BRANCH   4   5
ATOM      5  P   UNL     1       0.366   3.429   0.000  0.00  0.00    +0.000 P 
ATOM      6  O   UNL     1      -0.046   2.715   0.000  0.00  0.00    +0.000 OA
ATOM      7  O   UNL     1       0.779   4.144   0.000  0.00  0.00    +0.000 OA
BRANCH   5   8
ATOM      8  O   UNL     1       1.081   3.017   0.000  0.00  0.00    +0.000 OA
BRANCH   8   9
ATOM      9  P   UNL     1       1.795   3.429   0.000  0.00  0.00    +0.000 P 
ATOM     10  O   UNL     1       2.208   2.715   0.000  0.00  0.00    +0.000 OA
ATOM     11  O   UNL     1       1.383   4.144   0.000  0.00  0.00    +0.000 OA
BRANCH   9  12
ATOM     12  O   UNL     1       2.510   3.842   0.000  0.00  0.00    +0.000 OA
BRANCH  12  13
ATOM     13  P   UNL     1       3.224   3.429   0.000  0.00  0.00    +0.000 P 
ATOM     14  O   UNL     1       2.812   2.715   0.000  0.00  0.00    +0.000 OA
ATOM     15  O   UNL     1       3.637   4.144   0.000  0.00  0.00    +0.000 OA
BRANCH  13  16
ATOM     16  O   UNL     1       3.939   3.017   0.000  0.00  0.00    +0.000 OA
BRANCH  16  17
ATOM     17  P   UNL     1       4.653   3.429   0.000  0.00  0.00    +0.000 P 
ATOM     18  O   UNL     1       5.368   3.842   0.000  0.00  0.00    +0.000 OA
ATOM     19  O   UNL     1       5.066   2.715   0.000  0.00  0.00    +0.000 OA
ATOM     20  O   UNL     1       4.241   4.144   0.000  0.00  0.00    +0.000 OA
ENDBRANCH  16  17
ENDBRANCH  13  16
ENDBRANCH  12  13
ENDBRANCH   9  12
ENDBRANCH   8   9
ENDBRANCH   5   8
ENDBRANCH   4   5
ENDBRANCH   1   4
BRANCH   1  21
ATOM     21  O   UNL     1      -1.777   3.017   0.000  0.00  0.00    +0.000 OA
BRANCH  21  22
ATOM     22  C   UNL     1      -2.492   3.429   0.000  0.00  0.00    +0.000 C 
BRANCH  22  25
ATOM     23  C   UNL     1      -4.512   2.739   0.000  0.00  0.00    +0.000 C 
ATOM     24  O   UNL     1      -3.960   3.353   0.000  0.00  0.00    +0.000 OA
ATOM     25  C   UNL     1      -3.206   3.017   0.000  0.00  0.00    +0.000 C 
ATOM     26  C   UNL     1      -3.292   2.196   0.000  0.00  0.00    +0.000 C 
ATOM     27  O   UNL     1      -2.679   1.644   0.000  0.00  0.00    +0.000 OA
ATOM     28  C   UNL     1      -4.099   2.025   0.000  0.00  0.00    +0.000 C 
ATOM     29  O   UNL     1      -4.435   1.271   0.000  0.00  0.00    +0.000 OA
BRANCH  23  35
ATOM     30  N   UNL     1      -8.059   2.399   0.000  0.00  0.00    +0.000 NA
ATOM     31  C   UNL     1      -7.305   2.063   0.000  0.00  0.00    +0.000 A 
ATOM     32  C   UNL     1      -6.638   2.548   0.000  0.00  0.00    +0.000 A 
ATOM     33  N   UNL     1      -6.552   3.369   0.000  0.00  0.00    +0.000 NA
ATOM     34  C   UNL     1      -5.745   3.540   0.000  0.00  0.00    +0.000 A 
ATOM     35  N   UNL     1      -5.332   2.826   0.000  0.00  0.00    +0.000 N 
ATOM     36  C   UNL     1      -5.884   2.212   0.000  0.00  0.00    +0.000 A 
ATOM     37  N   UNL     1      -5.798   1.392   0.000  0.00  0.00    +0.000 NA
ATOM     38  C   UNL     1      -6.465   0.907   0.000  0.00  0.00    +0.000 A 
ATOM     39  N   UNL     1      -7.219   1.243   0.000  0.00  0.00    +0.000 NA
ENDBRANCH  23  35
ENDBRANCH  22  25
ENDBRANCH  21  22
ENDBRANCH   1  21
TORSDOF 12
