REMARK  Name = 
REMARK  6 active torsions:
REMARK  status: ('A' for Active; 'I' for Inactive)
REMARK    1  A    between atoms: O_1  and  C_4
REMARK    2  A    between atoms: O_1  and  C_14
REMARK    3  A    between atoms: N_3  and  C_10
REMARK    4  A    between atoms: C_4  and  C_9
REMARK    5  A    between atoms: C_10  and  C_11
REMARK    6  A    between atoms: C_11  and  C_15
REMARK                            x       y       z     vdW  Elec       q    Type
REMARK                         _______ _______ _______ _____ _____    ______ ____
ROOT
ATOM      1  N   UNL     1       3.300  -0.040   0.000  0.00  0.00    +0.000 NA
ATOM      2  C   UNL     1       3.300   1.610   0.000  0.00  0.00    +0.000 C 
ATOM      3  C   UNL     1       2.586   1.197   0.000  0.00  0.00    +0.000 C 
ATOM      4  C   UNL     1       4.014   1.197   0.000  0.00  0.00    +0.000 C 
ATOM      5  C   UNL     1       2.586   0.372   0.000  0.00  0.00    +0.000 C 
ATOM      6  C   UNL     1       4.014   0.372   0.000  0.00  0.00    +0.000 C 
ENDROOT
BRANCH   2   7
ATOM      7  C   UNL     1       3.713   2.324   0.000  0.00  0.00    +0.000 A 
ATOM      8  C   UNL     1       3.300   3.038   0.000  0.00  0.00    +0.000 A 
ATOM      9  C   UNL     1       4.538   2.324   0.000  0.00  0.00    +0.000 A 
ATOM     10  C   UNL     1       3.713   3.753   0.000  0.00  0.00    +0.000 A 
ATOM     11  C   UNL     1       4.950   3.038   0.000  0.00  0.00    +0.000 A 
ATOM     12  C   UNL     1       4.538   3.753   0.000  0.00  0.00    +0.000 A 
ENDBRANCH   2   7
BRANCH   1  13
ATOM     13  C   UNL     1       3.300  -0.865   0.000  0.00  0.00    +0.000 C 
BRANCH  13  14
ATOM     14  C   UNL     1       2.586  -1.278   0.000  0.00  0.00    +0.000 C 
BRANCH  14  15
ATOM     15  C   UNL     1       2.586  -2.103   0.000  0.00  0.00    +0.000 A 
ATOM     16  C   UNL     1       3.300  -2.515   0.000  0.00  0.00    +0.000 A 
ATOM     17  C   UNL     1       1.871  -2.515   0.000  0.00  0.00    +0.000 A 
ATOM     18  C   UNL     1       3.300  -3.341   0.000  0.00  0.00    +0.000 A 
ATOM     19  C   UNL     1       1.871  -3.341   0.000  0.00  0.00    +0.000 A 
ATOM     20  C   UNL     1       2.586  -3.753   0.000  0.00  0.00    +0.000 A 
ENDBRANCH  14  15
ENDBRANCH  13  14
ENDBRANCH   1  13
BRANCH   2  21
ATOM     21  O   UNL     1       2.888   2.324   0.000  0.00  0.00    +0.000 OA
BRANCH  21  23
ATOM     22  O   UNL     1       1.650   1.610   0.000  0.00  0.00    +0.000 OA
ATOM     23  C   UNL     1       2.062   2.324   0.000  0.00  0.00    +0.000 C 
ATOM     24  C   UNL     1       1.650   3.038   0.000  0.00  0.00    +0.000 C 
ENDBRANCH  21  23
ENDBRANCH   2  21
TORSDOF 6
