REMARK  Name = 
REMARK  3 active torsions:
REMARK  status: ('A' for Active; 'I' for Inactive)
REMARK    1  A    between atoms: C_5  and  C_7
REMARK    2  A    between atoms: C_23  and  O_28
REMARK    3  A    between atoms: C_24  and  O_26
REMARK                            x       y       z     vdW  Elec       q    Type
REMARK                         _______ _______ _______ _____ _____    ______ ____
ROOT
ATOM      1  C   UNL     1       3.994   1.210   0.000  0.00  0.00    +0.000 A 
ATOM      2  C   UNL     1       4.708   1.623   0.000  0.00  0.00    +0.000 A 
ATOM      3  C   UNL     1       5.423   1.210   0.000  0.00  0.00    +0.000 A 
ATOM      4  O   UNL     1       6.036   1.762   0.000  0.00  0.00    +0.000 OA
ATOM      5  C   UNL     1       5.700   2.516   0.000  0.00  0.00    +0.000 C 
ATOM      6  C   UNL     1       4.880   2.430   0.000  0.00  0.00    +0.000 C 
ATOM      7  C   UNL     1       5.423   0.385   0.000  0.00  0.00    +0.000 A 
ATOM      8  C   UNL     1       4.708  -0.027   0.000  0.00  0.00    +0.000 A 
ATOM      9  C   UNL     1       3.994   0.385   0.000  0.00  0.00    +0.000 A 
ATOM     10  C   UNL     1       3.280  -0.027   0.000  0.00  0.00    +0.000 C 
ATOM     11  O   UNL     1       3.280  -0.852   0.000  0.00  0.00    +0.000 OA
ATOM     12  C   UNL     1       2.565   0.385   0.000  0.00  0.00    +0.000 C 
ATOM     13  C   UNL     1       2.565   1.210   0.000  0.00  0.00    +0.000 C 
ATOM     14  O   UNL     1       3.280   1.623   0.000  0.00  0.00    +0.000 OA
ATOM     15  C   UNL     1       1.851   1.623   0.000  0.00  0.00    +0.000 C 
ATOM     16  O   UNL     1       1.136   1.210   0.000  0.00  0.00    +0.000 OA
ATOM     17  C   UNL     1       1.136   0.385   0.000  0.00  0.00    +0.000 A 
ATOM     18  C   UNL     1       1.851  -0.027   0.000  0.00  0.00    +0.000 A 
ATOM     19  C   UNL     1       1.851  -0.852   0.000  0.00  0.00    +0.000 A 
ATOM     20  C   UNL     1       1.136  -1.265   0.000  0.00  0.00    +0.000 A 
ATOM     21  C   UNL     1       0.422  -0.852   0.000  0.00  0.00    +0.000 A 
ATOM     22  C   UNL     1       0.422  -0.027   0.000  0.00  0.00    +0.000 A 
ENDROOT
BRANCH   5  23
ATOM     23  C   UNL     1       6.113   3.231   0.000  0.00  0.00    +0.000 C 
ATOM     24  C   UNL     1       6.938   3.231   0.000  0.00  0.00    +0.000 C 
ATOM     25  C   UNL     1       5.700   3.945   0.000  0.00  0.00    +0.000 C 
ENDBRANCH   5  23
BRANCH  21  26
ATOM     26  O   UNL     1      -0.293  -1.265   0.000  0.00  0.00    +0.000 OA
ATOM     27  C   UNL     1      -0.293  -2.090   0.000  0.00  0.00    +0.000 C 
ENDBRANCH  21  26
BRANCH  20  28
ATOM     28  O   UNL     1       1.136  -2.090   0.000  0.00  0.00    +0.000 OA
ATOM     29  C   UNL     1       0.422  -2.502   0.000  0.00  0.00    +0.000 C 
ENDBRANCH  20  28
TORSDOF 3
