REMARK  Name = 
REMARK  13 active torsions:
REMARK  status: ('A' for Active; 'I' for Inactive)
REMARK    1  A    between atoms: C_1  and  C_6
REMARK    2  A    between atoms: C_2  and  C_7
REMARK    3  A    between atoms: C_3  and  C_8
REMARK    4  A    between atoms: C_4  and  C_9
REMARK    5  A    between atoms: C_5  and  C_10
REMARK    6  A    between atoms: C_22  and  O_52
REMARK    7  A    between atoms: C_23  and  O_53
REMARK    8  A    between atoms: C_24  and  S_55
REMARK    9  A    between atoms: C_25  and  S_56
REMARK   10  A    between atoms: C_26  and  O_52
REMARK   11  A    between atoms: C_27  and  O_53
REMARK   12  A    between atoms: C_29  and  S_55
REMARK   13  A    between atoms: C_30  and  S_56
REMARK                            x       y       z     vdW  Elec       q    Type
REMARK                         _______ _______ _______ _____ _____    ______ ____
ROOT
ATOM      1  C   UNL     1       6.430 -10.312   0.000  0.00  0.00    +0.000 C 
ATOM      2  C   UNL     1       5.716  -9.075   0.000  0.00  0.00    +0.000 C 
ATOM      3  C   UNL     1       6.430  -8.662   0.000  0.00  0.00    +0.000 C 
ATOM      4  C   UNL     1       5.716  -9.900   0.000  0.00  0.00    +0.000 C 
ATOM      5  C   UNL     1       7.145  -9.075   0.000  0.00  0.00    +0.000 C 
ATOM      6  O   UNL     1       5.001  -8.662   0.000  0.00  0.00    +0.000 OA
ATOM      7  O   UNL     1       6.430  -7.838   0.000  0.00  0.00    +0.000 OA
ATOM      8  O   UNL     1       7.145  -9.900   0.000  0.00  0.00    +0.000 OA
ENDROOT
BRANCH   1   9
ATOM      9  C   UNL     1       6.430 -11.137   0.000  0.00  0.00    +0.000 C 
ATOM     10  O   UNL     1       5.716 -11.550   0.000  0.00  0.00    +0.000 OA
ENDBRANCH   1   9
BRANCH   4  11
ATOM     11  O   UNL     1       5.001 -10.312   0.000  0.00  0.00    +0.000 OA
BRANCH  11  16
ATOM     12  C   UNL     1       3.572  -8.662   0.000  0.00  0.00    +0.000 C 
ATOM     13  C   UNL     1       2.858  -9.900   0.000  0.00  0.00    +0.000 C 
ATOM     14  C   UNL     1       3.572 -10.312   0.000  0.00  0.00    +0.000 C 
ATOM     15  C   UNL     1       2.858  -9.075   0.000  0.00  0.00    +0.000 C 
ATOM     16  C   UNL     1       4.287  -9.900   0.000  0.00  0.00    +0.000 C 
ATOM     17  O   UNL     1       2.143 -10.312   0.000  0.00  0.00    +0.000 OA
ATOM     18  O   UNL     1       3.572 -11.137   0.000  0.00  0.00    +0.000 OA
ATOM     19  O   UNL     1       4.287  -9.075   0.000  0.00  0.00    +0.000 OA
BRANCH  12  20
ATOM     20  C   UNL     1       3.572  -7.838   0.000  0.00  0.00    +0.000 C 
ATOM     21  O   UNL     1       4.287  -7.425   0.000  0.00  0.00    +0.000 OA
ENDBRANCH  12  20
BRANCH  15  22
ATOM     22  S   UNL     1       2.143  -8.662   0.000  0.00  0.00    +0.000 S 
BRANCH  22  27
ATOM     23  C   UNL     1       2.858  -6.600   0.000  0.00  0.00    +0.000 C 
ATOM     24  C   UNL     1       2.143  -6.188   0.000  0.00  0.00    +0.000 C 
ATOM     25  C   UNL     1       1.429  -6.600   0.000  0.00  0.00    +0.000 C 
ATOM     26  C   UNL     1       1.429  -7.425   0.000  0.00  0.00    +0.000 C 
ATOM     27  C   UNL     1       2.143  -7.838   0.000  0.00  0.00    +0.000 C 
ATOM     28  O   UNL     1       2.143  -5.362   0.000  0.00  0.00    +0.000 OA
ATOM     29  O   UNL     1       0.715  -6.188   0.000  0.00  0.00    +0.000 OA
ATOM     30  O   UNL     1       0.715  -7.838   0.000  0.00  0.00    +0.000 OA
ATOM     31  O   UNL     1       2.858  -7.425   0.000  0.00  0.00    +0.000 OA
BRANCH  23  32
ATOM     32  C   UNL     1       3.572  -6.188   0.000  0.00  0.00    +0.000 C 
ATOM     33  O   UNL     1       3.572  -5.362   0.000  0.00  0.00    +0.000 OA
ENDBRANCH  23  32
ENDBRANCH  22  27
ENDBRANCH  15  22
ENDBRANCH  11  16
ENDBRANCH   4  11
BRANCH   5  34
ATOM     34  S   UNL     1       7.859  -8.662   0.000  0.00  0.00    +0.000 S 
BRANCH  34  38
ATOM     35  C   UNL     1       9.288  -8.662   0.000  0.00  0.00    +0.000 C 
ATOM     36  C   UNL     1       8.574  -9.900   0.000  0.00  0.00    +0.000 C 
ATOM     37  C   UNL     1       9.288 -10.312   0.000  0.00  0.00    +0.000 C 
ATOM     38  C   UNL     1       8.574  -9.075   0.000  0.00  0.00    +0.000 C 
ATOM     39  C   UNL     1      10.003  -9.900   0.000  0.00  0.00    +0.000 C 
ATOM     40  O   UNL     1       7.859 -10.312   0.000  0.00  0.00    +0.000 OA
ATOM     41  O   UNL     1       9.288 -11.137   0.000  0.00  0.00    +0.000 OA
ATOM     42  O   UNL     1      10.003  -9.075   0.000  0.00  0.00    +0.000 OA
BRANCH  35  43
ATOM     43  C   UNL     1       9.288  -7.838   0.000  0.00  0.00    +0.000 C 
ATOM     44  O   UNL     1      10.003  -7.425   0.000  0.00  0.00    +0.000 OA
ENDBRANCH  35  43
BRANCH  39  45
ATOM     45  O   UNL     1      10.717 -10.312   0.000  0.00  0.00    +0.000 OA
BRANCH  45  49
ATOM     46  C   UNL     1      12.146 -10.312   0.000  0.00  0.00    +0.000 C 
ATOM     47  C   UNL     1      11.431  -9.075   0.000  0.00  0.00    +0.000 C 
ATOM     48  C   UNL     1      12.146  -8.662   0.000  0.00  0.00    +0.000 C 
ATOM     49  C   UNL     1      11.431  -9.900   0.000  0.00  0.00    +0.000 C 
ATOM     50  C   UNL     1      12.861  -9.075   0.000  0.00  0.00    +0.000 C 
ATOM     51  O   UNL     1      10.717  -8.662   0.000  0.00  0.00    +0.000 OA
ATOM     52  O   UNL     1      12.146  -7.838   0.000  0.00  0.00    +0.000 OA
ATOM     53  O   UNL     1      12.861  -9.900   0.000  0.00  0.00    +0.000 OA
ATOM     54  S   UNL     1      13.575  -8.662   0.000  0.00  0.00    +0.000 S 
BRANCH  46  55
ATOM     55  C   UNL     1      12.146 -11.137   0.000  0.00  0.00    +0.000 C 
ATOM     56  O   UNL     1      12.861 -11.550   0.000  0.00  0.00    +0.000 OA
ENDBRANCH  46  55
ENDBRANCH  45  49
ENDBRANCH  39  45
ENDBRANCH  34  38
ENDBRANCH   5  34
TORSDOF 13
