REMARK  Name = 
REMARK  8 active torsions:
REMARK  status: ('A' for Active; 'I' for Inactive)
REMARK    1  A    between atoms: C_5  and  C_6
REMARK    2  A    between atoms: C_6  and  O_7
REMARK    3  A    between atoms: O_7  and  P_8
REMARK    4  A    between atoms: C_12  and  C_13
REMARK    5  A    between atoms: C_13  and  N_14
REMARK    6  A    between atoms: N_14  and  O_15
REMARK    7  A    between atoms: O_15  and  C_16
REMARK    8  A    between atoms: C_16  and  C_17
REMARK                            x       y       z     vdW  Elec       q    Type
REMARK                         _______ _______ _______ _____ _____    ______ ____
ROOT
ATOM      1  C   UNL     1      -0.715  -0.412   0.000  0.00  0.00    +0.000 C 
ATOM      2  C   UNL     1       0.000   0.000   0.000  0.00  0.00    +0.000 A 
ATOM      3  N   UNL     1       0.000   0.825   0.000  0.00  0.00    +0.000 NA
ATOM      4  C   UNL     1       0.715   1.238   0.000  0.00  0.00    +0.000 A 
ATOM      5  C   UNL     1       1.429   0.825   0.000  0.00  0.00    +0.000 A 
ATOM      6  C   UNL     1       1.429   0.000   0.000  0.00  0.00    +0.000 A 
ATOM      7  C   UNL     1       0.715  -0.412   0.000  0.00  0.00    +0.000 A 
ATOM      8  O   UNL     1       0.715  -1.238   0.000  0.00  0.00    +0.000 OA
ENDROOT
BRANCH   5   9
ATOM      9  C   UNL     1       2.143   1.238   0.000  0.00  0.00    +0.000 C 
BRANCH   9  10
ATOM     10  O   UNL     1       2.143   2.062   0.000  0.00  0.00    +0.000 OA
BRANCH  10  11
ATOM     11  P   UNL     1       2.858   2.475   0.000  0.00  0.00    +0.000 P 
ATOM     12  O   UNL     1       3.572   2.888   0.000  0.00  0.00    +0.000 OA
ATOM     13  O   UNL     1       2.445   3.189   0.000  0.00  0.00    +0.000 OA
ATOM     14  O   UNL     1       3.270   1.760   0.000  0.00  0.00    +0.000 OA
ENDBRANCH  10  11
ENDBRANCH   9  10
ENDBRANCH   5   9
BRANCH   6  15
ATOM     15  C   UNL     1       2.143  -0.412   0.000  0.00  0.00    +0.000 C 
BRANCH  15  16
ATOM     16  N   UNL     1       2.858   0.000   0.000  0.00  0.00    +0.000 NA
BRANCH  16  17
ATOM     17  O   UNL     1       3.572  -0.412   0.000  0.00  0.00    +0.000 OA
BRANCH  17  18
ATOM     18  C   UNL     1       4.287   0.000   0.000  0.00  0.00    +0.000 C 
BRANCH  18  19
ATOM     19  C   UNL     1       5.001  -0.412   0.000  0.00  0.00    +0.000 C 
ATOM     20  O   UNL     1       5.716   0.000   0.000  0.00  0.00    +0.000 OA
ATOM     21  O   UNL     1       5.001  -1.238   0.000  0.00  0.00    +0.000 OA
ENDBRANCH  18  19
ENDBRANCH  17  18
ENDBRANCH  16  17
ENDBRANCH  15  16
ENDBRANCH   6  15
TORSDOF 8
