REMARK  Name = 
REMARK  1 active torsions:
REMARK  status: ('A' for Active; 'I' for Inactive)
REMARK    1  A    between atoms: C_7  and  C_8
REMARK                            x       y       z     vdW  Elec       q    Type
REMARK                         _______ _______ _______ _____ _____    ______ ____
ROOT
ATOM      1  C   UNL     1      -0.750   1.137   0.000  0.00  0.00    +0.000 A 
ATOM      2  C   UNL     1      -1.464   0.725   0.000  0.00  0.00    +0.000 A 
ATOM      3  C   UNL     1      -1.464  -0.100   0.000  0.00  0.00    +0.000 A 
ATOM      4  C   UNL     1      -0.035   0.725   0.000  0.00  0.00    +0.000 A 
ATOM      5  N   UNL     1      -0.750  -0.512   0.000  0.00  0.00    +0.000 N 
ATOM      6  C   UNL     1      -0.750  -1.337   0.000  0.00  0.00    +0.000 C 
ATOM      7  C   UNL     1      -0.035  -0.100   0.000  0.00  0.00    +0.000 A 
ENDROOT
BRANCH   7   8
ATOM      8  C   UNL     1       0.679  -0.512   0.000  0.00  0.00    +0.000 C 
ATOM      9  N   UNL     1       1.393  -0.100   0.000  0.00  0.00    +0.000 NA
ATOM     10  O   UNL     1       2.108  -0.512   0.000  0.00  0.00    +0.000 OA
ENDBRANCH   7   8
TORSDOF 1
