REMARK  Name = 
REMARK  10 active torsions:
REMARK  status: ('A' for Active; 'I' for Inactive)
REMARK    1  A    between atoms: C_2  and  C_5
REMARK    2  A    between atoms: C_2  and  O_28
REMARK    3  A    between atoms: C_4  and  C_10
REMARK    4  A    between atoms: C_6  and  N_13
REMARK    5  A    between atoms: C_8  and  O_32
REMARK    6  A    between atoms: C_9  and  O_31
REMARK    7  A    between atoms: C_12  and  O_31
REMARK    8  A    between atoms: N_13  and  S_33
REMARK    9  A    between atoms: O_28  and  S_34
REMARK   10  A    between atoms: O_32  and  S_35
REMARK                            x       y       z     vdW  Elec       q    Type
REMARK                         _______ _______ _______ _____ _____    ______ ____
ROOT
ATOM      1  C   UNL     1      -1.429  -4.125   0.000  0.00  0.00    +0.000 C 
ATOM      2  C   UNL     1      -2.858  -4.950   0.000  0.00  0.00    +0.000 C 
ATOM      3  C   UNL     1      -2.858  -4.125   0.000  0.00  0.00    +0.000 C 
ATOM      4  C   UNL     1      -2.143  -3.712   0.000  0.00  0.00    +0.000 C 
ATOM      5  C   UNL     1      -2.143  -5.362   0.000  0.00  0.00    +0.000 C 
ATOM      6  O   UNL     1      -3.572  -3.712   0.000  0.00  0.00    +0.000 OA
ATOM      7  O   UNL     1      -2.143  -6.188   0.000  0.00  0.00    +0.000 OA
ATOM      8  O   UNL     1      -1.429  -4.950   0.000  0.00  0.00    +0.000 OA
ENDROOT
BRANCH   2   9
ATOM      9  N   UNL     1      -3.572  -5.362   0.000  0.00  0.00    +0.000 NA
BRANCH   9  13
ATOM     10  O   UNL     1      -3.572  -7.013   0.000  0.00  0.00    +0.000 OA
ATOM     11  O   UNL     1      -4.397  -6.188   0.000  0.00  0.00    +0.000 OA
ATOM     12  O   UNL     1      -2.747  -6.188   0.000  0.00  0.00    +0.000 OA
ATOM     13  S   UNL     1      -3.572  -6.188   0.000  0.00  0.00    +0.000 S 
ENDBRANCH   9  13
ENDBRANCH   2   9
BRANCH   1  14
ATOM     14  C   UNL     1      -0.715  -3.712   0.000  0.00  0.00    +0.000 C 
BRANCH  14  15
ATOM     15  O   UNL     1       0.000  -4.125   0.000  0.00  0.00    +0.000 OA
BRANCH  15  19
ATOM     16  O   UNL     1      -0.825  -4.950   0.000  0.00  0.00    +0.000 OA
ATOM     17  O   UNL     1       0.825  -4.950   0.000  0.00  0.00    +0.000 OA
ATOM     18  O   UNL     1       0.000  -5.775   0.000  0.00  0.00    +0.000 OA
ATOM     19  S   UNL     1       0.000  -4.950   0.000  0.00  0.00    +0.000 S 
ENDBRANCH  15  19
ENDBRANCH  14  15
ENDBRANCH   1  14
BRANCH   4  20
ATOM     20  O   UNL     1      -2.143  -2.888   0.000  0.00  0.00    +0.000 OA
BRANCH  20  25
ATOM     21  C   UNL     1       0.000  -1.650   0.000  0.00  0.00    +0.000 C 
ATOM     22  C   UNL     1      -0.715  -1.238   0.000  0.00  0.00    +0.000 C 
ATOM     23  C   UNL     1       0.000  -2.475   0.000  0.00  0.00    +0.000 C 
ATOM     24  C   UNL     1      -1.429  -1.650   0.000  0.00  0.00    +0.000 C 
ATOM     25  C   UNL     1      -1.429  -2.475   0.000  0.00  0.00    +0.000 C 
ATOM     26  O   UNL     1      -0.715  -0.412   0.000  0.00  0.00    +0.000 OA
ATOM     27  O   UNL     1      -0.715  -2.888   0.000  0.00  0.00    +0.000 OA
BRANCH  23  28
ATOM     28  C   UNL     1       0.715  -2.888   0.000  0.00  0.00    +0.000 C 
ATOM     29  O   UNL     1       1.429  -2.475   0.000  0.00  0.00    +0.000 OA
ATOM     30  O   UNL     1       0.715  -3.712   0.000  0.00  0.00    +0.000 OA
ENDBRANCH  23  28
BRANCH  24  31
ATOM     31  O   UNL     1      -2.143  -1.238   0.000  0.00  0.00    +0.000 OA
BRANCH  31  35
ATOM     32  O   UNL     1      -1.318  -0.412   0.000  0.00  0.00    +0.000 OA
ATOM     33  O   UNL     1      -2.968  -0.412   0.000  0.00  0.00    +0.000 OA
ATOM     34  O   UNL     1      -2.143   0.412   0.000  0.00  0.00    +0.000 OA
ATOM     35  S   UNL     1      -2.143  -0.412   0.000  0.00  0.00    +0.000 S 
ENDBRANCH  31  35
ENDBRANCH  24  31
ENDBRANCH  20  25
ENDBRANCH   4  20
TORSDOF 10
