REMARK  Name = 
REMARK  4 active torsions:
REMARK  status: ('A' for Active; 'I' for Inactive)
REMARK    1  A    between atoms: C_7  and  C_13
REMARK    2  A    between atoms: C_8  and  C_14
REMARK    3  A    between atoms: C_15  and  C_17
REMARK    4  A    between atoms: C_16  and  C_17
REMARK                            x       y       z     vdW  Elec       q    Type
REMARK                         _______ _______ _______ _____ _____    ______ ____
ROOT
ATOM      1  C   UNL     1       0.470   0.412   0.000  0.00  0.00    +0.000 C 
ATOM      2  O   UNL     1       0.470  -0.412   0.000  0.00  0.00    +0.000 OA
ATOM      3  O   UNL     1       0.470   1.238   0.000  0.00  0.00    +0.000 OA
ENDROOT
BRANCH   1  10
ATOM      4  C   UNL     1      -3.054   0.000   0.000  0.00  0.00    +0.000 A 
ATOM      5  C   UNL     1      -2.339  -0.412   0.000  0.00  0.00    +0.000 A 
ATOM      6  C   UNL     1      -2.339   1.238   0.000  0.00  0.00    +0.000 A 
ATOM      7  C   UNL     1      -3.054   0.825   0.000  0.00  0.00    +0.000 A 
ATOM      8  C   UNL     1      -1.625   0.000   0.000  0.00  0.00    +0.000 A 
ATOM      9  C   UNL     1      -1.625   0.825   0.000  0.00  0.00    +0.000 A 
ATOM     10  C   UNL     1      -0.355   0.412   0.000  0.00  0.00    +0.000 A 
ATOM     11  N   UNL     1      -0.840  -0.255   0.000  0.00  0.00    +0.000 NA
ATOM     12  N   UNL     1      -0.840   1.080   0.000  0.00  0.00    +0.000 NA
BRANCH   7  13
ATOM     13  C   UNL     1      -3.768   1.238   0.000  0.00  0.00    +0.000 C 
ATOM     14  N   UNL     1      -4.482   0.825   0.000  0.00  0.00    +0.000 NA
ATOM     15  N   UNL     1      -3.768   2.062   0.000  0.00  0.00    +0.000 NA
ENDBRANCH   7  13
ENDBRANCH   1  10
BRANCH   1  22
ATOM     16  C   UNL     1       3.993   0.825   0.000  0.00  0.00    +0.000 A 
ATOM     17  C   UNL     1       3.279   1.238   0.000  0.00  0.00    +0.000 A 
ATOM     18  C   UNL     1       3.279  -0.412   0.000  0.00  0.00    +0.000 A 
ATOM     19  C   UNL     1       3.993   0.000   0.000  0.00  0.00    +0.000 A 
ATOM     20  C   UNL     1       2.564   0.825   0.000  0.00  0.00    +0.000 A 
ATOM     21  C   UNL     1       2.564   0.000   0.000  0.00  0.00    +0.000 A 
ATOM     22  C   UNL     1       1.295   0.412   0.000  0.00  0.00    +0.000 A 
ATOM     23  N   UNL     1       1.780   1.080   0.000  0.00  0.00    +0.000 NA
ATOM     24  N   UNL     1       1.780  -0.255   0.000  0.00  0.00    +0.000 NA
BRANCH  19  25
ATOM     25  C   UNL     1       4.708  -0.412   0.000  0.00  0.00    +0.000 C 
ATOM     26  N   UNL     1       5.422   0.000   0.000  0.00  0.00    +0.000 NA
ATOM     27  N   UNL     1       4.708  -1.238   0.000  0.00  0.00    +0.000 NA
ENDBRANCH  19  25
ENDBRANCH   1  22
TORSDOF 4
