REMARK  Name = 
REMARK  16 active torsions:
REMARK  status: ('A' for Active; 'I' for Inactive)
REMARK    1  A    between atoms: C_11  and  C_27
REMARK    2  A    between atoms: C_11  and  O_62
REMARK    3  A    between atoms: C_12  and  C_36
REMARK    4  A    between atoms: C_13  and  C_37
REMARK    5  A    between atoms: C_14  and  C_38
REMARK    6  A    between atoms: C_15  and  C_39
REMARK    7  A    between atoms: C_16  and  C_40
REMARK    8  A    between atoms: C_33  and  O_64
REMARK    9  A    between atoms: C_34  and  O_65
REMARK   10  A    between atoms: C_35  and  O_66
REMARK   11  A    between atoms: C_36  and  O_62
REMARK   12  A    between atoms: C_37  and  O_64
REMARK   13  A    between atoms: C_38  and  O_65
REMARK   14  A    between atoms: C_39  and  O_66
REMARK   15  A    between atoms: C_40  and  O_67
REMARK   16  A    between atoms: C_41  and  O_67
REMARK                            x       y       z     vdW  Elec       q    Type
REMARK                         _______ _______ _______ _____ _____    ______ ____
ROOT
ATOM      1  C   UNL     1      -5.001   3.712   0.000  0.00  0.00    +0.000 C 
ATOM      2  C   UNL     1      -5.001   4.537   0.000  0.00  0.00    +0.000 C 
ATOM      3  C   UNL     1      -5.716   4.950   0.000  0.00  0.00    +0.000 C 
ATOM      4  C   UNL     1      -6.430   4.537   0.000  0.00  0.00    +0.000 C 
ATOM      5  C   UNL     1      -6.430   3.712   0.000  0.00  0.00    +0.000 C 
ATOM      6  O   UNL     1      -5.716   3.300   0.000  0.00  0.00    +0.000 OA
ENDROOT
BRANCH   1   7
ATOM      7  C   UNL     1      -4.287   3.300   0.000  0.00  0.00    +0.000 C 
BRANCH   7   8
ATOM      8  O   UNL     1      -4.287   2.475   0.000  0.00  0.00    +0.000 OA
BRANCH   8   9
ATOM      9  C   UNL     1      -3.572   2.062   0.000  0.00  0.00    +0.000 C 
ATOM     10  O   UNL     1      -2.858   2.475   0.000  0.00  0.00    +0.000 OA
BRANCH   9  13
ATOM     11  C   UNL     1      -2.858   0.825   0.000  0.00  0.00    +0.000 A 
ATOM     12  C   UNL     1      -4.287   0.825   0.000  0.00  0.00    +0.000 A 
ATOM     13  C   UNL     1      -3.572   1.238   0.000  0.00  0.00    +0.000 A 
ATOM     14  C   UNL     1      -2.858   0.000   0.000  0.00  0.00    +0.000 A 
ATOM     15  C   UNL     1      -4.287   0.000   0.000  0.00  0.00    +0.000 A 
ATOM     16  C   UNL     1      -3.572  -0.412   0.000  0.00  0.00    +0.000 A 
ATOM     17  O   UNL     1      -2.143  -0.412   0.000  0.00  0.00    +0.000 OA
ATOM     18  O   UNL     1      -5.001  -0.412   0.000  0.00  0.00    +0.000 OA
ATOM     19  O   UNL     1      -3.572  -1.238   0.000  0.00  0.00    +0.000 OA
ENDBRANCH   9  13
ENDBRANCH   8   9
ENDBRANCH   7   8
ENDBRANCH   1   7
BRANCH   2  20
ATOM     20  O   UNL     1      -4.287   4.950   0.000  0.00  0.00    +0.000 OA
BRANCH  20  21
ATOM     21  C   UNL     1      -4.287   5.775   0.000  0.00  0.00    +0.000 C 
ATOM     22  O   UNL     1      -5.001   6.188   0.000  0.00  0.00    +0.000 OA
BRANCH  21  25
ATOM     23  C   UNL     1      -3.572   7.013   0.000  0.00  0.00    +0.000 A 
ATOM     24  C   UNL     1      -2.858   5.775   0.000  0.00  0.00    +0.000 A 
ATOM     25  C   UNL     1      -3.572   6.188   0.000  0.00  0.00    +0.000 A 
ATOM     26  C   UNL     1      -2.858   7.425   0.000  0.00  0.00    +0.000 A 
ATOM     27  C   UNL     1      -2.143   6.188   0.000  0.00  0.00    +0.000 A 
ATOM     28  C   UNL     1      -2.143   7.013   0.000  0.00  0.00    +0.000 A 
ATOM     29  O   UNL     1      -2.858   8.250   0.000  0.00  0.00    +0.000 OA
ATOM     30  O   UNL     1      -1.429   5.775   0.000  0.00  0.00    +0.000 OA
ATOM     31  O   UNL     1      -1.429   7.425   0.000  0.00  0.00    +0.000 OA
ENDBRANCH  21  25
ENDBRANCH  20  21
ENDBRANCH   2  20
BRANCH   3  32
ATOM     32  O   UNL     1      -5.716   5.775   0.000  0.00  0.00    +0.000 OA
BRANCH  32  33
ATOM     33  C   UNL     1      -6.430   6.188   0.000  0.00  0.00    +0.000 C 
ATOM     34  O   UNL     1      -7.145   5.775   0.000  0.00  0.00    +0.000 OA
BRANCH  33  37
ATOM     35  C   UNL     1      -7.145   7.425   0.000  0.00  0.00    +0.000 A 
ATOM     36  C   UNL     1      -5.716   7.425   0.000  0.00  0.00    +0.000 A 
ATOM     37  C   UNL     1      -6.430   7.013   0.000  0.00  0.00    +0.000 A 
ATOM     38  C   UNL     1      -7.145   8.250   0.000  0.00  0.00    +0.000 A 
ATOM     39  C   UNL     1      -5.716   8.250   0.000  0.00  0.00    +0.000 A 
ATOM     40  C   UNL     1      -6.430   8.662   0.000  0.00  0.00    +0.000 A 
ATOM     41  O   UNL     1      -7.859   8.662   0.000  0.00  0.00    +0.000 OA
ATOM     42  O   UNL     1      -5.001   8.662   0.000  0.00  0.00    +0.000 OA
ATOM     43  O   UNL     1      -6.430   9.488   0.000  0.00  0.00    +0.000 OA
ENDBRANCH  33  37
ENDBRANCH  32  33
ENDBRANCH   3  32
BRANCH   4  44
ATOM     44  O   UNL     1      -7.145   4.950   0.000  0.00  0.00    +0.000 OA
BRANCH  44  45
ATOM     45  C   UNL     1      -7.859   4.537   0.000  0.00  0.00    +0.000 C 
ATOM     46  O   UNL     1      -7.859   3.712   0.000  0.00  0.00    +0.000 OA
BRANCH  45  49
ATOM     47  C   UNL     1      -9.288   4.537   0.000  0.00  0.00    +0.000 A 
ATOM     48  C   UNL     1      -8.574   5.775   0.000  0.00  0.00    +0.000 A 
ATOM     49  C   UNL     1      -8.574   4.950   0.000  0.00  0.00    +0.000 A 
ATOM     50  C   UNL     1     -10.003   4.950   0.000  0.00  0.00    +0.000 A 
ATOM     51  C   UNL     1      -9.288   6.188   0.000  0.00  0.00    +0.000 A 
ATOM     52  C   UNL     1     -10.003   5.775   0.000  0.00  0.00    +0.000 A 
ATOM     53  O   UNL     1     -10.717   4.537   0.000  0.00  0.00    +0.000 OA
ATOM     54  O   UNL     1      -9.288   7.013   0.000  0.00  0.00    +0.000 OA
ATOM     55  O   UNL     1     -10.717   6.188   0.000  0.00  0.00    +0.000 OA
ENDBRANCH  45  49
ENDBRANCH  44  45
ENDBRANCH   4  44
BRANCH   5  56
ATOM     56  O   UNL     1      -7.145   3.300   0.000  0.00  0.00    +0.000 OA
BRANCH  56  57
ATOM     57  C   UNL     1      -7.145   2.475   0.000  0.00  0.00    +0.000 C 
ATOM     58  O   UNL     1      -6.430   2.062   0.000  0.00  0.00    +0.000 OA
BRANCH  57  61
ATOM     59  C   UNL     1      -7.859   1.238   0.000  0.00  0.00    +0.000 A 
ATOM     60  C   UNL     1      -8.574   2.475   0.000  0.00  0.00    +0.000 A 
ATOM     61  C   UNL     1      -7.859   2.062   0.000  0.00  0.00    +0.000 A 
ATOM     62  C   UNL     1      -8.574   0.825   0.000  0.00  0.00    +0.000 A 
ATOM     63  C   UNL     1      -9.288   2.062   0.000  0.00  0.00    +0.000 A 
ATOM     64  C   UNL     1      -9.288   1.238   0.000  0.00  0.00    +0.000 A 
ATOM     65  O   UNL     1      -8.574   0.000   0.000  0.00  0.00    +0.000 OA
ATOM     66  O   UNL     1     -10.003   2.475   0.000  0.00  0.00    +0.000 OA
ATOM     67  O   UNL     1     -10.003   0.825   0.000  0.00  0.00    +0.000 OA
ENDBRANCH  57  61
ENDBRANCH  56  57
ENDBRANCH   5  56
TORSDOF 16
