REMARK  Name = 
REMARK  8 active torsions:
REMARK  status: ('A' for Active; 'I' for Inactive)
REMARK    1  A    between atoms: C_1  and  C_5
REMARK    2  A    between atoms: C_1  and  O_26
REMARK    3  A    between atoms: C_4  and  P_29
REMARK    4  A    between atoms: C_4  and  P_30
REMARK    5  A    between atoms: C_11  and  N_16
REMARK    6  A    between atoms: O_26  and  P_31
REMARK    7  A    between atoms: O_28  and  P_30
REMARK    8  A    between atoms: O_28  and  P_31
REMARK                            x       y       z     vdW  Elec       q    Type
REMARK                         _______ _______ _______ _____ _____    ______ ____
ROOT
ATOM      1  C   UNL     1       0.099  -1.009   0.000  0.00  0.00    +0.000 C 
ATOM      2  C   UNL     1       0.884  -1.264   0.000  0.00  0.00    +0.000 C 
ATOM      3  C   UNL     1       1.369  -0.597   0.000  0.00  0.00    +0.000 C 
ATOM      4  C   UNL     1       0.884   0.071   0.000  0.00  0.00    +0.000 C 
ATOM      5  O   UNL     1       1.139  -2.049   0.000  0.00  0.00    +0.000 OA
ATOM      6  O   UNL     1       2.194  -0.597   0.000  0.00  0.00    +0.000 OA
ATOM      7  O   UNL     1       0.099  -0.184   0.000  0.00  0.00    +0.000 OA
ENDROOT
BRANCH   4  17
ATOM      8  C   UNL     1       3.352   1.110   0.000  0.00  0.00    +0.000 A 
ATOM      9  C   UNL     1       0.654   1.523   0.000  0.00  0.00    +0.000 A 
ATOM     10  C   UNL     1       1.923   1.935   0.000  0.00  0.00    +0.000 A 
ATOM     11  C   UNL     1       2.638   2.348   0.000  0.00  0.00    +0.000 A 
ATOM     12  C   UNL     1       1.923   1.110   0.000  0.00  0.00    +0.000 A 
ATOM     13  N   UNL     1       2.638   3.173   0.000  0.00  0.00    +0.000 NA
ATOM     14  N   UNL     1       3.352   1.935   0.000  0.00  0.00    +0.000 NA
ATOM     15  N   UNL     1       2.638   0.698   0.000  0.00  0.00    +0.000 NA
ATOM     16  N   UNL     1       1.139   2.190   0.000  0.00  0.00    +0.000 NA
ATOM     17  N   UNL     1       1.139   0.856   0.000  0.00  0.00    +0.000 N 
ENDBRANCH   4  17
BRANCH   1  18
ATOM     18  C   UNL     1      -0.568  -1.494   0.000  0.00  0.00    +0.000 C 
BRANCH  18  19
ATOM     19  O   UNL     1      -1.322  -1.158   0.000  0.00  0.00    +0.000 OA
BRANCH  19  22
ATOM     20  O   UNL     1      -2.474  -0.976   0.000  0.00  0.00    +0.000 OA
ATOM     21  O   UNL     1      -1.504  -2.311   0.000  0.00  0.00    +0.000 OA
ATOM     22  P   UNL     1      -1.989  -1.643   0.000  0.00  0.00    +0.000 P 
BRANCH  22  23
ATOM     23  O   UNL     1      -2.657  -2.128   0.000  0.00  0.00    +0.000 OA
BRANCH  23  26
ATOM     24  O   UNL     1      -3.075  -1.039   0.000  0.00  0.00    +0.000 OA
ATOM     25  O   UNL     1      -3.746  -2.546   0.000  0.00  0.00    +0.000 OA
ATOM     26  P   UNL     1      -3.410  -1.793   0.000  0.00  0.00    +0.000 P 
BRANCH  26  27
ATOM     27  C   UNL     1      -4.164  -1.457   0.000  0.00  0.00    +0.000 C 
BRANCH  27  31
ATOM     28  O   UNL     1      -5.499  -2.427   0.000  0.00  0.00    +0.000 OA
ATOM     29  O   UNL     1      -5.316  -1.275   0.000  0.00  0.00    +0.000 OA
ATOM     30  O   UNL     1      -4.347  -2.610   0.000  0.00  0.00    +0.000 OA
ATOM     31  P   UNL     1      -4.832  -1.942   0.000  0.00  0.00    +0.000 P 
ENDBRANCH  27  31
ENDBRANCH  26  27
ENDBRANCH  23  26
ENDBRANCH  22  23
ENDBRANCH  19  22
ENDBRANCH  18  19
ENDBRANCH   1  18
TORSDOF 8
