REMARK  Name = 
REMARK  0 active torsions:
REMARK  status: ('A' for Active; 'I' for Inactive)
REMARK                            x       y       z     vdW  Elec       q    Type
REMARK                         _______ _______ _______ _____ _____    ______ ____
ROOT
ATOM      1  C   UNL     1       1.235   0.629   0.000  0.00  0.00    +0.000 A 
ATOM      2  C   UNL     1      -0.100   0.629   0.000  0.00  0.00    +0.000 A 
ATOM      3  C   UNL     1       0.568   1.114   0.000  0.00  0.00    +0.000 A 
ATOM      4  I   UNL     1       0.568   1.939   0.000  0.00  0.00    +0.000 I 
ATOM      5  N   UNL     1       0.980  -0.155   0.000  0.00  0.00    +0.000 NA
ATOM      6  N   UNL     1       0.155  -0.155   0.000  0.00  0.00    +0.000 NA
ENDROOT
TORSDOF 0
