REMARK  Name = 
REMARK  5 active torsions:
REMARK  status: ('A' for Active; 'I' for Inactive)
REMARK    1  A    between atoms: S_2  and  C_5
REMARK    2  A    between atoms: C_7  and  C_23
REMARK    3  A    between atoms: C_9  and  N_10
REMARK    4  A    between atoms: C_15  and  O_16
REMARK    5  A    between atoms: O_16  and  C_17
REMARK                            x       y       z     vdW  Elec       q    Type
REMARK                         _______ _______ _______ _____ _____    ______ ____
ROOT
ATOM      1  C   UNL     1       2.037  -0.474   0.000  0.00  0.00    +0.000 A 
ATOM      2  C   UNL     1       1.322  -0.062   0.000  0.00  0.00    +0.000 A 
ATOM      3  C   UNL     1       0.608  -0.474   0.000  0.00  0.00    +0.000 A 
ATOM      4  C   UNL     1       0.608  -1.299   0.000  0.00  0.00    +0.000 A 
ATOM      5  C   UNL     1       1.322  -1.712   0.000  0.00  0.00    +0.000 A 
ATOM      6  C   UNL     1       2.037  -1.299   0.000  0.00  0.00    +0.000 A 
ENDROOT
BRANCH   5   7
ATOM      7  N   UNL     1       1.322  -2.537   0.000  0.00  0.00    +0.000 N 
ATOM      8  C   UNL     1       1.990  -3.022   0.000  0.00  0.00    +0.000 C 
ATOM      9  C   UNL     1       1.735  -3.806   0.000  0.00  0.00    +0.000 C 
ATOM     10  C   UNL     1       0.910  -3.806   0.000  0.00  0.00    +0.000 C 
ATOM     11  C   UNL     1       0.655  -3.022   0.000  0.00  0.00    +0.000 C 
ENDBRANCH   5   7
BRANCH   1  13
ATOM     12  N   UNL     1       3.466   0.351   0.000  0.00  0.00    +0.000 NA
ATOM     13  S   UNL     1       2.751  -0.062   0.000  0.00  0.00    +0.000 S 
ATOM     14  O   UNL     1       3.164  -0.776   0.000  0.00  0.00    +0.000 OA
ATOM     15  O   UNL     1       2.339   0.653   0.000  0.00  0.00    +0.000 OA
ENDBRANCH   1  13
BRANCH   3  16
ATOM     16  C   UNL     1      -0.107  -0.062   0.000  0.00  0.00    +0.000 C 
ATOM     17  O   UNL     1      -0.107   0.763   0.000  0.00  0.00    +0.000 OA
ATOM     18  O   UNL     1      -0.821  -0.474   0.000  0.00  0.00    +0.000 OA
ENDBRANCH   3  16
BRANCH   6  19
ATOM     19  O   UNL     1       2.751  -1.712   0.000  0.00  0.00    +0.000 OA
BRANCH  19  20
ATOM     20  C   UNL     1       3.466  -1.299   0.000  0.00  0.00    +0.000 A 
ATOM     21  C   UNL     1       3.466  -0.474   0.000  0.00  0.00    +0.000 A 
ATOM     22  C   UNL     1       4.180  -0.062   0.000  0.00  0.00    +0.000 A 
ATOM     23  C   UNL     1       4.895  -0.474   0.000  0.00  0.00    +0.000 A 
ATOM     24  C   UNL     1       4.895  -1.299   0.000  0.00  0.00    +0.000 A 
ATOM     25  C   UNL     1       4.180  -1.712   0.000  0.00  0.00    +0.000 A 
ENDBRANCH  19  20
ENDBRANCH   6  19
TORSDOF 5
