REMARK  Name = 
REMARK  16 active torsions:
REMARK  status: ('A' for Active; 'I' for Inactive)
REMARK    1  A    between atoms: O_5  and  C_34
REMARK    2  A    between atoms: O_5  and  C_41
REMARK    3  A    between atoms: N_10  and  C_16
REMARK    4  A    between atoms: N_11  and  C_22
REMARK    5  A    between atoms: C_13  and  C_14
REMARK    6  A    between atoms: C_14  and  C_16
REMARK    7  A    between atoms: C_16  and  C_26
REMARK    8  A    between atoms: C_19  and  C_20
REMARK    9  A    between atoms: C_19  and  C_21
REMARK   10  A    between atoms: C_19  and  C_23
REMARK   11  A    between atoms: C_20  and  C_25
REMARK   12  A    between atoms: C_22  and  C_24
REMARK   13  A    between atoms: C_22  and  C_25
REMARK   14  A    between atoms: C_23  and  C_27
REMARK   15  A    between atoms: C_30  and  C_34
REMARK   16  A    between atoms: C_33  and  C_37
REMARK                            x       y       z     vdW  Elec       q    Type
REMARK                         _______ _______ _______ _____ _____    ______ ____
ROOT
ATOM      1  C   UNL     1       5.222  -0.635   0.000  0.00  0.00    +0.000 C 
ENDROOT
BRANCH   1   4
ATOM      2  O   UNL     1       5.937   0.602   0.000  0.00  0.00    +0.000 OA
ATOM      3  N   UNL     1       4.508   0.602   0.000  0.00  0.00    +0.000 NA
ATOM      4  C   UNL     1       5.222   0.190   0.000  0.00  0.00    +0.000 C 
BRANCH   3   5
ATOM      5  C   UNL     1       4.508   1.427   0.000  0.00  0.00    +0.000 C 
BRANCH   5   6
ATOM      6  C   UNL     1       3.793   1.840   0.000  0.00  0.00    +0.000 C 
ATOM      7  C   UNL     1       3.079   1.427   0.000  0.00  0.00    +0.000 C 
BRANCH   7   9
ATOM      8  O   UNL     1       1.650   1.427   0.000  0.00  0.00    +0.000 OA
ATOM      9  C   UNL     1       2.365   1.840   0.000  0.00  0.00    +0.000 C 
BRANCH   9  10
ATOM     10  O   UNL     1       2.365   2.665   0.000  0.00  0.00    +0.000 OA
BRANCH  10  11
ATOM     11  C   UNL     1       1.650   3.077   0.000  0.00  0.00    +0.000 C 
ATOM     12  C   UNL     1       1.650   3.902   0.000  0.00  0.00    +0.000 C 
ENDBRANCH  10  11
ENDBRANCH   9  10
ENDBRANCH   7   9
ENDBRANCH   5   6
BRANCH   5  13
ATOM     13  C   UNL     1       5.222   1.840   0.000  0.00  0.00    +0.000 C 
BRANCH  13  16
ATOM     14  O   UNL     1       6.675   2.895   0.000  0.00  0.00    +0.000 OA
ATOM     15  N   UNL     1       5.635   3.934   0.000  0.00  0.00    +0.000 NA
ATOM     16  C   UNL     1       5.222   2.665   0.000  0.00  0.00    +0.000 C 
ATOM     17  C   UNL     1       4.555   3.150   0.000  0.00  0.00    +0.000 C 
ATOM     18  C   UNL     1       4.810   3.934   0.000  0.00  0.00    +0.000 C 
ATOM     19  C   UNL     1       5.890   3.150   0.000  0.00  0.00    +0.000 C 
ENDBRANCH  13  16
ENDBRANCH   5  13
ENDBRANCH   3   5
ENDBRANCH   1   4
BRANCH   1  20
ATOM     20  C   UNL     1       5.937  -1.048   0.000  0.00  0.00    +0.000 C 
BRANCH  20  22
ATOM     21  O   UNL     1       6.652   0.190   0.000  0.00  0.00    +0.000 OA
ATOM     22  C   UNL     1       6.652  -0.635   0.000  0.00  0.00    +0.000 C 
BRANCH  22  23
ATOM     23  C   UNL     1       7.366  -1.048   0.000  0.00  0.00    +0.000 C 
BRANCH  23  24
ATOM     24  C   UNL     1       7.366  -1.873   0.000  0.00  0.00    +0.000 C 
ATOM     25  C   UNL     1       6.652  -2.285   0.000  0.00  0.00    +0.000 C 
ATOM     26  C   UNL     1       8.080  -2.285   0.000  0.00  0.00    +0.000 C 
ENDBRANCH  23  24
BRANCH  23  28
ATOM     27  O   UNL     1       8.795  -1.873   0.000  0.00  0.00    +0.000 OA
ATOM     28  N   UNL     1       8.080  -0.635   0.000  0.00  0.00    +0.000 NA
ATOM     29  C   UNL     1       8.795  -1.048   0.000  0.00  0.00    +0.000 C 
BRANCH  29  32
ATOM     30  O   UNL     1      10.815  -0.358   0.000  0.00  0.00    +0.000 OA
ATOM     31  N   UNL     1      10.263  -0.971   0.000  0.00  0.00    +0.000 NA
ATOM     32  C   UNL     1       9.509  -0.635   0.000  0.00  0.00    +0.000 A 
ATOM     33  C   UNL     1       9.596   0.185   0.000  0.00  0.00    +0.000 A 
ATOM     34  C   UNL     1      10.403   0.357   0.000  0.00  0.00    +0.000 A 
ATOM     35  C   UNL     1      10.738   1.110   0.000  0.00  0.00    +0.000 C 
ENDBRANCH  29  32
ENDBRANCH  23  28
ENDBRANCH  22  23
ENDBRANCH  20  22
ENDBRANCH   1  20
BRANCH   1  36
ATOM     36  C   UNL     1       4.508  -1.048   0.000  0.00  0.00    +0.000 C 
BRANCH  36  38
ATOM     37  F   UNL     1       4.508  -4.348   0.000  0.00  0.00    +0.000 F 
ATOM     38  C   UNL     1       4.508  -1.873   0.000  0.00  0.00    +0.000 A 
ATOM     39  C   UNL     1       5.222  -2.285   0.000  0.00  0.00    +0.000 A 
ATOM     40  C   UNL     1       3.793  -2.285   0.000  0.00  0.00    +0.000 A 
ATOM     41  C   UNL     1       5.222  -3.111   0.000  0.00  0.00    +0.000 A 
ATOM     42  C   UNL     1       3.793  -3.111   0.000  0.00  0.00    +0.000 A 
ATOM     43  C   UNL     1       4.508  -3.523   0.000  0.00  0.00    +0.000 A 
ENDBRANCH  36  38
ENDBRANCH   1  36
TORSDOF 16
