REMARK  Name = 
REMARK  3 active torsions:
REMARK  status: ('A' for Active; 'I' for Inactive)
REMARK    1  A    between atoms: CG_2  and  CB_4
REMARK    2  A    between atoms: CB_4  and  CA_5
REMARK    3  A    between atoms: CA_5  and  C_7
REMARK                            x       y       z     vdW  Elec       q    Type
REMARK                         _______ _______ _______ _____ _____    ______ ____
ROOT
ATOM      1  CA  LEU A   1       1.952   1.127   0.000  0.00  0.00    +0.000 C 
ATOM      2  N   LEU A   1       1.952   1.952   0.000  0.00  0.00    +0.000 NA
ENDROOT
BRANCH   1   3
ATOM      3  C   LEU A   1       2.666   0.715   0.000  0.00  0.00    +0.000 C 
ATOM      4  O   LEU A   1       3.381   1.127   0.000  0.00  0.00    +0.000 OA
ATOM      5  OXT LEU A   1       2.666  -0.111   0.000  0.00  0.00    +0.000 OA
ENDBRANCH   1   3
BRANCH   1   6
ATOM      6  CB  LEU A   1       1.238   0.715   0.000  0.00  0.00    +0.000 C 
BRANCH   6   8
ATOM      7  CD1 LEU A   1      -0.191   0.715   0.000  0.00  0.00    +0.000 C 
ATOM      8  CG  LEU A   1       0.523   1.127   0.000  0.00  0.00    +0.000 C 
ATOM      9  CD2 LEU A   1       0.523   1.952   0.000  0.00  0.00    +0.000 C 
ENDBRANCH   6   8
ENDBRANCH   1   6
TORSDOF 3
