REMARK  Name = 
REMARK  0 active torsions:
REMARK  status: ('A' for Active; 'I' for Inactive)
REMARK                            x       y       z     vdW  Elec       q    Type
REMARK                         _______ _______ _______ _____ _____    ______ ____
ROOT
ATOM      1 NA   UNL     1       1.114  -2.022   0.000  0.00  0.00    +0.000 Na
ENDROOT
TORSDOF 0
REMARK  Name = 
REMARK  0 active torsions:
REMARK  status: ('A' for Active; 'I' for Inactive)
REMARK                            x       y       z     vdW  Elec       q    Type
REMARK                         _______ _______ _______ _____ _____    ______ ____
ROOT
ATOM      1  O   UNL     1      -1.031   0.372   0.000  0.00  0.00    +0.000 OA
ATOM      2  O   UNL     1      -1.857   1.196   0.000  0.00  0.00    +0.000 OA
ATOM      3  O   UNL     1      -1.031   2.022   0.000  0.00  0.00    +0.000 OA
ATOM      4  S   UNL     1      -1.031   1.196   0.000  0.00  0.00    +0.000 S 
ATOM      5  O   UNL     1      -0.207   1.196   0.000  0.00  0.00    +0.000 OA
ENDROOT
TORSDOF 0
REMARK  Name = 
REMARK  0 active torsions:
REMARK  status: ('A' for Active; 'I' for Inactive)
REMARK                            x       y       z     vdW  Elec       q    Type
REMARK                         _______ _______ _______ _____ _____    ______ ____
ROOT
ATOM      1 NA   UNL     1       1.857  -0.536   0.000  0.00  0.00    +0.000 Na
ENDROOT
TORSDOF 0
