REMARK  Name = 
REMARK  1 active torsions:
REMARK  status: ('A' for Active; 'I' for Inactive)
REMARK    1  A    between atoms: C_2  and  C_15
REMARK                            x       y       z     vdW  Elec       q    Type
REMARK                         _______ _______ _______ _____ _____    ______ ____
ROOT
ATOM      1  C   UNL     1       0.432  -2.013   0.000  0.00  0.00    +0.000 C 
ATOM      2  C   UNL     1       0.715  -1.238   0.000  0.00  0.00    +0.000 C 
ATOM      3  O   UNL     1       0.715  -0.412   0.000  0.00  0.00    +0.000 OA
ATOM      4  C   UNL     1       1.429   0.000   0.000  0.00  0.00    +0.000 C 
ATOM      5  C   UNL     1       2.143  -0.412   0.000  0.00  0.00    +0.000 C 
ATOM      6  O   UNL     1       2.858   0.000   0.000  0.00  0.00    +0.000 OA
ATOM      7  C   UNL     1       3.572  -0.412   0.000  0.00  0.00    +0.000 C 
ATOM      8  O   UNL     1       4.287   0.000   0.000  0.00  0.00    +0.000 OA
ATOM      9  C   UNL     1       3.572  -1.238   0.000  0.00  0.00    +0.000 C 
ATOM     10  O   UNL     1       4.287  -1.650   0.000  0.00  0.00    +0.000 OA
ATOM     11  C   UNL     1       2.858  -1.650   0.000  0.00  0.00    +0.000 C 
ATOM     12  O   UNL     1       2.858  -2.475   0.000  0.00  0.00    +0.000 OA
ATOM     13  C   UNL     1       2.143  -1.238   0.000  0.00  0.00    +0.000 C 
ATOM     14  O   UNL     1       1.429  -1.650   0.000  0.00  0.00    +0.000 OA
ENDROOT
BRANCH   2  15
ATOM     15  C   UNL     1      -0.098  -1.094   0.000  0.00  0.00    +0.000 C 
ATOM     16  O   UNL     1      -0.628  -1.726   0.000  0.00  0.00    +0.000 OA
ATOM     17  O   UNL     1      -0.380  -0.319   0.000  0.00  0.00    +0.000 OA
ENDBRANCH   2  15
TORSDOF 1
