REMARK  Name = 
REMARK  10 active torsions:
REMARK  status: ('A' for Active; 'I' for Inactive)
REMARK    1  A    between atoms: C_7  and  C_8
REMARK    2  A    between atoms: C_8  and  C_9
REMARK    3  A    between atoms: C_9  and  C_10
REMARK    4  A    between atoms: C_10  and  C_11
REMARK    5  A    between atoms: C_11  and  C_12
REMARK    6  A    between atoms: C_12  and  C_13
REMARK    7  A    between atoms: C_13  and  C_14
REMARK    8  A    between atoms: C_14  and  C_15
REMARK    9  A    between atoms: C_15  and  C_16
REMARK   10  A    between atoms: N_18  and  C_19
REMARK                            x       y       z     vdW  Elec       q    Type
REMARK                         _______ _______ _______ _____ _____    ______ ____
ROOT
ATOM      1  C   UNL     1       2.059  -2.516   0.000  0.00  0.00    +0.000 C 
ATOM      2  C   UNL     1       1.724  -1.762   0.000  0.00  0.00    +0.000 C 
ATOM      3  C   UNL     1       0.903  -1.676   0.000  0.00  0.00    +0.000 C 
ATOM      4  C   UNL     1       0.568  -0.922   0.000  0.00  0.00    +0.000 C 
ATOM      5  C   UNL     1      -0.217  -0.667   0.000  0.00  0.00    +0.000 C 
ATOM      6  C   UNL     1      -0.931  -1.080   0.000  0.00  0.00    +0.000 C 
ATOM      7  C   UNL     1      -1.646  -0.667   0.000  0.00  0.00    +0.000 C 
ATOM      8  C   UNL     1      -1.646   0.158   0.000  0.00  0.00    +0.000 C 
ATOM      9  C   UNL     1      -0.931   0.570   0.000  0.00  0.00    +0.000 C 
ATOM     10  N   UNL     1      -0.217   0.158   0.000  0.00  0.00    +0.000 N 
ATOM     11 RU   UNL     1       0.785   1.080   0.000  0.00  0.00    +0.000 Ru
ATOM     12  N   UNL     1       1.807   1.980   0.000  0.00  0.00    +0.000 N 
ATOM     13  C   UNL     1       1.471   2.733   0.000  0.00  0.00    +0.000 C 
ATOM     14  C   UNL     1       1.956   3.401   0.000  0.00  0.00    +0.000 C 
ATOM     15  C   UNL     1       2.776   3.314   0.000  0.00  0.00    +0.000 C 
ATOM     16  C   UNL     1       3.112   2.561   0.000  0.00  0.00    +0.000 C 
ATOM     17  C   UNL     1       2.627   1.893   0.000  0.00  0.00    +0.000 C 
ATOM     18  C   UNL     1       2.799   1.086   0.000  0.00  0.00    +0.000 C 
ATOM     19  C   UNL     1       3.513   0.674   0.000  0.00  0.00    +0.000 C 
ATOM     20  C   UNL     1       3.513  -0.151   0.000  0.00  0.00    +0.000 C 
ATOM     21  C   UNL     1       2.799  -0.564   0.000  0.00  0.00    +0.000 C 
ATOM     22  C   UNL     1       2.084  -0.151   0.000  0.00  0.00    +0.000 C 
ATOM     23  N   UNL     1       2.084   0.674   0.000  0.00  0.00    +0.000 N 
ATOM     24  N   UNL     1      -0.505   1.515   0.000  0.00  0.00    +0.000 N 
ATOM     25  C   UNL     1      -0.990   0.848   0.000  0.00  0.00    +0.000 C 
ATOM     26  C   UNL     1      -1.811   0.934   0.000  0.00  0.00    +0.000 C 
ATOM     27  C   UNL     1      -2.146   1.688   0.000  0.00  0.00    +0.000 C 
ATOM     28  C   UNL     1      -1.661   2.355   0.000  0.00  0.00    +0.000 C 
ATOM     29  C   UNL     1      -0.841   2.269   0.000  0.00  0.00    +0.000 C 
ATOM     30  C   UNL     1      -0.228   2.821   0.000  0.00  0.00    +0.000 C 
ATOM     31  C   UNL     1      -0.228   3.646   0.000  0.00  0.00    +0.000 C 
ATOM     32  C   UNL     1       0.487   4.058   0.000  0.00  0.00    +0.000 C 
ATOM     33  C   UNL     1       1.201   3.646   0.000  0.00  0.00    +0.000 C 
ATOM     34  C   UNL     1       1.201   2.821   0.000  0.00  0.00    +0.000 C 
ATOM     35  N   UNL     1       0.487   2.408   0.000  0.00  0.00    +0.000 N 
ATOM     36  N   UNL     1       1.053  -0.255   0.000  0.00  0.00    +0.000 N 
ATOM     37  C   UNL     1       1.873  -0.341   0.000  0.00  0.00    +0.000 C 
ATOM     38  C   UNL     1       2.209  -1.095   0.000  0.00  0.00    +0.000 C 
ENDROOT
BRANCH   7  39
ATOM     39  C   UNL     1      -2.360  -1.080   0.000  0.00  0.00    +0.000 C 
BRANCH  39  40
ATOM     40  C   UNL     1      -3.075  -0.667   0.000  0.00  0.00    +0.000 C 
BRANCH  40  41
ATOM     41  C   UNL     1      -3.789  -1.080   0.000  0.00  0.00    +0.000 C 
BRANCH  41  42
ATOM     42  C   UNL     1      -4.504  -0.667   0.000  0.00  0.00    +0.000 C 
BRANCH  42  43
ATOM     43  C   UNL     1      -5.218  -1.080   0.000  0.00  0.00    +0.000 C 
BRANCH  43  44
ATOM     44  C   UNL     1      -5.933  -0.667   0.000  0.00  0.00    +0.000 C 
BRANCH  44  45
ATOM     45  C   UNL     1      -6.647  -1.080   0.000  0.00  0.00    +0.000 C 
BRANCH  45  46
ATOM     46  C   UNL     1      -7.362  -0.667   0.000  0.00  0.00    +0.000 C 
BRANCH  46  47
ATOM     47  C   UNL     1      -8.076  -1.080   0.000  0.00  0.00    +0.000 C 
ATOM     48  O   UNL     1      -8.076  -1.905   0.000  0.00  0.00    +0.000 OA
ATOM     49  N   UNL     1      -8.790  -0.667   0.000  0.00  0.00    +0.000 NA
BRANCH  49  50
ATOM     50  C   UNL     1      -9.505  -1.080   0.000  0.00  0.00    +0.000 C 
ATOM     51  C   UNL     1     -10.308  -1.269   0.000  0.00  0.00    +0.000 C 
ATOM     52  C   UNL     1     -10.484  -1.996   0.000  0.00  0.00    +0.000 C 
ATOM     53  C   UNL     1     -11.108  -2.658   0.000  0.00  0.00    +0.000 C 
ATOM     54  C   UNL     1     -11.734  -2.121   0.000  0.00  0.00    +0.000 C 
ATOM     55  C   UNL     1     -11.558  -1.395   0.000  0.00  0.00    +0.000 C 
ATOM     56  C   UNL     1     -10.934  -0.733   0.000  0.00  0.00    +0.000 C 
ATOM     57  C   UNL     1     -10.755  -1.205   0.000  0.00  0.00    +0.000 C 
ATOM     58  C   UNL     1     -10.128  -1.742   0.000  0.00  0.00    +0.000 C 
ATOM     59  C   UNL     1     -10.305  -2.468   0.000  0.00  0.00    +0.000 C 
ENDBRANCH  49  50
ENDBRANCH  46  47
ENDBRANCH  45  46
ENDBRANCH  44  45
ENDBRANCH  43  44
ENDBRANCH  42  43
ENDBRANCH  41  42
ENDBRANCH  40  41
ENDBRANCH  39  40
ENDBRANCH   7  39
TORSDOF 10
