REMARK  Name = 
REMARK  8 active torsions:
REMARK  status: ('A' for Active; 'I' for Inactive)
REMARK    1  A    between atoms: C_1  and  O_9
REMARK    2  A    between atoms: C_3  and  O_10
REMARK    3  A    between atoms: C_4  and  O_12
REMARK    4  A    between atoms: C_5  and  O_11
REMARK    5  A    between atoms: O_9  and  P_15
REMARK    6  A    between atoms: O_10  and  P_19
REMARK    7  A    between atoms: O_11  and  P_23
REMARK    8  A    between atoms: O_12  and  P_27
REMARK                            x       y       z     vdW  Elec       q    Type
REMARK                         _______ _______ _______ _____ _____    ______ ____
ROOT
ATOM      1  C   UNL     1       0.062   1.356   0.000  0.00  0.00    +0.000 C 
ATOM      2  C   UNL     1      -0.652   0.944   0.000  0.00  0.00    +0.000 C 
ATOM      3  C   UNL     1      -0.652   0.119   0.000  0.00  0.00    +0.000 C 
ATOM      4  C   UNL     1       0.777   0.119   0.000  0.00  0.00    +0.000 C 
ATOM      5  C   UNL     1       0.062  -0.294   0.000  0.00  0.00    +0.000 C 
ATOM      6  C   UNL     1       0.777   0.944   0.000  0.00  0.00    +0.000 C 
ATOM      7  O   UNL     1      -1.366   1.356   0.000  0.00  0.00    +0.000 OA
ATOM      8  O   UNL     1       1.491   1.356   0.000  0.00  0.00    +0.000 OA
ENDROOT
BRANCH   3   9
ATOM      9  O   UNL     1      -1.366  -0.294   0.000  0.00  0.00    +0.000 OA
BRANCH   9  12
ATOM     10  O   UNL     1      -2.081   0.944   0.000  0.00  0.00    +0.000 OA
ATOM     11  O   UNL     1      -2.906   0.119   0.000  0.00  0.00    +0.000 OA
ATOM     12  P   UNL     1      -2.081   0.119   0.000  0.00  0.00    +0.000 P 
ATOM     13  O   UNL     1      -2.081  -0.706   0.000  0.00  0.00    +0.000 OA
ENDBRANCH   9  12
ENDBRANCH   3   9
BRANCH   1  14
ATOM     14  O   UNL     1       0.062   2.181   0.000  0.00  0.00    +0.000 OA
BRANCH  14  17
ATOM     15  O   UNL     1      -0.521   3.590   0.000  0.00  0.00    +0.000 OA
ATOM     16  O   UNL     1      -1.346   2.765   0.000  0.00  0.00    +0.000 OA
ATOM     17  P   UNL     1      -0.521   2.765   0.000  0.00  0.00    +0.000 P 
ATOM     18  O   UNL     1      -0.521   1.940   0.000  0.00  0.00    +0.000 OA
ENDBRANCH  14  17
ENDBRANCH   1  14
BRANCH   5  19
ATOM     19  O   UNL     1       0.062  -1.119   0.000  0.00  0.00    +0.000 OA
BRANCH  19  22
ATOM     20  O   UNL     1      -0.652  -0.706   0.000  0.00  0.00    +0.000 OA
ATOM     21  O   UNL     1      -1.477  -1.531   0.000  0.00  0.00    +0.000 OA
ATOM     22  P   UNL     1      -0.652  -1.531   0.000  0.00  0.00    +0.000 P 
ATOM     23  O   UNL     1      -0.652  -2.356   0.000  0.00  0.00    +0.000 OA
ENDBRANCH  19  22
ENDBRANCH   5  19
BRANCH   4  24
ATOM     24  O   UNL     1       1.491  -0.294   0.000  0.00  0.00    +0.000 OA
BRANCH  24  27
ATOM     25  O   UNL     1       2.288   0.745   0.000  0.00  0.00    +0.000 OA
ATOM     26  O   UNL     1       3.113  -0.080   0.000  0.00  0.00    +0.000 OA
ATOM     27  P   UNL     1       2.288  -0.080   0.000  0.00  0.00    +0.000 P 
ATOM     28  O   UNL     1       2.288  -0.905   0.000  0.00  0.00    +0.000 OA
ENDBRANCH  24  27
ENDBRANCH   4  24
TORSDOF 8
