REMARK  Name = 
REMARK  5 active torsions:
REMARK  status: ('A' for Active; 'I' for Inactive)
REMARK    1  A    between atoms: N_5  and  C_6
REMARK    2  A    between atoms: C_6  and  C_7
REMARK    3  A    between atoms: C_7  and  C_8
REMARK    4  A    between atoms: C_8  and  C_9
REMARK    5  A    between atoms: C_9  and  C_11
REMARK                            x       y       z     vdW  Elec       q    Type
REMARK                         _______ _______ _______ _____ _____    ______ ____
ROOT
ATOM      1  C   UNK     1       5.856   1.985   0.000  0.00  0.00    +0.000 C 
ENDROOT
BRANCH   1   2
ATOM      2  C   UNK     1       5.141   2.397   0.000  0.00  0.00    +0.000 C 
BRANCH   2   7
ATOM      3  C   UNK     1       2.284   2.397   0.000  0.00  0.00    +0.000 C 
ATOM      4  N   UNK     1       2.998   1.985   0.000  0.00  0.00    +0.000 NA
ATOM      5  C   UNK     1       3.712   2.397   0.000  0.00  0.00    +0.000 C 
ATOM      6  N   UNK     1       3.712   3.222   0.000  0.00  0.00    +0.000 NA
ATOM      7  N   UNK     1       4.427   1.985   0.000  0.00  0.00    +0.000 NA
ENDBRANCH   2   7
ENDBRANCH   1   2
BRANCH   1   8
ATOM      8  C   UNK     1       6.570   2.397   0.000  0.00  0.00    +0.000 C 
BRANCH   8   9
ATOM      9  C   UNK     1       7.285   1.985   0.000  0.00  0.00    +0.000 C 
ATOM     10  N   UNK     1       7.285   1.160   0.000  0.00  0.00    +0.000 NA
BRANCH   9  11
ATOM     11  C   UNK     1       7.999   2.397   0.000  0.00  0.00    +0.000 C 
ATOM     12  O   UNK     1       8.714   1.985   0.000  0.00  0.00    +0.000 OA
ATOM     13  O   UNK     1       7.999   3.222   0.000  0.00  0.00    +0.000 OA
ENDBRANCH   9  11
ENDBRANCH   8   9
ENDBRANCH   1   8
TORSDOF 5
