REMARK  Name = 
REMARK  0 active torsions:
REMARK  status: ('A' for Active; 'I' for Inactive)
REMARK                            x       y       z     vdW  Elec       q    Type
REMARK                         _______ _______ _______ _____ _____    ______ ____
ROOT
ATOM      1  C   UNL     1      14.396  -9.900   0.000  0.00  0.00    +0.000 C 
ATOM      2  C   UNL     1      14.396 -10.725   0.000  0.00  0.00    +0.000 C 
ATOM      3  C   UNL     1      15.825 -10.725   0.000  0.00  0.00    +0.000 C 
ATOM      4  C   UNL     1      15.825  -9.900   0.000  0.00  0.00    +0.000 C 
ATOM      5  C   UNL     1      15.111  -9.488   0.000  0.00  0.00    +0.000 C 
ATOM      6  C   UNL     1      13.682  -9.488   0.000  0.00  0.00    +0.000 C 
ATOM      7  C   UNL     1      12.967  -9.900   0.000  0.00  0.00    +0.000 C 
ATOM      8  C   UNL     1      12.967 -10.725   0.000  0.00  0.00    +0.000 C 
ATOM      9  C   UNL     1      13.682 -11.137   0.000  0.00  0.00    +0.000 C 
ATOM     10  C   UNL     1      12.253 -11.137   0.000  0.00  0.00    +0.000 C 
ATOM     11  C   UNL     1      12.253 -11.963   0.000  0.00  0.00    +0.000 C 
ATOM     12  C   UNL     1      12.967 -12.375   0.000  0.00  0.00    +0.000 C 
ATOM     13  C   UNL     1      13.682 -11.963   0.000  0.00  0.00    +0.000 C 
ATOM     14  C   UNL     1      11.538 -10.725   0.000  0.00  0.00    +0.000 C 
ATOM     15  C   UNL     1      10.824 -11.137   0.000  0.00  0.00    +0.000 C 
ATOM     16  C   UNL     1      10.824 -11.963   0.000  0.00  0.00    +0.000 C 
ATOM     17  C   UNL     1      11.538 -12.375   0.000  0.00  0.00    +0.000 C 
ATOM     18  O   UNL     1      10.097 -12.382   0.000  0.00  0.00    +0.000 OA
ATOM     19  O   UNL     1      15.111  -8.663   0.000  0.00  0.00    +0.000 OA
ATOM     20  O   UNL     1      11.538 -13.200   0.000  0.00  0.00    +0.000 OA
ATOM     21  C   UNL     1      12.253 -10.312   0.000  0.00  0.00    +0.000 C 
ATOM     22  C   UNL     1      14.396  -9.075   0.000  0.00  0.00    +0.000 C 
ENDROOT
TORSDOF 0
