REMARK  Name = 
REMARK  5 active torsions:
REMARK  status: ('A' for Active; 'I' for Inactive)
REMARK    1  A    between atoms: C_3  and  C_6
REMARK    2  A    between atoms: C_3  and  C_8
REMARK    3  A    between atoms: C_4  and  C_7
REMARK    4  A    between atoms: C_8  and  C_9
REMARK    5  A    between atoms: C_8  and  N_13
REMARK                            x       y       z     vdW  Elec       q    Type
REMARK                         _______ _______ _______ _____ _____    ______ ____
ROOT
ATOM      1  C   UNL     1       0.133   2.543   0.000  0.00  0.00    +0.000 C 
ENDROOT
BRANCH   1   6
ATOM      2  C   UNL     1       0.801   3.853   0.000  0.00  0.00    +0.000 A 
ATOM      3  C   UNL     1       0.546   4.637   0.000  0.00  0.00    +0.000 A 
ATOM      4  N   UNL     1      -0.279   4.637   0.000  0.00  0.00    +0.000 NA
ATOM      5  N   UNL     1      -0.534   3.853   0.000  0.00  0.00    +0.000 NA
ATOM      6  N   UNL     1       0.133   3.368   0.000  0.00  0.00    +0.000 N 
BRANCH   3   7
ATOM      7  C   UNL     1       1.031   5.305   0.000  0.00  0.00    +0.000 C 
ATOM      8  N   UNL     1       0.695   6.059   0.000  0.00  0.00    +0.000 NA
ENDBRANCH   3   7
ENDBRANCH   1   6
BRANCH   1   9
ATOM      9  C   UNL     1       0.848   2.130   0.000  0.00  0.00    +0.000 C 
ATOM     10  O   UNL     1       1.562   2.543   0.000  0.00  0.00    +0.000 OA
ATOM     11  O   UNL     1       0.848   1.305   0.000  0.00  0.00    +0.000 OA
ENDBRANCH   1   9
BRANCH   1  12
ATOM     12  C   UNL     1      -0.581   2.130   0.000  0.00  0.00    +0.000 C 
BRANCH  12  15
ATOM     13  C   UNL     1      -1.296   0.893   0.000  0.00  0.00    +0.000 C 
ATOM     14  C   UNL     1       0.133   0.893   0.000  0.00  0.00    +0.000 C 
ATOM     15  C   UNL     1      -0.581   1.305   0.000  0.00  0.00    +0.000 C 
ENDBRANCH  12  15
ENDBRANCH   1  12
TORSDOF 5
