REMARK  Name = 
REMARK  14 active torsions:
REMARK  status: ('A' for Active; 'I' for Inactive)
REMARK    1  A    between atoms: N_8  and  C_25
REMARK    2  A    between atoms: N_9  and  C_23
REMARK    3  A    between atoms: N_10  and  C_30
REMARK    4  A    between atoms: N_11  and  C_39
REMARK    5  A    between atoms: C_16  and  C_21
REMARK    6  A    between atoms: C_22  and  C_23
REMARK    7  A    between atoms: C_23  and  C_24
REMARK    8  A    between atoms: C_25  and  C_32
REMARK    9  A    between atoms: C_25  and  C_35
REMARK   10  A    between atoms: C_29  and  C_30
REMARK   11  A    between atoms: C_30  and  C_31
REMARK   12  A    between atoms: C_32  and  C_40
REMARK   13  A    between atoms: C_35  and  C_43
REMARK   14  A    between atoms: C_45  and  C_46
REMARK                            x       y       z     vdW  Elec       q    Type
REMARK                         _______ _______ _______ _____ _____    ______ ____
ROOT
ATOM      1  O   UNL     1       6.600  -0.725   0.000  0.00  0.00    +0.000 OA
ATOM      2  N   UNL     1       7.838  -1.440   0.000  0.00  0.00    +0.000 N 
ATOM      3  C   UNL     1       9.107  -1.027   0.000  0.00  0.00    +0.000 C 
ATOM      4  C   UNL     1       9.107  -1.852   0.000  0.00  0.00    +0.000 C 
ATOM      5  C   UNL     1       8.323  -0.772   0.000  0.00  0.00    +0.000 C 
ATOM      6  C   UNL     1       9.888  -0.776   0.000  0.00  0.00    +0.000 C 
ATOM      7  C   UNL     1       9.888  -2.104   0.000  0.00  0.00    +0.000 C 
ATOM      8  C   UNL     1       8.323  -2.107   0.000  0.00  0.00    +0.000 C 
ATOM      9  C   UNL     1      10.369  -1.440   0.000  0.00  0.00    +0.000 C 
ATOM     10  C   UNL     1       7.013  -1.440   0.000  0.00  0.00    +0.000 C 
ENDROOT
BRANCH   5  13
ATOM     11  O   UNL     1       7.261   0.184   0.000  0.00  0.00    +0.000 OA
ATOM     12  N   UNL     1       8.620   0.625   0.000  0.00  0.00    +0.000 NA
ATOM     13  C   UNL     1       8.068   0.012   0.000  0.00  0.00    +0.000 C 
BRANCH  12  14
ATOM     14  C   UNL     1       8.365   1.410   0.000  0.00  0.00    +0.000 C 
BRANCH  14  16
ATOM     15  O   UNL     1       9.724   1.851   0.000  0.00  0.00    +0.000 OA
ATOM     16  C   UNL     1       8.917   2.023   0.000  0.00  0.00    +0.000 C 
BRANCH  16  19
ATOM     17  O   UNL     1       7.855   2.979   0.000  0.00  0.00    +0.000 OA
ATOM     18  N   UNL     1       9.214   3.421   0.000  0.00  0.00    +0.000 NA
ATOM     19  C   UNL     1       8.662   2.808   0.000  0.00  0.00    +0.000 C 
BRANCH  18  20
ATOM     20  C   UNL     1       8.959   4.205   0.000  0.00  0.00    +0.000 C 
ATOM     21  C   UNL     1       9.130   5.012   0.000  0.00  0.00    +0.000 C 
ATOM     22  C   UNL     1       8.346   4.758   0.000  0.00  0.00    +0.000 C 
ENDBRANCH  18  20
ENDBRANCH  16  19
ENDBRANCH  14  16
BRANCH  14  23
ATOM     23  C   UNL     1       7.558   1.581   0.000  0.00  0.00    +0.000 C 
BRANCH  23  24
ATOM     24  C   UNL     1       7.303   2.366   0.000  0.00  0.00    +0.000 C 
ATOM     25  C   UNL     1       6.496   2.538   0.000  0.00  0.00    +0.000 C 
ENDBRANCH  23  24
ENDBRANCH  14  23
ENDBRANCH  12  14
ENDBRANCH   5  13
BRANCH  10  26
ATOM     26  C   UNL     1       6.600  -2.155   0.000  0.00  0.00    +0.000 C 
BRANCH  26  27
ATOM     27  C   UNL     1       7.013  -2.869   0.000  0.00  0.00    +0.000 C 
ATOM     28  C   UNL     1       7.425  -3.583   0.000  0.00  0.00    +0.000 C 
ATOM     29  C   UNL     1       6.298  -3.281   0.000  0.00  0.00    +0.000 C 
ATOM     30  C   UNL     1       7.727  -2.456   0.000  0.00  0.00    +0.000 C 
ENDBRANCH  26  27
BRANCH  26  32
ATOM     31  O   UNL     1       5.775  -3.583   0.000  0.00  0.00    +0.000 OA
ATOM     32  N   UNL     1       5.775  -2.155   0.000  0.00  0.00    +0.000 NA
ATOM     33  C   UNL     1       5.363  -2.869   0.000  0.00  0.00    +0.000 C 
BRANCH  33  34
ATOM     34  C   UNL     1       4.538  -2.869   0.000  0.00  0.00    +0.000 C 
BRANCH  34  35
ATOM     35  C   UNL     1       4.125  -3.583   0.000  0.00  0.00    +0.000 C 
ATOM     36  C   UNL     1       3.300  -3.583   0.000  0.00  0.00    +0.000 C 
ATOM     37  C   UNL     1       4.538  -4.298   0.000  0.00  0.00    +0.000 C 
ATOM     38  C   UNL     1       2.888  -4.298   0.000  0.00  0.00    +0.000 C 
ATOM     39  C   UNL     1       4.125  -5.012   0.000  0.00  0.00    +0.000 C 
ATOM     40  C   UNL     1       3.300  -5.012   0.000  0.00  0.00    +0.000 C 
ENDBRANCH  34  35
BRANCH  34  42
ATOM     41  O   UNL     1       2.888  -2.869   0.000  0.00  0.00    +0.000 OA
ATOM     42  N   UNL     1       4.125  -2.155   0.000  0.00  0.00    +0.000 NA
ATOM     43  C   UNL     1       3.300  -2.155   0.000  0.00  0.00    +0.000 C 
BRANCH  43  46
ATOM     44  N   UNL     1       2.062  -1.440   0.000  0.00  0.00    +0.000 NA
ATOM     45  N   UNL     1       2.888  -0.011   0.000  0.00  0.00    +0.000 NA
ATOM     46  C   UNL     1       2.888  -1.440   0.000  0.00  0.00    +0.000 A 
ATOM     47  C   UNL     1       3.300  -0.725   0.000  0.00  0.00    +0.000 A 
ATOM     48  C   UNL     1       1.650  -0.725   0.000  0.00  0.00    +0.000 A 
ATOM     49  C   UNL     1       2.062  -0.011   0.000  0.00  0.00    +0.000 A 
ENDBRANCH  43  46
ENDBRANCH  34  42
ENDBRANCH  33  34
ENDBRANCH  26  32
ENDBRANCH  10  26
TORSDOF 14
