REMARK  Name = 
REMARK  1 active torsions:
REMARK  status: ('A' for Active; 'I' for Inactive)
REMARK    1  A    between atoms: C_7  and  C_14
REMARK                            x       y       z     vdW  Elec       q    Type
REMARK                         _______ _______ _______ _____ _____    ______ ____
ROOT
ATOM      1  C   UNL     1      17.294 -10.313   0.000  0.00  0.00    +0.000 A 
ATOM      2  C   UNL     1      17.280 -11.135   0.000  0.00  0.00    +0.000 A 
ATOM      3  C   UNL     1      18.012  -9.911   0.000  0.00  0.00    +0.000 C 
ATOM      4  C   UNL     1      16.582  -9.887   0.000  0.00  0.00    +0.000 A 
ATOM      5  S   UNL     1      17.984 -11.555   0.000  0.00  0.00    +0.000 S 
ATOM      6  C   UNL     1      16.562 -11.538   0.000  0.00  0.00    +0.000 A 
ATOM      7  C   UNL     1      18.715 -10.334   0.000  0.00  0.00    +0.000 C 
ATOM      8  O   UNL     1      18.025  -9.086   0.000  0.00  0.00    +0.000 OA
ATOM      9  C   UNL     1      15.865 -10.296   0.000  0.00  0.00    +0.000 A 
ATOM     10  N   UNL     1      18.702 -11.156   0.000  0.00  0.00    +0.000 N 
ATOM     11  O   UNL     1      18.611 -12.141   0.000  0.00  0.00    +0.000 OA
ATOM     12  O   UNL     1      17.283 -12.183   0.000  0.00  0.00    +0.000 OA
ATOM     13  C   UNL     1      15.854 -11.121   0.000  0.00  0.00    +0.000 A 
ATOM     14  C   UNL     1      19.416 -11.579   0.000  0.00  0.00    +0.000 C 
ENDROOT
BRANCH   7  15
ATOM     15  C   UNL     1      19.437  -9.932   0.000  0.00  0.00    +0.000 C 
ATOM     16  N   UNL     1      20.148 -10.358   0.000  0.00  0.00    +0.000 NA
ATOM     17  O   UNL     1      19.451  -9.106   0.000  0.00  0.00    +0.000 OA
ATOM     18  C   UNL     1      20.869  -9.956   0.000  0.00  0.00    +0.000 A 
ATOM     19  N   UNL     1      21.659 -10.187   0.000  0.00  0.00    +0.000 NA
ATOM     20  S   UNL     1      20.845  -9.127   0.000  0.00  0.00    +0.000 S 
ATOM     21  C   UNL     1      22.126  -9.507   0.000  0.00  0.00    +0.000 A 
ATOM     22  C   UNL     1      21.625  -8.852   0.000  0.00  0.00    +0.000 A 
ATOM     23  C   UNL     1      21.854  -8.057   0.000  0.00  0.00    +0.000 C 
ENDBRANCH   7  15
TORSDOF 1
