REMARK  Name = 
REMARK  2 active torsions:
REMARK  status: ('A' for Active; 'I' for Inactive)
REMARK    1  A    between atoms: C_2  and  C_3
REMARK    2  A    between atoms: C_8  and  N_9
REMARK                            x       y       z     vdW  Elec       q    Type
REMARK                         _______ _______ _______ _____ _____    ______ ____
ROOT
ATOM      1  C   UNL     1       0.000  -1.335   0.000  0.00  0.00    +0.000 C 
ATOM      2  C   UNL     1       0.785  -0.255   0.000  0.00  0.00    +0.000 C 
ATOM      3  C   UNL     1      -0.485  -0.667   0.000  0.00  0.00    +0.000 C 
ATOM      4  C   UNL     1       0.000   0.000   0.000  0.00  0.00    +0.000 C 
ATOM      5  C   UNL     1       0.785  -1.080   0.000  0.00  0.00    +0.000 C 
ATOM      6  C   UNL     1       2.054  -0.667   0.000  0.00  0.00    +0.000 C 
ATOM      7  N   UNL     1       1.569   0.000   0.000  0.00  0.00    +0.000 NA
ATOM      8  O   UNL     1      -1.310  -0.667   0.000  0.00  0.00    +0.000 OA
ATOM      9  O   UNL     1      -0.255   0.785   0.000  0.00  0.00    +0.000 OA
ATOM     10  O   UNL     1       1.569  -1.335   0.000  0.00  0.00    +0.000 OA
ENDROOT
BRANCH   6  12
ATOM     11  C   UNL     1       3.292   0.047   0.000  0.00  0.00    +0.000 C 
ATOM     12  N   UNL     1       2.879  -0.667   0.000  0.00  0.00    +0.000 NA
ENDBRANCH   6  12
BRANCH   1  13
ATOM     13  C   UNL     1      -0.255  -2.119   0.000  0.00  0.00    +0.000 C 
ATOM     14  O   UNL     1       0.297  -2.733   0.000  0.00  0.00    +0.000 OA
ENDBRANCH   1  13
TORSDOF 2
