REMARK  Name = 
REMARK  2 active torsions:
REMARK  status: ('A' for Active; 'I' for Inactive)
REMARK    1  A    between atoms: N_8  and  C_12
REMARK    2  A    between atoms: C_14  and  C_15
REMARK                            x       y       z     vdW  Elec       q    Type
REMARK                         _______ _______ _______ _____ _____    ______ ____
ROOT
ATOM      1 CL   UNL     1       0.000   3.081   0.000  0.00  0.00    +0.000 Cl
ENDROOT
TORSDOF 0
REMARK  Name = 
REMARK  2 active torsions:
REMARK  status: ('A' for Active; 'I' for Inactive)
REMARK    1  A    between atoms: N_8  and  C_12
REMARK    2  A    between atoms: C_14  and  C_15
REMARK                            x       y       z     vdW  Elec       q    Type
REMARK                         _______ _______ _______ _____ _____    ______ ____
ROOT
ATOM      1  O   UNL     1       3.649   2.234   0.000  0.00  0.00    +0.000 OA
ATOM      2  O   UNL     1       5.214   3.686   0.000  0.00  0.00    +0.000 OA
ATOM      3  O   UNL     1       3.119   3.273   0.000  0.00  0.00    +0.000 OA
ATOM      4  O   UNL     1       5.769   1.979   0.000  0.00  0.00    +0.000 OA
ATOM      5  C   UNL     1       4.729   3.018   0.000  0.00  0.00    +0.000 C 
ATOM      6  C   UNL     1       3.904   3.018   0.000  0.00  0.00    +0.000 C 
ATOM      7  C   UNL     1       4.984   2.234   0.000  0.00  0.00    +0.000 C 
ATOM      8  C   UNL     1       4.316   1.749   0.000  0.00  0.00    +0.000 C 
ENDROOT
BRANCH   6  10
ATOM      9  S   UNL     1       2.475   3.844   0.000  0.00  0.00    +0.000 S 
ATOM     10  N   UNL     1       3.904   3.844   0.000  0.00  0.00    +0.000 N 
ATOM     11  N   UNL     1       3.189   5.081   0.000  0.00  0.00    +0.000 NA
ATOM     12  N   UNL     1       3.904   6.319   0.000  0.00  0.00    +0.000 NA
ATOM     13  C   UNL     1       4.619   4.256   0.000  0.00  0.00    +0.000 A 
ATOM     14  C   UNL     1       3.189   4.256   0.000  0.00  0.00    +0.000 A 
ATOM     15  C   UNL     1       4.619   5.081   0.000  0.00  0.00    +0.000 A 
ATOM     16  C   UNL     1       3.904   5.494   0.000  0.00  0.00    +0.000 A 
ENDBRANCH   6  10
BRANCH   8  18
ATOM     17  O   UNL     1       3.602   0.511   0.000  0.00  0.00    +0.000 OA
ATOM     18  C   UNL     1       4.316   0.924   0.000  0.00  0.00    +0.000 C 
ENDBRANCH   8  18
TORSDOF 2
