REMARK  Name = 
REMARK  5 active torsions:
REMARK  status: ('A' for Active; 'I' for Inactive)
REMARK    1  A    between atoms: C_14  and  C_18
REMARK    2  A    between atoms: C_14  and  N_32
REMARK    3  A    between atoms: C_21  and  C_26
REMARK    4  A    between atoms: C_22  and  C_25
REMARK    5  A    between atoms: C_25  and  C_27
REMARK                            x       y       z     vdW  Elec       q    Type
REMARK                         _______ _______ _______ _____ _____    ______ ____
ROOT
ATOM      1  C   UNL     1       0.884  -2.150   0.000  0.00  0.00    +0.000 C 
ATOM      2  C   UNL     1       2.638   0.127   0.000  0.00  0.00    +0.000 A 
ATOM      3  C   UNL     1       2.638  -1.523   0.000  0.00  0.00    +0.000 A 
ATOM      4  C   UNL     1       0.654  -0.698   0.000  0.00  0.00    +0.000 A 
ATOM      5  C   UNL     1       1.923  -0.285   0.000  0.00  0.00    +0.000 A 
ATOM      6  C   UNL     1       3.352  -0.285   0.000  0.00  0.00    +0.000 A 
ATOM      7  C   UNL     1       1.139  -0.030   0.000  0.00  0.00    +0.000 A 
ATOM      8  C   UNL     1       3.352  -1.110   0.000  0.00  0.00    +0.000 A 
ATOM      9  C   UNL     1       1.923  -1.110   0.000  0.00  0.00    +0.000 A 
ATOM     10 CL   UNL     1       4.067  -1.523   0.000  0.00  0.00    +0.000 Cl
ATOM     11  N   UNL     1       1.139  -1.365   0.000  0.00  0.00    +0.000 N 
ENDROOT
BRANCH   6  18
ATOM     12  C   UNL     1       5.496   2.602   0.000  0.00  0.00    +0.000 C 
ATOM     13  C   UNL     1       2.638   0.952   0.000  0.00  0.00    +0.000 C 
ATOM     14  C   UNL     1       3.352   2.190   0.000  0.00  0.00    +0.000 C 
ATOM     15  C   UNL     1       4.781   1.365   0.000  0.00  0.00    +0.000 C 
ATOM     16  C   UNL     1       4.781   2.190   0.000  0.00  0.00    +0.000 C 
ATOM     17  C   UNL     1       3.352   1.365   0.000  0.00  0.00    +0.000 C 
ATOM     18  C   UNL     1       4.067   0.127   0.000  0.00  0.00    +0.000 C 
ATOM     19  N   UNL     1       4.067   2.602   0.000  0.00  0.00    +0.000 NA
ATOM     20  N   UNL     1       4.067   0.952   0.000  0.00  0.00    +0.000 N 
ATOM     21  O   UNL     1       4.781  -0.285   0.000  0.00  0.00    +0.000 OA
BRANCH  19  22
ATOM     22  C   UNL     1       4.067   3.427   0.000  0.00  0.00    +0.000 C 
BRANCH  22  27
ATOM     23  C   UNL     1       5.496   3.427   0.000  0.00  0.00    +0.000 A 
ATOM     24  C   UNL     1       4.781   4.665   0.000  0.00  0.00    +0.000 A 
ATOM     25  C   UNL     1       6.210   3.840   0.000  0.00  0.00    +0.000 A 
ATOM     26  C   UNL     1       5.496   5.077   0.000  0.00  0.00    +0.000 A 
ATOM     27  C   UNL     1       4.781   3.840   0.000  0.00  0.00    +0.000 A 
ATOM     28  C   UNL     1       6.210   4.665   0.000  0.00  0.00    +0.000 A 
ATOM     29  F   UNL     1       6.925   5.077   0.000  0.00  0.00    +0.000 F 
ENDBRANCH  22  27
ENDBRANCH  19  22
ENDBRANCH   6  18
BRANCH   7  30
ATOM     30  C   UNL     1       0.884   0.754   0.000  0.00  0.00    +0.000 C 
ATOM     31  O   UNL     1       1.436   1.367   0.000  0.00  0.00    +0.000 OA
BRANCH  30  34
ATOM     32  C   UNL     1      -0.985   1.882   0.000  0.00  0.00    +0.000 C 
ATOM     33  C   UNL     1       0.374   2.323   0.000  0.00  0.00    +0.000 C 
ATOM     34  C   UNL     1       0.077   0.926   0.000  0.00  0.00    +0.000 C 
ATOM     35  N   UNL     1      -0.178   1.710   0.000  0.00  0.00    +0.000 N 
ATOM     36  O   UNL     1      -0.475   0.313   0.000  0.00  0.00    +0.000 OA
ENDBRANCH  30  34
ENDBRANCH   7  30
TORSDOF 5
