REMARK  Name = 
REMARK  1 active torsions:
REMARK  status: ('A' for Active; 'I' for Inactive)
REMARK    1  A    between atoms: C_12  and  C_16
REMARK                            x       y       z     vdW  Elec       q    Type
REMARK                         _______ _______ _______ _____ _____    ______ ____
ROOT
ATOM      1  C   UNL     1       3.448   2.825   0.000  0.00  0.00    +0.000 C 
ATOM      2  C   UNL     1       1.558   1.507   0.000  0.00  0.00    +0.000 A 
ATOM      3  C   UNL     1       2.272   1.919   0.000  0.00  0.00    +0.000 A 
ATOM      4  C   UNL     1       4.794   1.094   0.000  0.00  0.00    +0.000 C 
ATOM      5  C   UNL     1       4.436   1.837   0.000  0.00  0.00    +0.000 C 
ATOM      6  C   UNL     1       2.272   0.269   0.000  0.00  0.00    +0.000 A 
ATOM      7  C   UNL     1       1.558   0.682   0.000  0.00  0.00    +0.000 A 
ATOM      8  C   UNL     1       2.986   0.682   0.000  0.00  0.00    +0.000 A 
ATOM      9  C   UNL     1       2.986   1.507   0.000  0.00  0.00    +0.000 A 
ATOM     10  C   UNL     1       3.631   0.167   0.000  0.00  0.00    +0.000 C 
ATOM     11 CL   UNL     1       0.843   0.269   0.000  0.00  0.00    +0.000 Cl
ATOM     12  N   UNL     1       4.436   0.351   0.000  0.00  0.00    +0.000 NA
ATOM     13  N   UNL     1       3.631   2.021   0.000  0.00  0.00    +0.000 N 
ENDROOT
BRANCH  10  19
ATOM     14  C   UNL     1       3.081  -2.246   0.000  0.00  0.00    +0.000 A 
ATOM     15  C   UNL     1       3.869  -2.002   0.000  0.00  0.00    +0.000 A 
ATOM     16  C   UNL     1       2.476  -1.685   0.000  0.00  0.00    +0.000 A 
ATOM     17  C   UNL     1       4.053  -1.198   0.000  0.00  0.00    +0.000 A 
ATOM     18  C   UNL     1       2.660  -0.880   0.000  0.00  0.00    +0.000 A 
ATOM     19  C   UNL     1       3.448  -0.637   0.000  0.00  0.00    +0.000 A 
ENDBRANCH  10  19
TORSDOF 1
