REMARK  Name = 
REMARK  4 active torsions:
REMARK  status: ('A' for Active; 'I' for Inactive)
REMARK    1  A    between atoms: N_1  and  C_14
REMARK    2  A    between atoms: N_2  and  C_15
REMARK    3  A    between atoms: C_14  and  C_16
REMARK    4  A    between atoms: C_15  and  C_17
REMARK                            x       y       z     vdW  Elec       q    Type
REMARK                         _______ _______ _______ _____ _____    ______ ____
ROOT
ATOM      1  N   UNL     1       6.543  -1.439   0.000  0.00  0.00    +0.000 NA
ATOM      2  N   UNL     1       3.824   0.992   0.000  0.00  0.00    +0.000 NA
ATOM      3  C   UNL     1       2.956  -1.509   0.000  0.00  0.00    +0.000 C 
ATOM      4  C   UNL     1       4.495  -1.096   0.000  0.00  0.00    +0.000 C 
ATOM      5  C   UNL     1       4.709  -0.299   0.000  0.00  0.00    +0.000 C 
ATOM      6  C   UNL     1       2.202  -1.173   0.000  0.00  0.00    +0.000 C 
ATOM      7  C   UNL     1       2.869  -2.329   0.000  0.00  0.00    +0.000 C 
ATOM      8  C   UNL     1       5.902  -1.958   0.000  0.00  0.00    +0.000 C 
ATOM      9  C   UNL     1       6.247  -0.669   0.000  0.00  0.00    +0.000 C 
ATOM     10  C   UNL     1       3.488   0.238   0.000  0.00  0.00    +0.000 C 
ATOM     11  C   UNL     1       4.644   0.906   0.000  0.00  0.00    +0.000 C 
ATOM     12  C   UNL     1       1.650  -1.786   0.000  0.00  0.00    +0.000 C 
ATOM     13  C   UNL     1       2.062  -2.501   0.000  0.00  0.00    +0.000 C 
ENDROOT
BRANCH   1  14
ATOM     14  C   UNL     1       7.340  -1.652   0.000  0.00  0.00    +0.000 C 
BRANCH  14  15
ATOM     15  C   UNL     1       7.553  -2.449   0.000  0.00  0.00    +0.000 C 
ATOM     16  C   UNL     1       8.137  -3.033   0.000  0.00  0.00    +0.000 C 
ATOM     17  C   UNL     1       7.340  -3.246   0.000  0.00  0.00    +0.000 C 
ENDBRANCH  14  15
ENDBRANCH   1  14
BRANCH   2  18
ATOM     18  C   UNL     1       3.411   1.707   0.000  0.00  0.00    +0.000 C 
BRANCH  18  19
ATOM     19  C   UNL     1       3.824   2.421   0.000  0.00  0.00    +0.000 C 
ATOM     20  C   UNL     1       3.824   3.246   0.000  0.00  0.00    +0.000 C 
ATOM     21  C   UNL     1       4.538   2.834   0.000  0.00  0.00    +0.000 C 
ENDBRANCH  18  19
ENDBRANCH   2  18
TORSDOF 4
