REMARK  Name = 
REMARK  10 active torsions:
REMARK  status: ('A' for Active; 'I' for Inactive)
REMARK    1  A    between atoms: C_2  and  O_23
REMARK    2  A    between atoms: C_3  and  O_24
REMARK    3  A    between atoms: C_4  and  O_25
REMARK    4  A    between atoms: C_5  and  O_26
REMARK    5  A    between atoms: C_6  and  O_27
REMARK    6  A    between atoms: O_23  and  P_28
REMARK    7  A    between atoms: O_24  and  P_29
REMARK    8  A    between atoms: O_25  and  P_30
REMARK    9  A    between atoms: O_26  and  P_31
REMARK   10  A    between atoms: O_27  and  P_32
REMARK                            x       y       z     vdW  Elec       q    Type
REMARK                         _______ _______ _______ _____ _____    ______ ____
ROOT
ATOM      1  C   UNL     1       1.429   0.825   0.000  0.00  0.00    +0.000 C 
ATOM      2  C   UNL     1       0.715   1.238   0.000  0.00  0.00    +0.000 C 
ATOM      3  C   UNL     1       1.429   0.000   0.000  0.00  0.00    +0.000 C 
ATOM      4  C   UNL     1       0.000   0.825   0.000  0.00  0.00    +0.000 C 
ATOM      5  C   UNL     1       0.715  -0.412   0.000  0.00  0.00    +0.000 C 
ATOM      6  C   UNL     1       0.000   0.000   0.000  0.00  0.00    +0.000 C 
ATOM      7  O   UNL     1       2.143   1.238   0.000  0.00  0.00    +0.000 OA
ENDROOT
BRANCH   2   8
ATOM      8  O   UNL     1       0.715   2.062   0.000  0.00  0.00    +0.000 OA
BRANCH   8  12
ATOM      9  O   UNL     1       2.143   2.888   0.000  0.00  0.00    +0.000 OA
ATOM     10  O   UNL     1       1.016   3.189   0.000  0.00  0.00    +0.000 OA
ATOM     11  O   UNL     1       1.841   1.760   0.000  0.00  0.00    +0.000 OA
ATOM     12  P   UNL     1       1.429   2.475   0.000  0.00  0.00    +0.000 P 
ENDBRANCH   8  12
ENDBRANCH   2   8
BRANCH   3  13
ATOM     13  O   UNL     1       2.143  -0.412   0.000  0.00  0.00    +0.000 OA
BRANCH  13  17
ATOM     14  O   UNL     1       3.270  -0.715   0.000  0.00  0.00    +0.000 OA
ATOM     15  O   UNL     1       2.445   0.715   0.000  0.00  0.00    +0.000 OA
ATOM     16  O   UNL     1       3.572   0.412   0.000  0.00  0.00    +0.000 OA
ATOM     17  P   UNL     1       2.858   0.000   0.000  0.00  0.00    +0.000 P 
ENDBRANCH  13  17
ENDBRANCH   3  13
BRANCH   4  18
ATOM     18  O   UNL     1      -0.715   1.238   0.000  0.00  0.00    +0.000 OA
BRANCH  18  22
ATOM     19  O   UNL     1       0.111   2.062   0.000  0.00  0.00    +0.000 OA
ATOM     20  O   UNL     1      -1.540   2.062   0.000  0.00  0.00    +0.000 OA
ATOM     21  O   UNL     1      -0.715   2.888   0.000  0.00  0.00    +0.000 OA
ATOM     22  P   UNL     1      -0.715   2.062   0.000  0.00  0.00    +0.000 P 
ENDBRANCH  18  22
ENDBRANCH   4  18
BRANCH   5  23
ATOM     23  O   UNL     1       0.715  -1.238   0.000  0.00  0.00    +0.000 OA
BRANCH  23  27
ATOM     24  O   UNL     1       2.143  -2.062   0.000  0.00  0.00    +0.000 OA
ATOM     25  O   UNL     1       1.016  -2.365   0.000  0.00  0.00    +0.000 OA
ATOM     26  O   UNL     1       1.841  -0.935   0.000  0.00  0.00    +0.000 OA
ATOM     27  P   UNL     1       1.429  -1.650   0.000  0.00  0.00    +0.000 P 
ENDBRANCH  23  27
ENDBRANCH   5  23
BRANCH   6  28
ATOM     28  O   UNL     1      -0.715  -0.412   0.000  0.00  0.00    +0.000 OA
BRANCH  28  32
ATOM     29  O   UNL     1      -2.143   0.412   0.000  0.00  0.00    +0.000 OA
ATOM     30  O   UNL     1      -1.016   0.715   0.000  0.00  0.00    +0.000 OA
ATOM     31  O   UNL     1      -1.841  -0.715   0.000  0.00  0.00    +0.000 OA
ATOM     32  P   UNL     1      -1.429   0.000   0.000  0.00  0.00    +0.000 P 
ENDBRANCH  28  32
ENDBRANCH   6  28
TORSDOF 10
