REMARK  Name = 
REMARK  30 active torsions:
REMARK  status: ('A' for Active; 'I' for Inactive)
REMARK    1  A    between atoms: N_13  and  C_30
REMARK    2  A    between atoms: N_14  and  C_38
REMARK    3  A    between atoms: N_15  and  C_33
REMARK    4  A    between atoms: N_16  and  C_41
REMARK    5  A    between atoms: N_17  and  C_43
REMARK    6  A    between atoms: N_18  and  C_47
REMARK    7  A    between atoms: N_19  and  C_40
REMARK    8  A    between atoms: N_20  and  C_53
REMARK    9  A    between atoms: N_23  and  C_65
REMARK   10  A    between atoms: N_24  and  C_67
REMARK   11  A    between atoms: C_25  and  C_31
REMARK   12  A    between atoms: C_29  and  C_30
REMARK   13  A    between atoms: C_30  and  C_32
REMARK   14  A    between atoms: C_32  and  C_35
REMARK   15  A    between atoms: C_33  and  C_34
REMARK   16  A    between atoms: C_33  and  C_36
REMARK   17  A    between atoms: C_34  and  C_37
REMARK   18  A    between atoms: C_35  and  C_40
REMARK   19  A    between atoms: C_41  and  C_42
REMARK   20  A    between atoms: C_41  and  C_46
REMARK   21  A    between atoms: C_43  and  C_44
REMARK   22  A    between atoms: C_43  and  C_50
REMARK   23  A    between atoms: C_44  and  C_49
REMARK   24  A    between atoms: C_46  and  C_52
REMARK   25  A    between atoms: C_47  and  C_51
REMARK   26  A    between atoms: C_47  and  C_55
REMARK   27  A    between atoms: C_53  and  C_56
REMARK   28  A    between atoms: C_53  and  C_57
REMARK   29  A    between atoms: C_64  and  C_65
REMARK   30  A    between atoms: C_66  and  C_67
REMARK                            x       y       z     vdW  Elec       q    Type
REMARK                         _______ _______ _______ _____ _____    ______ ____
ROOT
ATOM      1  O   UNL     1       6.652   1.628   0.000  0.00  0.00    +0.000 OA
ATOM      2  N   UNL     1       8.080   1.628   0.000  0.00  0.00    +0.000 NA
ATOM      3  C   UNL     1       7.366   1.215   0.000  0.00  0.00    +0.000 C 
ENDROOT
BRANCH   2   4
ATOM      4  C   UNL     1       8.080   2.453   0.000  0.00  0.00    +0.000 C 
BRANCH   4   7
ATOM      5  O   UNL     1       9.509   2.453   0.000  0.00  0.00    +0.000 OA
ATOM      6  N   UNL     1       8.795   3.690   0.000  0.00  0.00    +0.000 NA
ATOM      7  C   UNL     1       8.795   2.865   0.000  0.00  0.00    +0.000 C 
BRANCH   6   8
ATOM      8  C   UNL     1       9.509   4.103   0.000  0.00  0.00    +0.000 C 
BRANCH   8  11
ATOM      9  O   UNL     1       8.795   5.340   0.000  0.00  0.00    +0.000 OA
ATOM     10  N   UNL     1      10.224   5.340   0.000  0.00  0.00    +0.000 NA
ATOM     11  C   UNL     1       9.509   4.928   0.000  0.00  0.00    +0.000 C 
BRANCH  10  12
ATOM     12  C   UNL     1      10.224   6.165   0.000  0.00  0.00    +0.000 C 
BRANCH  12  19
ATOM     13  O   UNL     1      11.653   6.165   0.000  0.00  0.00    +0.000 OA
ATOM     14  N   UNL     1      10.938   7.403   0.000  0.00  0.00    +0.000 N 
ATOM     15  C   UNL     1      11.606   7.888   0.000  0.00  0.00    +0.000 C 
ATOM     16  C   UNL     1      11.351   8.672   0.000  0.00  0.00    +0.000 C 
ATOM     17  C   UNL     1      10.526   8.672   0.000  0.00  0.00    +0.000 C 
ATOM     18  C   UNL     1      10.271   7.888   0.000  0.00  0.00    +0.000 C 
ATOM     19  C   UNL     1      10.938   6.578   0.000  0.00  0.00    +0.000 C 
BRANCH  15  22
ATOM     20  O   UNL     1      12.562   6.826   0.000  0.00  0.00    +0.000 OA
ATOM     21  N   UNL     1      13.004   8.185   0.000  0.00  0.00    +0.000 NA
ATOM     22  C   UNL     1      12.390   7.633   0.000  0.00  0.00    +0.000 C 
BRANCH  21  23
ATOM     23  C   UNL     1      13.788   7.930   0.000  0.00  0.00    +0.000 C 
ATOM     24  C   UNL     1      14.401   8.482   0.000  0.00  0.00    +0.000 C 
ENDBRANCH  21  23
ENDBRANCH  15  22
ENDBRANCH  12  19
BRANCH  12  25
ATOM     25  C   UNL     1       9.509   6.578   0.000  0.00  0.00    +0.000 C 
BRANCH  25  26
ATOM     26  C   UNL     1       8.795   6.165   0.000  0.00  0.00    +0.000 C 
BRANCH  26  27
ATOM     27  C   UNL     1       8.080   6.578   0.000  0.00  0.00    +0.000 C 
BRANCH  27  28
ATOM     28  N   UNL     1       7.366   6.165   0.000  0.00  0.00    +0.000 NA
ATOM     29  N   UNL     1       6.652   7.403   0.000  0.00  0.00    +0.000 NA
ATOM     30  N   UNL     1       5.937   6.165   0.000  0.00  0.00    +0.000 NA
ATOM     31  C   UNL     1       6.652   6.578   0.000  0.00  0.00    +0.000 C 
ENDBRANCH  27  28
ENDBRANCH  26  27
ENDBRANCH  25  26
ENDBRANCH  12  25
ENDBRANCH  10  12
ENDBRANCH   8  11
BRANCH   8  32
ATOM     32  C   UNL     1      10.224   3.690   0.000  0.00  0.00    +0.000 C 
ATOM     33  C   UNL     1      10.938   4.103   0.000  0.00  0.00    +0.000 C 
BRANCH  32  34
ATOM     34  C   UNL     1      10.224   2.865   0.000  0.00  0.00    +0.000 C 
ATOM     35  C   UNL     1      10.938   2.453   0.000  0.00  0.00    +0.000 C 
ENDBRANCH  32  34
ENDBRANCH   8  32
ENDBRANCH   6   8
ENDBRANCH   4   7
BRANCH   4  36
ATOM     36  C   UNL     1       7.366   2.865   0.000  0.00  0.00    +0.000 C 
BRANCH  36  37
ATOM     37  C   UNL     1       6.652   2.453   0.000  0.00  0.00    +0.000 C 
ATOM     38  C   UNL     1       5.937   2.865   0.000  0.00  0.00    +0.000 C 
ENDBRANCH  36  37
ENDBRANCH   4  36
ENDBRANCH   2   4
BRANCH   3  39
ATOM     39  C   UNL     1       7.366   0.390   0.000  0.00  0.00    +0.000 C 
BRANCH  39  41
ATOM     40  O   UNL     1       8.080  -0.848   0.000  0.00  0.00    +0.000 OA
ATOM     41  C   UNL     1       8.080  -0.022   0.000  0.00  0.00    +0.000 C 
ATOM     42  C   UNL     1       8.795   0.390   0.000  0.00  0.00    +0.000 C 
ENDBRANCH  39  41
BRANCH  39  44
ATOM     43  O   UNL     1       7.366  -1.260   0.000  0.00  0.00    +0.000 OA
ATOM     44  N   UNL     1       6.652  -0.022   0.000  0.00  0.00    +0.000 NA
ATOM     45  C   UNL     1       6.652  -0.848   0.000  0.00  0.00    +0.000 C 
BRANCH  45  46
ATOM     46  C   UNL     1       5.937  -1.260   0.000  0.00  0.00    +0.000 C 
BRANCH  46  48
ATOM     47  O   UNL     1       4.508  -2.085   0.000  0.00  0.00    +0.000 OA
ATOM     48  N   UNL     1       5.937  -2.085   0.000  0.00  0.00    +0.000 NA
ATOM     49  C   UNL     1       5.222  -2.498   0.000  0.00  0.00    +0.000 C 
BRANCH  49  50
ATOM     50  C   UNL     1       5.222  -3.322   0.000  0.00  0.00    +0.000 C 
BRANCH  50  52
ATOM     51  O   UNL     1       5.222  -4.973   0.000  0.00  0.00    +0.000 OA
ATOM     52  N   UNL     1       4.508  -3.735   0.000  0.00  0.00    +0.000 NA
ATOM     53  C   UNL     1       4.508  -4.560   0.000  0.00  0.00    +0.000 C 
BRANCH  53  54
ATOM     54  C   UNL     1       3.793  -4.973   0.000  0.00  0.00    +0.000 C 
BRANCH  54  56
ATOM     55  O   UNL     1       2.365  -5.798   0.000  0.00  0.00    +0.000 OA
ATOM     56  N   UNL     1       3.793  -5.798   0.000  0.00  0.00    +0.000 NA
ATOM     57  C   UNL     1       3.079  -6.210   0.000  0.00  0.00    +0.000 C 
BRANCH  57  58
ATOM     58  C   UNL     1       3.079  -7.035   0.000  0.00  0.00    +0.000 C 
BRANCH  58  60
ATOM     59  O   UNL     1       3.079  -8.685   0.000  0.00  0.00    +0.000 OA
ATOM     60  N   UNL     1       2.365  -7.448   0.000  0.00  0.00    +0.000 N 
ATOM     61  C   UNL     1       1.650  -7.035   0.000  0.00  0.00    +0.000 C 
ATOM     62  C   UNL     1       2.365  -8.273   0.000  0.00  0.00    +0.000 C 
ATOM     63  C   UNL     1       1.650  -8.685   0.000  0.00  0.00    +0.000 C 
ENDBRANCH  58  60
ENDBRANCH  57  58
ENDBRANCH  54  56
ENDBRANCH  53  54
ENDBRANCH  50  52
BRANCH  50  64
ATOM     64  C   UNL     1       5.937  -3.735   0.000  0.00  0.00    +0.000 C 
ATOM     65  C   UNL     1       5.937  -4.560   0.000  0.00  0.00    +0.000 C 
ATOM     66  C   UNL     1       6.652  -3.322   0.000  0.00  0.00    +0.000 C 
ENDBRANCH  50  64
ENDBRANCH  49  50
ENDBRANCH  46  48
BRANCH  46  67
ATOM     67  C   UNL     1       5.222  -0.848   0.000  0.00  0.00    +0.000 C 
ATOM     68  C   UNL     1       5.222  -0.022   0.000  0.00  0.00    +0.000 C 
BRANCH  67  69
ATOM     69  C   UNL     1       4.508  -1.260   0.000  0.00  0.00    +0.000 C 
ATOM     70  C   UNL     1       3.793  -0.848   0.000  0.00  0.00    +0.000 C 
ENDBRANCH  67  69
ENDBRANCH  46  67
ENDBRANCH  45  46
ENDBRANCH  39  44
ENDBRANCH   3  39
TORSDOF 30
