REMARK  Name = 
REMARK  4 active torsions:
REMARK  status: ('A' for Active; 'I' for Inactive)
REMARK    1  A    between atoms: C_1  and  P_2
REMARK    2  A    between atoms: C_1  and  C_3
REMARK    3  A    between atoms: P_2  and  O_5
REMARK    4  A    between atoms: P_2  and  O_6
REMARK                            x       y       z     vdW  Elec       q    Type
REMARK                         _______ _______ _______ _____ _____    ______ ____
ROOT
ATOM      1  C   UNL     1      13.960  -9.677   0.000  0.00  0.00    +0.000 C 
ATOM      2  O   UNL     1      14.371  -8.962   0.000  0.00  0.00    +0.000 OA
ENDROOT
BRANCH   1   3
ATOM      3  C   UNL     1      14.371 -10.392   0.000  0.00  0.00    +0.000 C 
ATOM      4 CL   UNL     1      13.960 -11.108   0.000  0.00  0.00    +0.000 Cl
ATOM      5 CL   UNL     1      15.197 -10.392   0.000  0.00  0.00    +0.000 Cl
ATOM      6 CL   UNL     1      14.955 -10.976   0.000  0.00  0.00    +0.000 Cl
ENDBRANCH   1   3
BRANCH   1   7
ATOM      7  P   UNL     1      13.127  -9.677   0.000  0.00  0.00    +0.000 P 
ATOM      8  O   UNL     1      13.127  -8.848   0.000  0.00  0.00    +0.000 OA
BRANCH   7   9
ATOM      9  O   UNL     1      12.298  -9.677   0.000  0.00  0.00    +0.000 OA
ATOM     10  C   UNL     1      11.890  -8.962   0.000  0.00  0.00    +0.000 C 
ENDBRANCH   7   9
BRANCH   7  11
ATOM     11  O   UNL     1      13.127 -10.510   0.000  0.00  0.00    +0.000 OA
ATOM     12  C   UNL     1      12.412 -10.921   0.000  0.00  0.00    +0.000 C 
ENDBRANCH   7  11
ENDBRANCH   1   7
TORSDOF 4
