REMARK  Name = 
REMARK  7 active torsions:
REMARK  status: ('A' for Active; 'I' for Inactive)
REMARK    1  A    between atoms: C_2  and  C_3
REMARK    2  A    between atoms: C_3  and  C_5
REMARK    3  A    between atoms: C_14  and  C_18
REMARK    4  A    between atoms: C_18  and  O_19
REMARK    5  A    between atoms: C_18  and  C_21
REMARK    6  A    between atoms: C_21  and  C_23
REMARK    7  A    between atoms: C_23  and  C_25
REMARK                            x       y       z     vdW  Elec       q    Type
REMARK                         _______ _______ _______ _____ _____    ______ ____
ROOT
ATOM      1  C   UNL     1      -3.300  -1.812   0.000  0.00  0.00    +0.000 A 
ATOM      2  C   UNL     1      -2.475  -1.812   0.000  0.00  0.00    +0.000 A 
ATOM      3  O   UNL     1      -2.062  -2.526   0.000  0.00  0.00    +0.000 OA
ATOM      4  C   UNL     1      -2.062  -1.097   0.000  0.00  0.00    +0.000 A 
ATOM      5  C   UNL     1      -1.238  -1.097   0.000  0.00  0.00    +0.000 A 
ATOM      6  O   UNL     1      -0.825  -1.812   0.000  0.00  0.00    +0.000 OA
ATOM      7  C   UNL     1      -0.825  -0.383   0.000  0.00  0.00    +0.000 A 
ATOM      8  C   UNL     1      -1.238   0.332   0.000  0.00  0.00    +0.000 A 
ATOM      9  C   UNL     1      -0.825   1.046   0.000  0.00  0.00    +0.000 C 
ATOM     10  C   UNL     1       0.000   1.046   0.000  0.00  0.00    +0.000 C 
ATOM     11  C   UNL     1       0.412   0.332   0.000  0.00  0.00    +0.000 C 
ATOM     12  C   UNL     1       0.000  -0.383   0.000  0.00  0.00    +0.000 C 
ATOM     13  O   UNL     1       0.412  -1.097   0.000  0.00  0.00    +0.000 OA
ATOM     14  C   UNL     1      -2.062   0.332   0.000  0.00  0.00    +0.000 A 
ATOM     15  C   UNL     1      -2.475  -0.383   0.000  0.00  0.00    +0.000 A 
ATOM     16  C   UNL     1      -3.300  -0.383   0.000  0.00  0.00    +0.000 A 
ATOM     17  C   UNL     1      -3.712  -1.097   0.000  0.00  0.00    +0.000 A 
ENDROOT
BRANCH   1  18
ATOM     18  C   UNL     1      -3.712  -2.526   0.000  0.00  0.00    +0.000 C 
ATOM     19  C   UNL     1      -3.300  -3.241   0.000  0.00  0.00    +0.000 C 
BRANCH  18  21
ATOM     20  C   UNL     1      -4.950  -3.241   0.000  0.00  0.00    +0.000 C 
ATOM     21  C   UNL     1      -4.537  -2.526   0.000  0.00  0.00    +0.000 C 
ENDBRANCH  18  21
ENDBRANCH   1  18
BRANCH  10  22
ATOM     22  C   UNL     1       0.412   1.760   0.000  0.00  0.00    +0.000 C 
BRANCH  22  23
ATOM     23  C   UNL     1       1.238   1.760   0.000  0.00  0.00    +0.000 C 
ATOM     24  O   UNL     1       1.650   1.046   0.000  0.00  0.00    +0.000 OA
BRANCH  23  25
ATOM     25  C   UNL     1       1.650   2.475   0.000  0.00  0.00    +0.000 C 
ATOM     26  O   UNL     1       1.238   3.189   0.000  0.00  0.00    +0.000 OA
BRANCH  25  27
ATOM     27  C   UNL     1       2.475   2.475   0.000  0.00  0.00    +0.000 C 
ATOM     28  C   UNL     1       2.888   3.189   0.000  0.00  0.00    +0.000 C 
ATOM     29  O   UNL     1       2.888   1.760   0.000  0.00  0.00    +0.000 OA
ENDBRANCH  25  27
ENDBRANCH  23  25
ENDBRANCH  22  23
BRANCH  22  30
ATOM     30  O   UNL     1       0.000   2.475   0.000  0.00  0.00    +0.000 OA
ATOM     31  C   UNL     1       0.412   3.189   0.000  0.00  0.00    +0.000 C 
ENDBRANCH  22  30
ENDBRANCH  10  22
TORSDOF 7
