REMARK  Name = 
REMARK  1 active torsions:
REMARK  status: ('A' for Active; 'I' for Inactive)
REMARK    1  A    between atoms: C_8  and  C_16
REMARK                            x       y       z     vdW  Elec       q    Type
REMARK                         _______ _______ _______ _____ _____    ______ ____
ROOT
ATOM      1  O   UNL     1      16.433  -6.899   0.000  0.00  0.00    +0.000 OA
ATOM      2  O   UNL     1      19.304  -7.753   0.000  0.00  0.00    +0.000 OA
ATOM      3  O   UNL     1      20.774  -5.229   0.000  0.00  0.00    +0.000 OA
ATOM      4  O   UNL     1      17.862  -5.249   0.000  0.00  0.00    +0.000 OA
ATOM      5  C   UNL     1      17.147  -6.487   0.000  0.00  0.00    +0.000 C 
ATOM      6  C   UNL     1      17.147  -5.662   0.000  0.00  0.00    +0.000 C 
ATOM      7  C   UNL     1      17.862  -6.899   0.000  0.00  0.00    +0.000 C 
ATOM      8  C   UNL     1      19.314  -6.928   0.000  0.00  0.00    +0.000 A 
ATOM      9  C   UNL     1      20.061  -5.645   0.000  0.00  0.00    +0.000 A 
ATOM     10  C   UNL     1      18.576  -5.662   0.000  0.00  0.00    +0.000 A 
ATOM     11  C   UNL     1      18.576  -6.487   0.000  0.00  0.00    +0.000 A 
ATOM     12  C   UNL     1      20.061  -6.504   0.000  0.00  0.00    +0.000 A 
ATOM     13  C   UNL     1      19.314  -5.221   0.000  0.00  0.00    +0.000 A 
ENDROOT
BRANCH   6  18
ATOM     14  O   UNL     1      15.718  -3.187   0.000  0.00  0.00    +0.000 OA
ATOM     15  O   UNL     1      14.289  -4.012   0.000  0.00  0.00    +0.000 OA
ATOM     16  C   UNL     1      15.718  -4.012   0.000  0.00  0.00    +0.000 A 
ATOM     17  C   UNL     1      15.004  -4.424   0.000  0.00  0.00    +0.000 A 
ATOM     18  C   UNL     1      16.433  -5.249   0.000  0.00  0.00    +0.000 A 
ATOM     19  C   UNL     1      16.433  -4.424   0.000  0.00  0.00    +0.000 A 
ATOM     20  C   UNL     1      15.004  -5.249   0.000  0.00  0.00    +0.000 A 
ATOM     21  C   UNL     1      15.718  -5.662   0.000  0.00  0.00    +0.000 A 
ENDBRANCH   6  18
TORSDOF 1
