REMARK  Name = 
REMARK  6 active torsions:
REMARK  status: ('A' for Active; 'I' for Inactive)
REMARK    1  A    between atoms: C_8  and  C_9
REMARK    2  A    between atoms: C_13  and  C_14
REMARK    3  A    between atoms: C_13  and  C_25
REMARK    4  A    between atoms: C_14  and  O_30
REMARK    5  A    between atoms: C_18  and  C_22
REMARK    6  A    between atoms: C_18  and  O_30
REMARK                            x       y       z     vdW  Elec       q    Type
REMARK                         _______ _______ _______ _____ _____    ______ ____
ROOT
ATOM      1  C   UNL     1       1.837   0.290   0.000  0.00  0.00    +0.000 C 
ATOM      2  C   UNL     1       3.352   1.110   0.000  0.00  0.00    +0.000 C 
ATOM      3  C   UNL     1       3.352   1.935   0.000  0.00  0.00    +0.000 C 
ATOM      4  C   UNL     1       2.638   3.173   0.000  0.00  0.00    +0.000 C 
ATOM      5  C   UNL     1       0.654   1.523   0.000  0.00  0.00    +0.000 C 
ATOM      6  C   UNL     1       1.139   2.190   0.000  0.00  0.00    +0.000 C 
ATOM      7  C   UNL     1       2.638   0.698   0.000  0.00  0.00    +0.000 C 
ATOM      8  C   UNL     1       2.638   2.348   0.000  0.00  0.00    +0.000 C 
ATOM      9  C   UNL     1       1.139   0.856   0.000  0.00  0.00    +0.000 C 
ATOM     10  C   UNL     1       1.923   1.935   0.000  0.00  0.00    +0.000 C 
ATOM     11  C   UNL     1       1.923   1.110   0.000  0.00  0.00    +0.000 C 
ENDROOT
BRANCH   4  13
ATOM     12  C   UNL     1       4.781   4.410   0.000  0.00  0.00    +0.000 C 
ATOM     13  C   UNL     1       3.352   3.585   0.000  0.00  0.00    +0.000 C 
ATOM     14  C   UNL     1       2.638   4.823   0.000  0.00  0.00    +0.000 C 
ATOM     15  C   UNL     1       3.352   6.060   0.000  0.00  0.00    +0.000 C 
ATOM     16  C   UNL     1       4.067   4.823   0.000  0.00  0.00    +0.000 C 
ATOM     17  C   UNL     1       3.352   4.410   0.000  0.00  0.00    +0.000 C 
ATOM     18  C   UNL     1       2.638   5.648   0.000  0.00  0.00    +0.000 C 
ATOM     19  C   UNL     1       4.067   5.648   0.000  0.00  0.00    +0.000 C 
ATOM     20  O   UNL     1       1.923   6.060   0.000  0.00  0.00    +0.000 OA
ATOM     21  O   UNL     1       4.781   6.060   0.000  0.00  0.00    +0.000 OA
ENDBRANCH   4  13
BRANCH   9  23
ATOM     22  C   UNL     1       1.436  -0.542   0.000  0.00  0.00    +0.000 C 
ATOM     23  C   UNL     1       0.884   0.071   0.000  0.00  0.00    +0.000 C 
BRANCH  23  24
ATOM     24  O   UNL     1       0.077  -0.101   0.000  0.00  0.00    +0.000 OA
BRANCH  24  25
ATOM     25  C   UNL     1      -0.178  -0.885   0.000  0.00  0.00    +0.000 C 
BRANCH  25  26
ATOM     26  C   UNL     1      -0.985  -1.057   0.000  0.00  0.00    +0.000 C 
BRANCH  26  29
ATOM     27  C   UNL     1      -1.495  -2.626   0.000  0.00  0.00    +0.000 C 
ATOM     28  C   UNL     1      -0.455  -2.096   0.000  0.00  0.00    +0.000 C 
ATOM     29  C   UNL     1      -1.240  -1.841   0.000  0.00  0.00    +0.000 C 
ATOM     30  O   UNL     1      -2.025  -1.587   0.000  0.00  0.00    +0.000 OA
ENDBRANCH  26  29
ENDBRANCH  25  26
ENDBRANCH  24  25
ENDBRANCH  23  24
ENDBRANCH   9  23
TORSDOF 6
