REMARK  Name = 
REMARK  9 active torsions:
REMARK  status: ('A' for Active; 'I' for Inactive)
REMARK    1  A    between atoms: C_10  and  C_11
REMARK    2  A    between atoms: C_10  and  N_23
REMARK    3  A    between atoms: C_11  and  O_25
REMARK    4  A    between atoms: C_12  and  C_14
REMARK    5  A    between atoms: C_12  and  C_15
REMARK    6  A    between atoms: C_14  and  N_23
REMARK    7  A    between atoms: C_16  and  C_18
REMARK    8  A    between atoms: C_17  and  C_19
REMARK    9  A    between atoms: C_18  and  O_25
REMARK                            x       y       z     vdW  Elec       q    Type
REMARK                         _______ _______ _______ _____ _____    ______ ____
ROOT
ATOM      1  C   UNL     1       7.859  -2.888   0.000  0.00  0.00    +0.000 C 
ATOM      2  C   UNL     1       7.859  -3.712   0.000  0.00  0.00    +0.000 C 
ENDROOT
BRANCH   2   3
ATOM      3  C   UNL     1       8.574  -4.125   0.000  0.00  0.00    +0.000 C 
BRANCH   3   8
ATOM      4  C   UNL     1      10.002  -2.475   0.000  0.00  0.00    +0.000 A 
ATOM      5  C   UNL     1       9.288  -2.888   0.000  0.00  0.00    +0.000 A 
ATOM      6  C   UNL     1      10.717  -2.888   0.000  0.00  0.00    +0.000 A 
ATOM      7  C   UNL     1      10.002  -4.125   0.000  0.00  0.00    +0.000 A 
ATOM      8  C   UNL     1       9.288  -3.712   0.000  0.00  0.00    +0.000 A 
ATOM      9  C   UNL     1      10.717  -3.712   0.000  0.00  0.00    +0.000 A 
BRANCH   9  10
ATOM     10  C   UNL     1      11.431  -4.125   0.000  0.00  0.00    +0.000 C 
ATOM     11  F   UNL     1      12.146  -4.537   0.000  0.00  0.00    +0.000 F 
ATOM     12  F   UNL     1      11.019  -4.839   0.000  0.00  0.00    +0.000 F 
ATOM     13  F   UNL     1      11.844  -3.410   0.000  0.00  0.00    +0.000 F 
ENDBRANCH   9  10
ENDBRANCH   3   8
ENDBRANCH   2   3
BRANCH   2  14
ATOM     14  N   UNL     1       7.145  -4.125   0.000  0.00  0.00    +0.000 NA
BRANCH  14  15
ATOM     15  C   UNL     1       6.430  -3.712   0.000  0.00  0.00    +0.000 C 
BRANCH  15  16
ATOM     16  C   UNL     1       5.716  -4.125   0.000  0.00  0.00    +0.000 C 
BRANCH  16  17
ATOM     17  O   UNL     1       5.001  -3.712   0.000  0.00  0.00    +0.000 OA
BRANCH  17  18
ATOM     18  C   UNL     1       4.287  -4.125   0.000  0.00  0.00    +0.000 C 
ATOM     19  O   UNL     1       4.287  -4.950   0.000  0.00  0.00    +0.000 OA
BRANCH  18  25
ATOM     20  C   UNL     1       2.143  -2.888   0.000  0.00  0.00    +0.000 A 
ATOM     21  C   UNL     1       2.143  -3.712   0.000  0.00  0.00    +0.000 A 
ATOM     22  C   UNL     1       2.858  -2.475   0.000  0.00  0.00    +0.000 A 
ATOM     23  C   UNL     1       2.858  -4.125   0.000  0.00  0.00    +0.000 A 
ATOM     24  C   UNL     1       3.572  -2.888   0.000  0.00  0.00    +0.000 A 
ATOM     25  C   UNL     1       3.572  -3.712   0.000  0.00  0.00    +0.000 A 
ENDBRANCH  18  25
ENDBRANCH  17  18
ENDBRANCH  16  17
ENDBRANCH  15  16
ENDBRANCH  14  15
ENDBRANCH   2  14
TORSDOF 9
