REMARK  Name = 
REMARK  9 active torsions:
REMARK  status: ('A' for Active; 'I' for Inactive)
REMARK    1  A    between atoms: C_1  and  O_4
REMARK    2  A    between atoms: C_1  and  C_5
REMARK    3  A    between atoms: O_4  and  P_8
REMARK    4  A    between atoms: C_6  and  C_32
REMARK    5  A    between atoms: P_8  and  O_13
REMARK    6  A    between atoms: O_13  and  C_16
REMARK    7  A    between atoms: C_16  and  C_17
REMARK    8  A    between atoms: C_20  and  N_23
REMARK    9  A    between atoms: C_32  and  C_33
REMARK                            x       y       z     vdW  Elec       q    Type
REMARK                         _______ _______ _______ _____ _____    ______ ____
ROOT
ATOM      1  P   UNL     1      13.935 -11.028   0.000  0.00  0.00    +0.000 P 
ATOM      2  O   UNL     1      13.935 -11.932   0.000  0.00  0.00    +0.000 OA
ATOM      3  O   UNL     1      13.935 -10.076   0.000  0.00  0.00    +0.000 OA
ENDROOT
BRANCH   1   4
ATOM      4  O   UNL     1      14.749 -11.028   0.000  0.00  0.00    +0.000 OA
BRANCH   4   5
ATOM      5  C   UNL     1      15.571 -11.028   0.000  0.00  0.00    +0.000 C 
BRANCH   5   6
ATOM      6  C   UNL     1      16.349 -11.271   0.000  0.00  0.00    +0.000 C 
ATOM      7  O   UNL     1      17.011 -10.789   0.000  0.00  0.00    +0.000 OA
ATOM      8  C   UNL     1      16.609 -12.048   0.000  0.00  0.00    +0.000 C 
ATOM      9  C   UNL     1      17.684 -11.281   0.000  0.00  0.00    +0.000 C 
ATOM     10  C   UNL     1      17.442 -12.048   0.000  0.00  0.00    +0.000 C 
ATOM     11  O   UNL     1      16.139 -12.714   0.000  0.00  0.00    +0.000 OA
ATOM     12  O   UNL     1      17.923 -12.707   0.000  0.00  0.00    +0.000 OA
BRANCH   9  13
ATOM     13  N   UNL     1      18.205  -9.909   0.000  0.00  0.00    +0.000 N 
ATOM     14  C   UNL     1      17.488  -9.494   0.000  0.00  0.00    +0.000 A 
ATOM     15  C   UNL     1      18.921  -9.508   0.000  0.00  0.00    +0.000 A 
ATOM     16  N   UNL     1      17.463  -8.672   0.000  0.00  0.00    +0.000 NA
ATOM     17  O   UNL     1      16.783  -9.899   0.000  0.00  0.00    +0.000 OA
ATOM     18  C   UNL     1      18.921  -8.676   0.000  0.00  0.00    +0.000 A 
ATOM     19  C   UNL     1      18.209  -8.260   0.000  0.00  0.00    +0.000 A 
ATOM     20  N   UNL     1      18.209  -7.442   0.000  0.00  0.00    +0.000 NA
ENDBRANCH   9  13
ENDBRANCH   5   6
ENDBRANCH   4   5
ENDBRANCH   1   4
BRANCH   1  21
ATOM     21  O   UNL     1      13.110 -11.028   0.000  0.00  0.00    +0.000 OA
BRANCH  21  22
ATOM     22  C   UNL     1      11.801 -10.044   0.000  0.00  0.00    +0.000 C 
ATOM     23  O   UNL     1      11.087  -9.631   0.000  0.00  0.00    +0.000 OA
ATOM     24  C   UNL     1      11.801 -10.865   0.000  0.00  0.00    +0.000 C 
ATOM     25  C   UNL     1      10.375 -10.044   0.000  0.00  0.00    +0.000 C 
ATOM     26  C   UNL     1      11.087 -11.289   0.000  0.00  0.00    +0.000 C 
ATOM     27  C   UNL     1      10.375 -10.865   0.000  0.00  0.00    +0.000 C 
ATOM     28  O   UNL     1      11.091 -12.102   0.000  0.00  0.00    +0.000 OA
ATOM     29  O   UNL     1       9.495 -11.464   0.000  0.00  0.00    +0.000 OA
BRANCH  22  30
ATOM     30  C   UNL     1      12.506  -9.631   0.000  0.00  0.00    +0.000 C 
ATOM     31  O   UNL     1      12.488  -8.813   0.000  0.00  0.00    +0.000 OA
ATOM     32  O   UNL     1      13.211 -10.044   0.000  0.00  0.00    +0.000 OA
ENDBRANCH  22  30
BRANCH  25  33
ATOM     33  C   UNL     1       9.627  -9.599   0.000  0.00  0.00    +0.000 C 
ATOM     34  O   UNL     1       8.876 -10.024   0.000  0.00  0.00    +0.000 OA
BRANCH  33  35
ATOM     35  C   UNL     1       9.630  -8.739   0.000  0.00  0.00    +0.000 C 
ATOM     36  O   UNL     1       8.887  -8.306   0.000  0.00  0.00    +0.000 OA
ENDBRANCH  33  35
ENDBRANCH  25  33
ENDBRANCH  21  22
ENDBRANCH   1  21
TORSDOF 9
