REMARK  Name = 
REMARK  7 active torsions:
REMARK  status: ('A' for Active; 'I' for Inactive)
REMARK    1  A    between atoms: C_2  and  C_3
REMARK    2  A    between atoms: C_2  and  C_9
REMARK    3  A    between atoms: C_3  and  O_4
REMARK    4  A    between atoms: O_4  and  P_5
REMARK    5  A    between atoms: C_9  and  C_11
REMARK    6  A    between atoms: C_11  and  C_13
REMARK    7  A    between atoms: C_13  and  C_15
REMARK                            x       y       z     vdW  Elec       q    Type
REMARK                         _______ _______ _______ _____ _____    ______ ____
ROOT
ATOM      1  C   UNL     1       5.856   2.556   0.000  0.00  0.00    +0.000 C 
ATOM      2  O   UNL     1       5.856   3.381   0.000  0.00  0.00    +0.000 OA
ENDROOT
BRANCH   1   4
ATOM      3  O   UNL     1       5.141   1.318   0.000  0.00  0.00    +0.000 OA
ATOM      4  C   UNL     1       5.141   2.143   0.000  0.00  0.00    +0.000 C 
BRANCH   4   5
ATOM      5  C   UNL     1       4.427   2.556   0.000  0.00  0.00    +0.000 C 
BRANCH   5   6
ATOM      6  O   UNL     1       3.712   2.143   0.000  0.00  0.00    +0.000 OA
BRANCH   6   7
ATOM      7  P   UNL     1       2.998   2.556   0.000  0.00  0.00    +0.000 P 
ATOM      8  O   UNL     1       2.284   2.968   0.000  0.00  0.00    +0.000 OA
ATOM      9  O   UNL     1       2.586   1.841   0.000  0.00  0.00    +0.000 OA
ATOM     10  O   UNL     1       3.410   3.270   0.000  0.00  0.00    +0.000 OA
ENDBRANCH   6   7
ENDBRANCH   5   6
ENDBRANCH   4   5
ENDBRANCH   1   4
BRANCH   1  11
ATOM     11  C   UNL     1       6.570   2.143   0.000  0.00  0.00    +0.000 C 
ATOM     12  O   UNL     1       6.570   1.318   0.000  0.00  0.00    +0.000 OA
BRANCH  11  13
ATOM     13  C   UNL     1       7.285   2.556   0.000  0.00  0.00    +0.000 C 
ATOM     14  O   UNL     1       7.285   3.381   0.000  0.00  0.00    +0.000 OA
BRANCH  13  15
ATOM     15  C   UNL     1       7.999   2.143   0.000  0.00  0.00    +0.000 C 
ATOM     16  O   UNL     1       8.714   2.556   0.000  0.00  0.00    +0.000 OA
ATOM     17  O   UNL     1       7.999   1.318   0.000  0.00  0.00    +0.000 OA
ENDBRANCH  13  15
ENDBRANCH  11  13
ENDBRANCH   1  11
TORSDOF 7
