REMARK  Name = 
REMARK  2 active torsions:
REMARK  status: ('A' for Active; 'I' for Inactive)
REMARK    1  A    between atoms: C_2  and  C_6
REMARK    2  A    between atoms: C_6  and  C_7
REMARK                            x       y       z     vdW  Elec       q    Type
REMARK                         _______ _______ _______ _____ _____    ______ ____
ROOT
ATOM      1  C   UNL     1       4.672 -11.974   0.000  0.00  0.00    +0.000 A 
ATOM      2  C   UNL     1       4.416 -12.765   0.000  0.00  0.00    +0.000 A 
ATOM      3  N   UNL     1       4.001 -11.486   0.000  0.00  0.00    +0.000 NA
ATOM      4  N   UNL     1       3.583 -12.765   0.000  0.00  0.00    +0.000 NA
ATOM      5  C   UNL     1       3.328 -11.974   0.000  0.00  0.00    +0.000 A 
ENDROOT
BRANCH   2   6
ATOM      6  C   UNL     1       5.127 -13.173   0.000  0.00  0.00    +0.000 C 
BRANCH   6   7
ATOM      7  C   UNL     1       5.841 -12.760   0.000  0.00  0.00    +0.000 C 
ATOM      8  N   UNL     1       6.555 -13.169   0.000  0.00  0.00    +0.000 NA
ENDBRANCH   6   7
ENDBRANCH   2   6
TORSDOF 2
