REMARK  Name = 
REMARK  1 active torsions:
REMARK  status: ('A' for Active; 'I' for Inactive)
REMARK    1  A    between atoms: C_5  and  C_8
REMARK                            x       y       z     vdW  Elec       q    Type
REMARK                         _______ _______ _______ _____ _____    ______ ____
ROOT
ATOM      1  C   UNK     1       1.120   1.727   0.000  0.00  0.00    +0.000 C 
ATOM      2  C   UNK     1       0.568   1.114   0.000  0.00  0.00    +0.000 C 
ATOM      3  C   UNK     1       0.016   1.727   0.000  0.00  0.00    +0.000 C 
ATOM      4  N   UNK     1       1.235   0.629   0.000  0.00  0.00    +0.000 NA
ATOM      5  C   UNK     1       0.980  -0.155   0.000  0.00  0.00    +0.000 C 
ATOM      6  C   UNK     1       0.155  -0.155   0.000  0.00  0.00    +0.000 C 
ATOM      7  S   UNK     1      -0.100   0.629   0.000  0.00  0.00    +0.000 S 
ENDROOT
BRANCH   5   8
ATOM      8  C   UNK     1       1.465  -0.823   0.000  0.00  0.00    +0.000 C 
ATOM      9  O   UNK     1       2.286  -0.737   0.000  0.00  0.00    +0.000 OA
ATOM     10  O   UNK     1       1.130  -1.576   0.000  0.00  0.00    +0.000 OA
ENDBRANCH   5   8
TORSDOF 1
