REMARK  Name = 
REMARK  8 active torsions:
REMARK  status: ('A' for Active; 'I' for Inactive)
REMARK    1  A    between atoms: O_4  and  C_17
REMARK    2  A    between atoms: O_4  and  C_18
REMARK    3  A    between atoms: N_6  and  C_11
REMARK    4  A    between atoms: N_7  and  C_19
REMARK    5  A    between atoms: N_8  and  C_25
REMARK    6  A    between atoms: C_11  and  C_14
REMARK    7  A    between atoms: C_14  and  C_17
REMARK    8  A    between atoms: C_27  and  C_32
REMARK                            x       y       z     vdW  Elec       q    Type
REMARK                         _______ _______ _______ _____ _____    ______ ____
ROOT
ATOM      1  N   UNL     1       7.380  -1.862   0.000  0.00  0.00    +0.000 NA
ATOM      2  N   UNL     1       7.389   0.670   0.000  0.00  0.00    +0.000 NA
ATOM      3  N   UNL     1       8.136  -0.614   0.000  0.00  0.00    +0.000 NA
ATOM      4  C   UNL     1       5.222   0.229   0.000  0.00  0.00    +0.000 A 
ATOM      5  C   UNL     1       5.222  -0.596   0.000  0.00  0.00    +0.000 A 
ATOM      6  C   UNL     1       6.652  -0.596   0.000  0.00  0.00    +0.000 A 
ATOM      7  C   UNL     1       5.937   0.641   0.000  0.00  0.00    +0.000 A 
ATOM      8  C   UNL     1       6.652   0.229   0.000  0.00  0.00    +0.000 A 
ATOM      9  C   UNL     1       5.937  -1.009   0.000  0.00  0.00    +0.000 A 
ATOM     10  C   UNL     1       7.389  -1.038   0.000  0.00  0.00    +0.000 A 
ATOM     11  C   UNL     1       8.136   0.246   0.000  0.00  0.00    +0.000 A 
ENDROOT
BRANCH   1  14
ATOM     12 CL   UNL     1       8.780  -4.354   0.000  0.00  0.00    +0.000 Cl
ATOM     13  F   UNL     1      10.218  -3.545   0.000  0.00  0.00    +0.000 F 
ATOM     14  C   UNL     1       8.089  -2.283   0.000  0.00  0.00    +0.000 A 
ATOM     15  C   UNL     1       8.080  -3.108   0.000  0.00  0.00    +0.000 A 
ATOM     16  C   UNL     1       8.808  -1.879   0.000  0.00  0.00    +0.000 A 
ATOM     17  C   UNL     1       8.789  -3.529   0.000  0.00  0.00    +0.000 A 
ATOM     18  C   UNL     1       9.518  -2.300   0.000  0.00  0.00    +0.000 A 
ATOM     19  C   UNL     1       9.508  -3.125   0.000  0.00  0.00    +0.000 A 
ENDBRANCH   1  14
BRANCH   5  21
ATOM     20  O   UNL     1       3.793   0.229   0.000  0.00  0.00    +0.000 OA
ATOM     21  N   UNL     1       4.508  -1.009   0.000  0.00  0.00    +0.000 NA
ATOM     22  C   UNL     1       3.793  -0.596   0.000  0.00  0.00    +0.000 C 
BRANCH  22  23
ATOM     23  C   UNL     1       3.079  -1.009   0.000  0.00  0.00    +0.000 C 
ATOM     24  C   UNL     1       2.365  -0.596   0.000  0.00  0.00    +0.000 C 
ENDBRANCH  22  23
ENDBRANCH   5  21
BRANCH   4  25
ATOM     25  O   UNL     1       4.508   0.641   0.000  0.00  0.00    +0.000 OA
BRANCH  25  26
ATOM     26  C   UNL     1       4.508   1.466   0.000  0.00  0.00    +0.000 C 
BRANCH  26  27
ATOM     27  C   UNL     1       3.793   1.879   0.000  0.00  0.00    +0.000 C 
BRANCH  27  28
ATOM     28  C   UNL     1       3.793   2.704   0.000  0.00  0.00    +0.000 C 
BRANCH  28  30
ATOM     29  O   UNL     1       1.650   3.941   0.000  0.00  0.00    +0.000 OA
ATOM     30  N   UNL     1       3.079   3.116   0.000  0.00  0.00    +0.000 NA
ATOM     31  C   UNL     1       2.365   2.704   0.000  0.00  0.00    +0.000 C 
ATOM     32  C   UNL     1       3.079   3.941   0.000  0.00  0.00    +0.000 C 
ATOM     33  C   UNL     1       1.650   3.116   0.000  0.00  0.00    +0.000 C 
ATOM     34  C   UNL     1       2.365   4.354   0.000  0.00  0.00    +0.000 C 
ENDBRANCH  28  30
ENDBRANCH  27  28
ENDBRANCH  26  27
ENDBRANCH  25  26
ENDBRANCH   4  25
TORSDOF 8
