REMARK  Name = 
REMARK  3 active torsions:
REMARK  status: ('A' for Active; 'I' for Inactive)
REMARK    1  A    between atoms: C_13  and  C_24
REMARK    2  A    between atoms: C_16  and  N_31
REMARK    3  A    between atoms: C_21  and  C_23
REMARK                            x       y       z     vdW  Elec       q    Type
REMARK                         _______ _______ _______ _____ _____    ______ ____
ROOT
ATOM      1  C   UNL     1       3.964  -1.887   0.000  0.00  0.00    +0.000 A 
ATOM      2  C   UNL     1       3.148  -1.764   0.000  0.00  0.00    +0.000 A 
ATOM      3  C   UNL     1       4.177  -0.474   0.000  0.00  0.00    +0.000 A 
ATOM      4  C   UNL     1       1.691   0.453   0.000  0.00  0.00    +0.000 C 
ATOM      5  C   UNL     1       0.692  -0.474   0.000  0.00  0.00    +0.000 A 
ATOM      6  C   UNL     1       1.508  -0.351   0.000  0.00  0.00    +0.000 A 
ATOM      7  C   UNL     1       4.479  -1.242   0.000  0.00  0.00    +0.000 A 
ATOM      8  C   UNL     1       2.847  -0.996   0.000  0.00  0.00    +0.000 A 
ATOM      9  C   UNL     1       3.361  -0.351   0.000  0.00  0.00    +0.000 A 
ATOM     10  C   UNL     1       2.022  -0.996   0.000  0.00  0.00    +0.000 A 
ATOM     11  C   UNL     1       3.178   0.453   0.000  0.00  0.00    +0.000 C 
ATOM     12  C   UNL     1       0.905  -1.887   0.000  0.00  0.00    +0.000 A 
ATOM     13 CL   UNL     1       5.294  -1.365   0.000  0.00  0.00    +0.000 Cl
ATOM     14  N   UNL     1       2.434   0.811   0.000  0.00  0.00    +0.000 NA
ATOM     15  N   UNL     1       0.390  -1.242   0.000  0.00  0.00    +0.000 NA
ATOM     16  N   UNL     1       0.603  -2.655   0.000  0.00  0.00    +0.000 NA
ATOM     17  N   UNL     1       1.720  -1.764   0.000  0.00  0.00    +0.000 NA
ENDROOT
BRANCH  11  23
ATOM     18  C   UNL     1       5.113   1.996   0.000  0.00  0.00    +0.000 A 
ATOM     19  C   UNL     1       4.345   2.298   0.000  0.00  0.00    +0.000 A 
ATOM     20  C   UNL     1       5.236   1.181   0.000  0.00  0.00    +0.000 A 
ATOM     21  C   UNL     1       3.700   1.783   0.000  0.00  0.00    +0.000 A 
ATOM     22  C   UNL     1       4.591   0.666   0.000  0.00  0.00    +0.000 A 
ATOM     23  C   UNL     1       3.823   0.968   0.000  0.00  0.00    +0.000 A 
ATOM     24  F   UNL     1       2.932   2.085   0.000  0.00  0.00    +0.000 F 
ATOM     25  F   UNL     1       4.714  -0.150   0.000  0.00  0.00    +0.000 F 
ENDBRANCH  11  23
BRANCH  16  31
ATOM     26  C   UNL     1      -1.330  -3.669   0.000  0.00  0.00    +0.000 A 
ATOM     27  C   UNL     1      -1.543  -2.256   0.000  0.00  0.00    +0.000 A 
ATOM     28  C   UNL     1      -0.514  -3.546   0.000  0.00  0.00    +0.000 A 
ATOM     29  C   UNL     1      -0.727  -2.133   0.000  0.00  0.00    +0.000 A 
ATOM     30  C   UNL     1      -1.844  -3.024   0.000  0.00  0.00    +0.000 A 
ATOM     31  C   UNL     1      -0.212  -2.778   0.000  0.00  0.00    +0.000 A 
BRANCH  30  32
ATOM     32  C   UNL     1      -2.660  -3.147   0.000  0.00  0.00    +0.000 C 
ATOM     33  O   UNL     1      -2.961  -3.915   0.000  0.00  0.00    +0.000 OA
ATOM     34  O   UNL     1      -3.174  -2.502   0.000  0.00  0.00    +0.000 OA
ENDBRANCH  30  32
ENDBRANCH  16  31
TORSDOF 3
