REMARK  Name = 
REMARK  2 active torsions:
REMARK  status: ('A' for Active; 'I' for Inactive)
REMARK    1  A    between atoms: C_23  and  C_26
REMARK    2  A    between atoms: C_26  and  C_27
REMARK                            x       y       z     vdW  Elec       q    Type
REMARK                         _______ _______ _______ _____ _____    ______ ____
ROOT
ATOM      1  C   UNL     1       5.776  -5.776   0.000  0.00  0.00    +0.000 C 
ATOM      2  C   UNL     1       5.776  -6.571   0.000  0.00  0.00    +0.000 C 
ATOM      3  C   UNL     1       6.487  -6.989   0.000  0.00  0.00    +0.000 C 
ATOM      4  C   UNL     1       7.198  -6.571   0.000  0.00  0.00    +0.000 C 
ATOM      5  C   UNL     1       7.198  -5.776   0.000  0.00  0.00    +0.000 C 
ATOM      6  C   UNL     1       6.487  -5.357   0.000  0.00  0.00    +0.000 C 
ATOM      7  C   UNL     1       7.909  -6.989   0.000  0.00  0.00    +0.000 C 
ATOM      8  C   UNL     1       8.579  -6.571   0.000  0.00  0.00    +0.000 C 
ATOM      9  C   UNL     1       8.579  -5.776   0.000  0.00  0.00    +0.000 C 
ATOM     10  C   UNL     1       7.909  -5.357   0.000  0.00  0.00    +0.000 C 
ATOM     11  C   UNL     1       9.290  -5.357   0.000  0.00  0.00    +0.000 C 
ATOM     12  C   UNL     1       9.290  -4.563   0.000  0.00  0.00    +0.000 C 
ATOM     13  C   UNL     1       8.579  -4.144   0.000  0.00  0.00    +0.000 C 
ATOM     14  C   UNL     1       7.909  -4.563   0.000  0.00  0.00    +0.000 C 
ATOM     15  F   UNL     1       7.909  -7.826   0.000  0.00  0.00    +0.000 F 
ATOM     16 CL   UNL     1       7.909  -6.194   0.000  0.00  0.00    +0.000 Cl
ATOM     17  C   UNL     1       9.248  -3.726   0.000  0.00  0.00    +0.000 C 
ATOM     18  C   UNL     1       7.198  -4.981   0.000  0.00  0.00    +0.000 C 
ATOM     19  O   UNL     1       5.064  -6.989   0.000  0.00  0.00    +0.000 OA
ATOM     20  O   UNL     1       7.198  -4.144   0.000  0.00  0.00    +0.000 OA
ATOM     21  C   UNL     1      10.046  -4.317   0.000  0.00  0.00    +0.000 C 
ATOM     22  C   UNL     1      10.513  -4.960   0.000  0.00  0.00    +0.000 C 
ATOM     23  C   UNL     1      10.046  -5.603   0.000  0.00  0.00    +0.000 C 
ATOM     24  C   UNL     1      11.338  -4.960   0.000  0.00  0.00    +0.000 C 
ENDROOT
BRANCH  21  25
ATOM     25  C   UNL     1      10.301  -3.532   0.000  0.00  0.00    +0.000 C 
ATOM     26  O   UNL     1       9.749  -2.919   0.000  0.00  0.00    +0.000 OA
BRANCH  25  27
ATOM     27  C   UNL     1      11.108  -3.361   0.000  0.00  0.00    +0.000 C 
ATOM     28  O   UNL     1      11.660  -3.974   0.000  0.00  0.00    +0.000 OA
ENDBRANCH  25  27
ENDBRANCH  21  25
TORSDOF 2
