REMARK  Name = 
REMARK  10 active torsions:
REMARK  status: ('A' for Active; 'I' for Inactive)
REMARK    1  A    between atoms: C_7  and  C_13
REMARK    2  A    between atoms: C_7  and  O_31
REMARK    3  A    between atoms: C_10  and  C_18
REMARK    4  A    between atoms: C_11  and  N_20
REMARK    5  A    between atoms: C_12  and  O_33
REMARK    6  A    between atoms: C_14  and  N_24
REMARK    7  A    between atoms: C_18  and  O_33
REMARK    8  A    between atoms: O_31  and  P_36
REMARK    9  A    between atoms: O_34  and  P_35
REMARK   10  A    between atoms: O_34  and  P_36
REMARK                            x       y       z     vdW  Elec       q    Type
REMARK                         _______ _______ _______ _____ _____    ______ ____
ROOT
ATOM      1  C   UNL     1       0.099  -0.184   0.000  0.00  0.00    +0.000 C 
ATOM      2  C   UNL     1       0.099  -1.009   0.000  0.00  0.00    +0.000 C 
ATOM      3  C   UNL     1       0.884  -1.264   0.000  0.00  0.00    +0.000 C 
ATOM      4  C   UNL     1       0.884   0.071   0.000  0.00  0.00    +0.000 C 
ATOM      5  O   UNL     1       1.369  -0.597   0.000  0.00  0.00    +0.000 OA
ENDROOT
BRANCH   4  15
ATOM      6  C   UNL     1       3.352   1.110   0.000  0.00  0.00    +0.000 A 
ATOM      7  C   UNL     1       0.654   1.523   0.000  0.00  0.00    +0.000 A 
ATOM      8  C   UNL     1       1.923   1.935   0.000  0.00  0.00    +0.000 A 
ATOM      9  C   UNL     1       2.638   2.348   0.000  0.00  0.00    +0.000 A 
ATOM     10  C   UNL     1       1.923   1.110   0.000  0.00  0.00    +0.000 A 
ATOM     11  N   UNL     1       2.638   3.173   0.000  0.00  0.00    +0.000 NA
ATOM     12  N   UNL     1       3.352   1.935   0.000  0.00  0.00    +0.000 NA
ATOM     13  N   UNL     1       2.638   0.698   0.000  0.00  0.00    +0.000 NA
ATOM     14  N   UNL     1       1.139   2.190   0.000  0.00  0.00    +0.000 NA
ATOM     15  N   UNL     1       1.139   0.856   0.000  0.00  0.00    +0.000 N 
ENDBRANCH   4  15
BRANCH   3  16
ATOM     16  C   UNL     1       1.139  -2.049   0.000  0.00  0.00    +0.000 C 
BRANCH  16  17
ATOM     17  O   UNL     1       1.946  -2.220   0.000  0.00  0.00    +0.000 OA
BRANCH  17  20
ATOM     18  O   UNL     1       3.050  -0.994   0.000  0.00  0.00    +0.000 OA
ATOM     19  O   UNL     1       1.885  -1.055   0.000  0.00  0.00    +0.000 OA
ATOM     20  P   UNL     1       2.498  -1.607   0.000  0.00  0.00    +0.000 P 
BRANCH  20  21
ATOM     21  O   UNL     1       3.111  -2.159   0.000  0.00  0.00    +0.000 OA
BRANCH  21  25
ATOM     22  O   UNL     1       2.768  -3.773   0.000  0.00  0.00    +0.000 OA
ATOM     23  O   UNL     1       3.746  -3.138   0.000  0.00  0.00    +0.000 OA
ATOM     24  O   UNL     1       2.132  -2.795   0.000  0.00  0.00    +0.000 OA
ATOM     25  P   UNL     1       2.939  -2.966   0.000  0.00  0.00    +0.000 P 
ENDBRANCH  21  25
ENDBRANCH  20  21
ENDBRANCH  17  20
ENDBRANCH  16  17
ENDBRANCH   3  16
BRANCH   2  26
ATOM     26  O   UNL     1      -0.568  -1.494   0.000  0.00  0.00    +0.000 OA
BRANCH  26  27
ATOM     27  C   UNL     1      -0.482  -2.314   0.000  0.00  0.00    +0.000 C 
ATOM     28  O   UNL     1       0.272  -2.650   0.000  0.00  0.00    +0.000 OA
BRANCH  27  33
ATOM     29  C   UNL     1      -2.571  -2.949   0.000  0.00  0.00    +0.000 A 
ATOM     30  C   UNL     1      -2.484  -3.769   0.000  0.00  0.00    +0.000 A 
ATOM     31  C   UNL     1      -1.903  -2.464   0.000  0.00  0.00    +0.000 A 
ATOM     32  C   UNL     1      -1.731  -4.105   0.000  0.00  0.00    +0.000 A 
ATOM     33  C   UNL     1      -1.149  -2.799   0.000  0.00  0.00    +0.000 A 
ATOM     34  C   UNL     1      -1.063  -3.620   0.000  0.00  0.00    +0.000 A 
BRANCH  34  36
ATOM     35  C   UNL     1      -0.223  -4.776   0.000  0.00  0.00    +0.000 C 
ATOM     36  N   UNL     1      -0.310  -3.955   0.000  0.00  0.00    +0.000 NA
ENDBRANCH  34  36
ENDBRANCH  27  33
ENDBRANCH  26  27
ENDBRANCH   2  26
TORSDOF 10
