REMARK  Name = 
REMARK  0 active torsions:
REMARK  status: ('A' for Active; 'I' for Inactive)
REMARK                            x       y       z     vdW  Elec       q    Type
REMARK                         _______ _______ _______ _____ _____    ______ ____
ROOT
ATOM      1  N   UNL     1      -3.188   1.344   0.000  0.00  0.00    +0.000 NA
ATOM      2  N   UNL     1      -2.473   0.106   0.000  0.00  0.00    +0.000 NA
ATOM      3  C   UNL     1      -2.473   0.931   0.000  0.00  0.00    +0.000 C 
ATOM      4  N   UNL     1      -1.759   1.344   0.000  0.00  0.00    +0.000 NA
ATOM      5  N   UNL     1      -1.044   0.106   0.000  0.00  0.00    +0.000 NA
ATOM      6  C   UNL     1      -1.044   0.931   0.000  0.00  0.00    +0.000 C 
ATOM      7  C   UNL     1      -0.330   2.169   0.000  0.00  0.00    +0.000 C 
ATOM      8  N   UNL     1      -0.330   1.344   0.000  0.00  0.00    +0.000 N 
ATOM      9  C   UNL     1       0.385   0.931   0.000  0.00  0.00    +0.000 C 
ENDROOT
TORSDOF 0
