REMARK  Name = 
REMARK  5 active torsions:
REMARK  status: ('A' for Active; 'I' for Inactive)
REMARK    1  A    between atoms: C_2  and  C_4
REMARK    2  A    between atoms: C_3  and  C_5
REMARK    3  A    between atoms: C_11  and  S_24
REMARK    4  A    between atoms: C_12  and  O_21
REMARK    5  A    between atoms: C_13  and  S_24
REMARK                            x       y       z     vdW  Elec       q    Type
REMARK                         _______ _______ _______ _____ _____    ______ ____
ROOT
ATOM      1  C   UNL     1       0.000   3.300   0.000  0.00  0.00    +0.000 C 
ATOM      2  C   UNL     1      -0.715   3.712   0.000  0.00  0.00    +0.000 C 
ATOM      3  C   UNL     1      -1.429   3.300   0.000  0.00  0.00    +0.000 C 
ATOM      4  C   UNL     1      -1.429   2.475   0.000  0.00  0.00    +0.000 C 
ATOM      5  C   UNL     1      -0.715   2.062   0.000  0.00  0.00    +0.000 C 
ATOM      6  O   UNL     1      -0.715   4.537   0.000  0.00  0.00    +0.000 OA
ATOM      7  O   UNL     1      -2.143   3.712   0.000  0.00  0.00    +0.000 OA
ATOM      8  O   UNL     1       0.000   2.475   0.000  0.00  0.00    +0.000 OA
ENDROOT
BRANCH   5  10
ATOM      9  C   UNL     1       0.000   0.825   0.000  0.00  0.00    +0.000 C 
ATOM     10  O   UNL     1      -0.715   1.238   0.000  0.00  0.00    +0.000 OA
ENDBRANCH   5  10
BRANCH   1  11
ATOM     11  C   UNL     1       0.715   3.712   0.000  0.00  0.00    +0.000 C 
ATOM     12  O   UNL     1       1.429   3.300   0.000  0.00  0.00    +0.000 OA
ENDBRANCH   1  11
BRANCH   4  13
ATOM     13  S   UNL     1      -2.143   2.062   0.000  0.00  0.00    +0.000 S 
BRANCH  13  18
ATOM     14  C   UNL     1      -3.572   3.712   0.000  0.00  0.00    +0.000 C 
ATOM     15  C   UNL     1      -4.287   3.300   0.000  0.00  0.00    +0.000 C 
ATOM     16  C   UNL     1      -4.287   2.475   0.000  0.00  0.00    +0.000 C 
ATOM     17  C   UNL     1      -3.572   2.062   0.000  0.00  0.00    +0.000 C 
ATOM     18  C   UNL     1      -2.858   2.475   0.000  0.00  0.00    +0.000 C 
ATOM     19  O   UNL     1      -5.001   3.712   0.000  0.00  0.00    +0.000 OA
ATOM     20  O   UNL     1      -5.001   2.062   0.000  0.00  0.00    +0.000 OA
ATOM     21  O   UNL     1      -3.572   1.238   0.000  0.00  0.00    +0.000 OA
ATOM     22  O   UNL     1      -2.858   3.300   0.000  0.00  0.00    +0.000 OA
BRANCH  14  23
ATOM     23  C   UNL     1      -3.572   4.537   0.000  0.00  0.00    +0.000 C 
ATOM     24  O   UNL     1      -2.858   4.950   0.000  0.00  0.00    +0.000 OA
ENDBRANCH  14  23
ENDBRANCH  13  18
ENDBRANCH   4  13
TORSDOF 5
