REMARK  Name = 
REMARK  1 active torsions:
REMARK  status: ('A' for Active; 'I' for Inactive)
REMARK    1  A    between atoms: C_1  and  C_2
REMARK                            x       y       z     vdW  Elec       q    Type
REMARK                         _______ _______ _______ _____ _____    ______ ____
ROOT
ATOM      1  C   UNK     1       1.429   0.825   0.000  0.00  0.00    +0.000 C 
ATOM      2  C   UNK     1       0.715   1.238   0.000  0.00  0.00    +0.000 C 
ATOM      3  C   UNK     1       0.000   0.825   0.000  0.00  0.00    +0.000 C 
ATOM      4  C   UNK     1       0.000   0.000   0.000  0.00  0.00    +0.000 C 
ATOM      5  C   UNK     1       0.715  -0.412   0.000  0.00  0.00    +0.000 C 
ATOM      6  N   UNK     1       1.429   0.000   0.000  0.00  0.00    +0.000 NA
ATOM      7  N   UNK     1       0.715  -1.238   0.000  0.00  0.00    +0.000 NA
ATOM      8  O   UNK     1       0.715   2.062   0.000  0.00  0.00    +0.000 OA
ATOM      9  O   UNK     1      -0.715   1.238   0.000  0.00  0.00    +0.000 OA
ATOM     10  O   UNK     1      -0.715  -0.412   0.000  0.00  0.00    +0.000 OA
ATOM     11  O   UNK     1       1.429  -1.650   0.000  0.00  0.00    +0.000 OA
ENDROOT
BRANCH   1  12
ATOM     12  C   UNK     1       2.143   1.238   0.000  0.00  0.00    +0.000 C 
ATOM     13  O   UNK     1       2.858   0.825   0.000  0.00  0.00    +0.000 OA
ENDBRANCH   1  12
TORSDOF 1
