REMARK  Name = 
REMARK  10 active torsions:
REMARK  status: ('A' for Active; 'I' for Inactive)
REMARK    1  A    between atoms: C_2  and  C_3
REMARK    2  A    between atoms: C_2  and  C_4
REMARK    3  A    between atoms: C_3  and  C_5
REMARK    4  A    between atoms: C_4  and  CA_8
REMARK    5  A    between atoms: C_5  and  C_9
REMARK    6  A    between atoms: CA_6  and  C_10
REMARK    7  A    between atoms: C_7  and  N_13
REMARK    8  A    between atoms: C_7  and  P_22
REMARK    9  A    between atoms: CA_8  and  C_11
REMARK   10  A    between atoms: CA_8  and  N_14
REMARK                            x       y       z     vdW  Elec       q    Type
REMARK                         _______ _______ _______ _____ _____    ______ ____
ROOT
ATOM      1  C   UNL     1       2.062  -2.143   0.000  0.00  0.00    +0.000 C 
ENDROOT
BRANCH   1   2
ATOM      2  C   UNL     1       2.475  -2.858   0.000  0.00  0.00    +0.000 C 
BRANCH   2   3
ATOM      3  CA  UNL     1       3.300  -2.858   0.000  0.00  0.00    +0.000 C 
BRANCH   3   4
ATOM      4  C   UNL     1       3.712  -2.143   0.000  0.00  0.00    +0.000 C 
ATOM      5  O   UNL     1       3.300  -1.429   0.000  0.00  0.00    +0.000 OA
ATOM      6  OXT UNL     1       4.537  -2.143   0.000  0.00  0.00    +0.000 OA
ENDBRANCH   3   4
BRANCH   3   8
ATOM      7  C   UNL     1       3.300  -4.287   0.000  0.00  0.00    +0.000 C 
ATOM      8  N   ACE A   2       3.712  -3.572   0.000  0.00  0.00    +0.000 NA
ATOM      9  O   UNL     1       2.475  -4.287   0.000  0.00  0.00    +0.000 OA
BRANCH   7  10
ATOM     10  CA  UNL     1       3.712  -5.001   0.000  0.00  0.00    +0.000 C 
ATOM     11  N   UNL     1       3.300  -5.716   0.000  0.00  0.00    +0.000 NA
ENDBRANCH   7  10
ENDBRANCH   3   8
ENDBRANCH   2   3
ENDBRANCH   1   2
BRANCH   1  12
ATOM     12  C   UNL     1       1.238  -2.143   0.000  0.00  0.00    +0.000 C 
BRANCH  12  13
ATOM     13  C   UNL     1       0.825  -1.429   0.000  0.00  0.00    +0.000 C 
BRANCH  13  14
ATOM     14  C   UNL     1       0.000  -1.429   0.000  0.00  0.00    +0.000 C 
ATOM     15  N   UNL     1      -0.412  -0.715   0.000  0.00  0.00    +0.000 NA
ATOM     16  O   UNL     1      -0.412  -2.143   0.000  0.00  0.00    +0.000 OA
BRANCH  15  18
ATOM     17  C   UNL     1      -1.650  -1.429   0.000  0.00  0.00    +0.000 C 
ATOM     18  C   UNL     1      -1.238  -0.715   0.000  0.00  0.00    +0.000 C 
BRANCH  18  22
ATOM     19  O   UNL     1      -2.062   0.715   0.000  0.00  0.00    +0.000 OA
ATOM     20  O   UNL     1      -0.935   0.412   0.000  0.00  0.00    +0.000 OA
ATOM     21  O   UNL     1      -2.365  -0.412   0.000  0.00  0.00    +0.000 OA
ATOM     22  P   UNL     1      -1.650   0.000   0.000  0.00  0.00    +0.000 P 
ENDBRANCH  18  22
ENDBRANCH  15  18
ENDBRANCH  13  14
ENDBRANCH  12  13
ENDBRANCH   1  12
TORSDOF 10
