REMARK  Name = 
REMARK  5 active torsions:
REMARK  status: ('A' for Active; 'I' for Inactive)
REMARK    1  A    between atoms: N_6  and  C_7
REMARK    2  A    between atoms: C_7  and  C_8
REMARK    3  A    between atoms: C_8  and  C_9
REMARK    4  A    between atoms: C_9  and  C_10
REMARK    5  A    between atoms: C_10  and  C_12
REMARK                            x       y       z     vdW  Elec       q    Type
REMARK                         _______ _______ _______ _____ _____    ______ ____
ROOT
ATOM      1  C   UNK     1       2.475   1.429   0.000  0.00  0.00    +0.000 C 
ENDROOT
BRANCH   1   7
ATOM      2  C   UNK     1       1.046   3.904   0.000  0.00  0.00    +0.000 C 
ATOM      3  N   UNK     1       1.046   3.079   0.000  0.00  0.00    +0.000 N 
ATOM      4  C   UNK     1       0.332   2.666   0.000  0.00  0.00    +0.000 C 
ATOM      5  C   UNK     1       1.760   2.666   0.000  0.00  0.00    +0.000 C 
ATOM      6  N   UNK     1       2.475   3.079   0.000  0.00  0.00    +0.000 NA
ATOM      7  N   UNK     1       1.760   1.841   0.000  0.00  0.00    +0.000 NA
ENDBRANCH   1   7
BRANCH   1   8
ATOM      8  C   UNK     1       3.189   1.841   0.000  0.00  0.00    +0.000 C 
BRANCH   8   9
ATOM      9  C   UNK     1       3.904   1.429   0.000  0.00  0.00    +0.000 C 
BRANCH   9  10
ATOM     10  C   UNK     1       4.618   1.841   0.000  0.00  0.00    +0.000 C 
ATOM     11  N   UNK     1       4.618   2.666   0.000  0.00  0.00    +0.000 NA
BRANCH  10  12
ATOM     12  C   UNK     1       5.333   1.429   0.000  0.00  0.00    +0.000 C 
ATOM     13  O   UNK     1       6.047   1.841   0.000  0.00  0.00    +0.000 OA
ATOM     14  O   UNK     1       5.333   0.604   0.000  0.00  0.00    +0.000 OA
ENDBRANCH  10  12
ENDBRANCH   9  10
ENDBRANCH   8   9
ENDBRANCH   1   8
TORSDOF 5
