REMARK  Name = 
REMARK  4 active torsions:
REMARK  status: ('A' for Active; 'I' for Inactive)
REMARK    1  A    between atoms: C_10  and  C_13
REMARK    2  A    between atoms: C_10  and  N_25
REMARK    3  A    between atoms: C_13  and  O_28
REMARK    4  A    between atoms: C_19  and  O_28
REMARK                            x       y       z     vdW  Elec       q    Type
REMARK                         _______ _______ _______ _____ _____    ______ ____
ROOT
ATOM      1  C   UNL     1       2.047  -1.223   0.000  0.00  0.00    +0.000 C 
ATOM      2  C   UNL     1       4.387   1.028   0.000  0.00  0.00    +0.000 A 
ATOM      3  C   UNL     1       0.880   1.117   0.000  0.00  0.00    +0.000 C 
ATOM      4  C   UNL     1       0.577   1.856   0.000  0.00  0.00    +0.000 C 
ATOM      5  C   UNL     1       4.698   1.792   0.000  0.00  0.00    +0.000 A 
ATOM      6  C   UNL     1       1.328   0.860   0.000  0.00  0.00    +0.000 C 
ATOM      7  C   UNL     1       1.184  -0.027   0.000  0.00  0.00    +0.000 C 
ATOM      8  C   UNL     1       3.263   0.191   0.000  0.00  0.00    +0.000 C 
ATOM      9  C   UNL     1       3.562   0.941   0.000  0.00  0.00    +0.000 A 
ATOM     10  C   UNL     1       1.850   0.967   0.000  0.00  0.00    +0.000 C 
ATOM     11  C   UNL     1       2.448   0.177   0.000  0.00  0.00    +0.000 C 
ATOM     12  C   UNL     1       1.136   2.458   0.000  0.00  0.00    +0.000 C 
ATOM     13  C   UNL     1       4.179   2.448   0.000  0.00  0.00    +0.000 A 
ATOM     14  C   UNL     1       3.042   1.587   0.000  0.00  0.00    +0.000 A 
ATOM     15  C   UNL     1       3.332   2.351   0.000  0.00  0.00    +0.000 A 
ATOM     16  C   UNL     1       1.957   2.294   0.000  0.00  0.00    +0.000 C 
ATOM     17  C   UNL     1       2.164   1.454   0.000  0.00  0.00    +0.000 C 
ATOM     18  N   UNL     1       1.907  -0.410   0.000  0.00  0.00    +0.000 NA
ATOM     19  O   UNL     1       0.882   3.242   0.000  0.00  0.00    +0.000 OA
ATOM     20  O   UNL     1       2.621   2.795   0.000  0.00  0.00    +0.000 OA
ENDROOT
BRANCH  13  21
ATOM     21  O   UNL     1       4.495   3.210   0.000  0.00  0.00    +0.000 OA
BRANCH  21  22
ATOM     22  C   UNL     1       3.994   3.864   0.000  0.00  0.00    +0.000 C 
BRANCH  22  23
ATOM     23  C   UNL     1       4.310   4.626   0.000  0.00  0.00    +0.000 C 
BRANCH  23  28
ATOM     24  C   UNL     1       4.125   6.042   0.000  0.00  0.00    +0.000 C 
ATOM     25  C   UNL     1       2.991   5.174   0.000  0.00  0.00    +0.000 C 
ATOM     26  C   UNL     1       3.623   6.697   0.000  0.00  0.00    +0.000 C 
ATOM     27  C   UNL     1       2.489   5.828   0.000  0.00  0.00    +0.000 C 
ATOM     28  N   UNL     1       3.808   5.281   0.000  0.00  0.00    +0.000 NA
ATOM     29  O   UNL     1       2.805   6.590   0.000  0.00  0.00    +0.000 OA
ENDBRANCH  23  28
ENDBRANCH  22  23
ENDBRANCH  21  22
ENDBRANCH  13  21
TORSDOF 4
