REMARK  Name = 
REMARK  2 active torsions:
REMARK  status: ('A' for Active; 'I' for Inactive)
REMARK    1  A    between atoms: O_2  and  C_3
REMARK    2  A    between atoms: C_5  and  C_6
REMARK                            x       y       z     vdW  Elec       q    Type
REMARK                         _______ _______ _______ _____ _____    ______ ____
ROOT
ATOM      1  C   UNL     1       1.429   0.825   0.000  0.00  0.00    +0.000 C 
ATOM      2  O   UNL     1       0.714   1.238   0.000  0.00  0.00    +0.000 OA
ATOM      3  C   UNL     1       0.000   0.825   0.000  0.00  0.00    +0.000 C 
ATOM      4  C   UNL     1       0.000   0.000   0.000  0.00  0.00    +0.000 C 
ATOM      5  O   UNL     1      -0.715  -0.412   0.000  0.00  0.00    +0.000 OA
ATOM      6  C   UNL     1       0.715  -0.412   0.000  0.00  0.00    +0.000 C 
ATOM      7  O   UNL     1       0.715  -1.238   0.000  0.00  0.00    +0.000 OA
ATOM      8  C   UNL     1       1.429   0.000   0.000  0.00  0.00    +0.000 C 
ATOM      9  O   UNL     1       2.143  -0.412   0.000  0.00  0.00    +0.000 OA
ENDROOT
BRANCH   1  11
ATOM     10  C   UNL     1       2.858   0.825   0.000  0.00  0.00    +0.000 C 
ATOM     11  O   UNL     1       2.143   1.238   0.000  0.00  0.00    +0.000 OA
ENDBRANCH   1  11
BRANCH   3  12
ATOM     12  C   UNL     1      -0.715   1.238   0.000  0.00  0.00    +0.000 C 
ATOM     13  O   UNL     1      -0.715   2.062   0.000  0.00  0.00    +0.000 OA
ENDBRANCH   3  12
TORSDOF 2
