REMARK  Name = 
REMARK  8 active torsions:
REMARK  status: ('A' for Active; 'I' for Inactive)
REMARK    1  A    between atoms: C_11  and  C_15
REMARK    2  A    between atoms: C_11  and  C_21
REMARK    3  A    between atoms: C_12  and  C_23
REMARK    4  A    between atoms: C_13  and  C_15
REMARK    5  A    between atoms: C_14  and  C_16
REMARK    6  A    between atoms: C_15  and  C_25
REMARK    7  A    between atoms: C_17  and  C_24
REMARK    8  A    between atoms: C_20  and  O_35
REMARK                            x       y       z     vdW  Elec       q    Type
REMARK                         _______ _______ _______ _____ _____    ______ ____
ROOT
ATOM      1  C   UNL     1      -1.180   0.412   0.000  0.00  0.00    +0.000 A 
ATOM      2  C   UNL     1       0.057  -0.302   0.000  0.00  0.00    +0.000 A 
ATOM      3  C   UNL     1      -0.768  -0.302   0.000  0.00  0.00    +0.000 A 
ATOM      4  C   UNL     1      -0.768   1.127   0.000  0.00  0.00    +0.000 A 
ATOM      5  C   UNL     1       0.470   0.412   0.000  0.00  0.00    +0.000 A 
ATOM      6  C   UNL     1       0.057   1.127   0.000  0.00  0.00    +0.000 A 
ATOM      7  O   UNL     1       0.470   1.841   0.000  0.00  0.00    +0.000 OA
ENDROOT
BRANCH   5  14
ATOM      8  C   UNL     1       3.993   0.825   0.000  0.00  0.00    +0.000 A 
ATOM      9  C   UNL     1       3.279   1.238   0.000  0.00  0.00    +0.000 A 
ATOM     10  C   UNL     1       3.279  -0.412   0.000  0.00  0.00    +0.000 A 
ATOM     11  C   UNL     1       3.993   0.000   0.000  0.00  0.00    +0.000 A 
ATOM     12  C   UNL     1       2.564   0.825   0.000  0.00  0.00    +0.000 A 
ATOM     13  C   UNL     1       2.564   0.000   0.000  0.00  0.00    +0.000 A 
ATOM     14  C   UNL     1       1.295   0.412   0.000  0.00  0.00    +0.000 A 
ATOM     15  N   UNL     1       1.780   1.080   0.000  0.00  0.00    +0.000 NA
ATOM     16  N   UNL     1       1.780  -0.255   0.000  0.00  0.00    +0.000 NA
BRANCH  11  17
ATOM     17  C   UNL     1       4.708  -0.412   0.000  0.00  0.00    +0.000 C 
ATOM     18  N   UNL     1       5.422   0.000   0.000  0.00  0.00    +0.000 NA
ATOM     19  N   UNL     1       4.708  -1.238   0.000  0.00  0.00    +0.000 NA
ENDBRANCH  11  17
ENDBRANCH   5  14
BRANCH   4  24
ATOM     20  C   UNL     1      -1.180   3.270   0.000  0.00  0.00    +0.000 A 
ATOM     21  C   UNL     1      -2.005   3.270   0.000  0.00  0.00    +0.000 A 
ATOM     22  C   UNL     1      -0.768   2.556   0.000  0.00  0.00    +0.000 A 
ATOM     23  C   UNL     1      -2.418   2.556   0.000  0.00  0.00    +0.000 A 
ATOM     24  C   UNL     1      -1.180   1.841   0.000  0.00  0.00    +0.000 A 
ATOM     25  C   UNL     1      -2.005   1.841   0.000  0.00  0.00    +0.000 A 
BRANCH  25  27
ATOM     26  C   UNL     1      -3.243   1.127   0.000  0.00  0.00    +0.000 C 
ATOM     27  O   UNL     1      -2.418   1.127   0.000  0.00  0.00    +0.000 OA
ENDBRANCH  25  27
ENDBRANCH   4  24
BRANCH   3  28
ATOM     28  C   UNL     1      -1.180  -1.016   0.000  0.00  0.00    +0.000 C 
BRANCH  28  29
ATOM     29  C   UNL     1      -2.005  -1.016   0.000  0.00  0.00    +0.000 C 
ATOM     30  O   UNL     1      -2.418  -1.731   0.000  0.00  0.00    +0.000 OA
ATOM     31  O   UNL     1      -2.418  -0.302   0.000  0.00  0.00    +0.000 OA
ENDBRANCH  28  29
BRANCH  28  32
ATOM     32  C   UNL     1      -0.768  -1.731   0.000  0.00  0.00    +0.000 C 
BRANCH  32  33
ATOM     33  C   UNL     1       0.057  -1.731   0.000  0.00  0.00    +0.000 C 
ATOM     34  O   UNL     1       0.470  -2.445   0.000  0.00  0.00    +0.000 OA
ATOM     35  O   UNL     1       0.470  -1.016   0.000  0.00  0.00    +0.000 OA
ENDBRANCH  32  33
ENDBRANCH  28  32
ENDBRANCH   3  28
TORSDOF 8
