REMARK  Name = 
REMARK  14 active torsions:
REMARK  status: ('A' for Active; 'I' for Inactive)
REMARK    1  A    between atoms: C_3  and  C_12
REMARK    2  A    between atoms: C_4  and  C_13
REMARK    3  A    between atoms: C_9  and  C_15
REMARK    4  A    between atoms: C_9  and  C_18
REMARK    5  A    between atoms: CB_10  and  CA_16
REMARK    6  A    between atoms: CB_10  and  OG_40
REMARK    7  A    between atoms: C_14  and  N_28
REMARK    8  A    between atoms: CA_16  and  C_22
REMARK    9  A    between atoms: C_17  and  N_29
REMARK   10  A    between atoms: CA_19  and  C_23
REMARK   11  A    between atoms: C_20  and  C_21
REMARK   12  A    between atoms: C_20  and  C_24
REMARK   13  A    between atoms: C_20  and  N_26
REMARK   14  A    between atoms: C_24  and  OG_40
REMARK                            x       y       z     vdW  Elec       q    Type
REMARK                         _______ _______ _______ _____ _____    ______ ____
ROOT
ATOM      1  C   UNL     1       3.572   2.888   0.000  0.00  0.00    +0.000 C 
ATOM      2  C   UNL     1       4.287   3.300   0.000  0.00  0.00    +0.000 C 
ATOM      3  CA  UNL     1       4.287   4.125   0.000  0.00  0.00    +0.000 C 
ATOM      4  C   UNL     1       2.858   4.125   0.000  0.00  0.00    +0.000 C 
ATOM      5  N   UNL     1       3.572   4.537   0.000  0.00  0.00    +0.000 NA
ATOM      6  S   UNL     1       2.858   3.300   0.000  0.00  0.00    +0.000 S 
ENDROOT
BRANCH   3   7
ATOM      7  C   UNL     1       5.001   4.537   0.000  0.00  0.00    +0.000 C 
ATOM      8  O   UNL     1       5.001   5.362   0.000  0.00  0.00    +0.000 OA
ATOM      9  OXT UNL     1       5.716   4.125   0.000  0.00  0.00    +0.000 OA
ENDBRANCH   3   7
BRANCH   2  11
ATOM     10  C   UNL     1       5.001   2.062   0.000  0.00  0.00    +0.000 C 
ATOM     11  C   UNL     1       5.001   2.888   0.000  0.00  0.00    +0.000 C 
BRANCH  10  15
ATOM     12  C   UNL     1       5.716   0.825   0.000  0.00  0.00    +0.000 A 
ATOM     13  C   UNL     1       6.430   0.412   0.000  0.00  0.00    +0.000 A 
ATOM     14  C   UNL     1       7.145   1.650   0.000  0.00  0.00    +0.000 A 
ATOM     15  C   UNL     1       5.716   1.650   0.000  0.00  0.00    +0.000 A 
ATOM     16  C   UNL     1       7.145   0.825   0.000  0.00  0.00    +0.000 A 
ATOM     17  C   UNL     1       6.430   2.062   0.000  0.00  0.00    +0.000 A 
BRANCH  16  18
ATOM     18  N   UNL     1       7.859   0.412   0.000  0.00  0.00    +0.000 N 
ATOM     19  O   UNL     1       8.574   0.825   0.000  0.00  0.00    +0.000 OA
ATOM     20  O   UNL     1       7.859  -0.412   0.000  0.00  0.00    +0.000 OA
ENDBRANCH  16  18
BRANCH  17  21
ATOM     21  N   UNL     1       6.430   2.888   0.000  0.00  0.00    +0.000 N 
ATOM     22  O   UNL     1       5.716   3.300   0.000  0.00  0.00    +0.000 OA
ATOM     23  O   UNL     1       7.145   3.300   0.000  0.00  0.00    +0.000 OA
ENDBRANCH  17  21
ENDBRANCH  10  15
ENDBRANCH   2  11
BRANCH   4  24
ATOM     24  C   UNL     1       2.143   4.537   0.000  0.00  0.00    +0.000 C 
BRANCH  24  26
ATOM     25  C   UNL     1       2.858   5.775   0.000  0.00  0.00    +0.000 C 
ATOM     26  N   UNL     1       2.143   5.362   0.000  0.00  0.00    +0.000 NA
ATOM     27  O   UNL     1       3.572   5.362   0.000  0.00  0.00    +0.000 OA
BRANCH  25  28
ATOM     28  C   UNL     1       2.858   6.600   0.000  0.00  0.00    +0.000 C 
BRANCH  28  32
ATOM     29  C   UNL     1       4.466   8.005   0.000  0.00  0.00    +0.000 A 
ATOM     30  C   UNL     1       3.659   7.833   0.000  0.00  0.00    +0.000 A 
ATOM     31  C   UNL     1       4.878   7.290   0.000  0.00  0.00    +0.000 A 
ATOM     32  C   UNL     1       3.572   7.013   0.000  0.00  0.00    +0.000 A 
ATOM     33  S   UNL     1       4.326   6.677   0.000  0.00  0.00    +0.000 S 
ENDBRANCH  28  32
ENDBRANCH  25  28
ENDBRANCH  24  26
BRANCH  24  34
ATOM     34  C   UNL     1       1.429   4.125   0.000  0.00  0.00    +0.000 C 
ATOM     35  O   UNL     1       1.429   3.300   0.000  0.00  0.00    +0.000 OA
BRANCH  34  36
ATOM     36  OG  UNL     1       0.715   4.537   0.000  0.00  0.00    +0.000 OA
BRANCH  36  37
ATOM     37  CB  UNL     1       0.000   4.125   0.000  0.00  0.00    +0.000 C 
BRANCH  37  38
ATOM     38  CA  UNL     1      -0.715   4.537   0.000  0.00  0.00    +0.000 C 
ATOM     39  N   UNL     1      -0.715   5.362   0.000  0.00  0.00    +0.000 NA
BRANCH  38  40
ATOM     40  C   UNL     1      -1.429   4.125   0.000  0.00  0.00    +0.000 C 
ATOM     41  O   UNL     1      -1.429   3.300   0.000  0.00  0.00    +0.000 OA
ATOM     42  OXT UNL     1      -2.143   4.537   0.000  0.00  0.00    +0.000 OA
ENDBRANCH  38  40
ENDBRANCH  37  38
ENDBRANCH  36  37
ENDBRANCH  34  36
ENDBRANCH  24  34
ENDBRANCH   4  24
TORSDOF 14
