REMARK  Name = 
REMARK  8 active torsions:
REMARK  status: ('A' for Active; 'I' for Inactive)
REMARK    1  A    between atoms: CA_4  and  C_9
REMARK    2  A    between atoms: C_5  and  C_27
REMARK    3  A    between atoms: CA_7  and  N_12
REMARK    4  A    between atoms: C_14  and  C_15
REMARK    5  A    between atoms: C_15  and  C_24
REMARK    6  A    between atoms: N_17  and  O_18
REMARK    7  A    between atoms: C_27  and  S_28
REMARK    8  A    between atoms: S_28  and  C_30
REMARK                            x       y       z     vdW  Elec       q    Type
REMARK                         _______ _______ _______ _____ _____    ______ ____
ROOT
ATOM      1  S   UNL     1      19.625  -0.133   0.000  0.00  0.00    +0.000 S 
ATOM      2  C   UNL     1      18.911  -0.546   0.000  0.00  0.00    +0.000 C 
ATOM      3  N   UNL     1      18.911  -1.371   0.000  0.00  0.00    +0.000 N 
ATOM      4  CA  UNL     1      19.625  -1.783   0.000  0.00  0.00    +0.000 C 
ATOM      5  C   UNL     1      20.340  -1.371   0.000  0.00  0.00    +0.000 C 
ATOM      6  C   UNL     1      20.340  -0.546   0.000  0.00  0.00    +0.000 C 
ATOM      7  CA  UNL     1      18.086  -0.546   0.000  0.00  0.00    +0.000 C 
ATOM      8  C   UNL     1      18.086  -1.371   0.000  0.00  0.00    +0.000 C 
ATOM      9  O   UNL     1      17.503  -1.954   0.000  0.00  0.00    +0.000 OA
ENDROOT
BRANCH   7  10
ATOM     10  N   UNL     1      17.372  -0.133   0.000  0.00  0.00    +0.000 NA
ATOM     11  C   UNL     1      16.657  -0.546   0.000  0.00  0.00    +0.000 C 
ATOM     12  O   UNL     1      16.657  -1.371   0.000  0.00  0.00    +0.000 OA
BRANCH  11  13
ATOM     13  C   UNL     1      15.943  -0.133   0.000  0.00  0.00    +0.000 C 
ATOM     14  N   UNL     1      15.943   0.692   0.000  0.00  0.00    +0.000 NA
BRANCH  13  19
ATOM     15  N   UNL     1      14.443  -0.291   0.000  0.00  0.00    +0.000 NA
ATOM     16  C   UNL     1      13.959  -0.958   0.000  0.00  0.00    +0.000 A 
ATOM     17  S   UNL     1      14.443  -1.625   0.000  0.00  0.00    +0.000 S 
ATOM     18  C   UNL     1      15.228  -1.371   0.000  0.00  0.00    +0.000 A 
ATOM     19  C   UNL     1      15.228  -0.546   0.000  0.00  0.00    +0.000 A 
ATOM     20  N   UNL     1      13.133  -0.958   0.000  0.00  0.00    +0.000 NA
ENDBRANCH  13  19
BRANCH  14  21
ATOM     21  O   UNL     1      16.657   1.104   0.000  0.00  0.00    +0.000 OA
ATOM     22  C   UNL     1      16.657   1.929   0.000  0.00  0.00    +0.000 C 
ENDBRANCH  14  21
ENDBRANCH  11  13
ENDBRANCH   7  10
BRANCH   4  23
ATOM     23  C   UNL     1      19.625  -2.608   0.000  0.00  0.00    +0.000 C 
ATOM     24  O   UNL     1      18.911  -3.021   0.000  0.00  0.00    +0.000 OA
ATOM     25  OXT UNL     1      20.340  -3.021   0.000  0.00  0.00    +0.000 OA
ENDBRANCH   4  23
BRANCH   5  26
ATOM     26  C   UNL     1      21.054  -1.783   0.000  0.00  0.00    +0.000 C 
BRANCH  26  27
ATOM     27  S   UNL     1      21.769  -1.371   0.000  0.00  0.00    +0.000 S 
BRANCH  27  29
ATOM     28  N   UNL     1      23.268  -1.528   0.000  0.00  0.00    +0.000 N 
ATOM     29  C   UNL     1      22.483  -1.783   0.000  0.00  0.00    +0.000 A 
ATOM     30  N   UNL     1      22.483  -2.608   0.000  0.00  0.00    +0.000 NA
ATOM     31  N   UNL     1      23.268  -2.863   0.000  0.00  0.00    +0.000 NA
ATOM     32  N   UNL     1      23.753  -2.196   0.000  0.00  0.00    +0.000 NA
ATOM     33  C   UNL     1      23.482  -0.731   0.000  0.00  0.00    +0.000 C 
ENDBRANCH  27  29
ENDBRANCH  26  27
ENDBRANCH   5  26
TORSDOF 8
