REMARK  Name = 
REMARK  7 active torsions:
REMARK  status: ('A' for Active; 'I' for Inactive)
REMARK    1  A    between atoms: C_1  and  C_3
REMARK    2  A    between atoms: C_2  and  C_4
REMARK    3  A    between atoms: C_2  and  O_15
REMARK    4  A    between atoms: C_3  and  C_5
REMARK    5  A    between atoms: C_4  and  C_6
REMARK    6  A    between atoms: C_5  and  C_6
REMARK    7  A    between atoms: O_15  and  P_16
REMARK                            x       y       z     vdW  Elec       q    Type
REMARK                         _______ _______ _______ _____ _____    ______ ____
ROOT
ATOM      1  C   UNK     1       4.920  -0.715   0.000  0.00  0.00    +0.000 C 
ATOM      2  O   UNK     1       4.920  -1.540   0.000  0.00  0.00    +0.000 OA
ENDROOT
BRANCH   1   3
ATOM      3  C   UNK     1       4.206  -0.302   0.000  0.00  0.00    +0.000 C 
ATOM      4  O   UNK     1       4.206   0.523   0.000  0.00  0.00    +0.000 OA
BRANCH   3   5
ATOM      5  C   UNK     1       3.491  -0.715   0.000  0.00  0.00    +0.000 C 
ATOM      6  O   UNK     1       3.491  -1.540   0.000  0.00  0.00    +0.000 OA
BRANCH   5   7
ATOM      7  C   UNK     1       2.777  -0.302   0.000  0.00  0.00    +0.000 C 
ATOM      8  N   UNK     1       2.777   0.523   0.000  0.00  0.00    +0.000 NA
BRANCH   7   9
ATOM      9  C   UNK     1       2.062  -0.715   0.000  0.00  0.00    +0.000 C 
ATOM     10  O   UNK     1       1.348  -0.302   0.000  0.00  0.00    +0.000 OA
ENDBRANCH   7   9
ENDBRANCH   5   7
ENDBRANCH   3   5
ENDBRANCH   1   3
BRANCH   1  11
ATOM     11  C   UNK     1       5.635  -0.302   0.000  0.00  0.00    +0.000 C 
BRANCH  11  12
ATOM     12  O   UNK     1       6.349  -0.715   0.000  0.00  0.00    +0.000 OA
BRANCH  12  16
ATOM     13  O   UNK     1       7.778   0.111   0.000  0.00  0.00    +0.000 OA
ATOM     14  O   UNK     1       7.476  -1.016   0.000  0.00  0.00    +0.000 OA
ATOM     15  O   UNK     1       6.651   0.412   0.000  0.00  0.00    +0.000 OA
ATOM     16  P   UNK     1       7.064  -0.302   0.000  0.00  0.00    +0.000 P 
ENDBRANCH  12  16
ENDBRANCH  11  12
ENDBRANCH   1  11
TORSDOF 7
