REMARK  Name = 
REMARK  3 active torsions:
REMARK  status: ('A' for Active; 'I' for Inactive)
REMARK    1  A    between atoms: N_4  and  C_8
REMARK    2  A    between atoms: C_8  and  C_9
REMARK    3  A    between atoms: C_13  and  C_17
REMARK                            x       y       z     vdW  Elec       q    Type
REMARK                         _______ _______ _______ _____ _____    ______ ____
ROOT
ATOM      1  C   UNL     1       3.079   0.368   0.000  0.00  0.00    +0.000 C 
ENDROOT
BRANCH   1   4
ATOM      2  F   UNL     1       4.508  -0.457   0.000  0.00  0.00    +0.000 F 
ATOM      3  F   UNL     1       1.650  -0.457   0.000  0.00  0.00    +0.000 F 
ATOM      4  C   UNL     1       3.079  -0.457   0.000  0.00  0.00    +0.000 A 
ATOM      5  C   UNL     1       3.793  -0.869   0.000  0.00  0.00    +0.000 A 
ATOM      6  C   UNL     1       2.365  -0.869   0.000  0.00  0.00    +0.000 A 
ATOM      7  C   UNL     1       3.793  -1.694   0.000  0.00  0.00    +0.000 A 
ATOM      8  C   UNL     1       2.365  -1.694   0.000  0.00  0.00    +0.000 A 
ATOM      9  C   UNL     1       3.079  -2.107   0.000  0.00  0.00    +0.000 A 
ENDBRANCH   1   4
BRANCH   1  10
ATOM     10  N   UNL     1       3.793   0.781   0.000  0.00  0.00    +0.000 N 
ATOM     11  N   UNL     1       3.880   1.601   0.000  0.00  0.00    +0.000 NA
ATOM     12  N   UNL     1       4.687   1.773   0.000  0.00  0.00    +0.000 NA
ATOM     13  C   UNL     1       4.547   0.445   0.000  0.00  0.00    +0.000 A 
ATOM     14  C   UNL     1       5.099   1.058   0.000  0.00  0.00    +0.000 A 
BRANCH  14  17
ATOM     15  O   UNL     1       6.255   0.218   0.000  0.00  0.00    +0.000 OA
ATOM     16  N   UNL     1       6.405   1.639   0.000  0.00  0.00    +0.000 NA
ATOM     17  C   UNL     1       5.920   0.972   0.000  0.00  0.00    +0.000 C 
ENDBRANCH  14  17
ENDBRANCH   1  10
TORSDOF 3
