REMARK  Name = 
REMARK  7 active torsions:
REMARK  status: ('A' for Active; 'I' for Inactive)
REMARK    1  A    between atoms: C_5  and  C_8
REMARK    2  A    between atoms: C_6  and  N_7
REMARK    3  A    between atoms: N_7  and  C_9
REMARK    4  A    between atoms: C_9  and  C_10
REMARK    5  A    between atoms: C_16  and  O_21
REMARK    6  A    between atoms: C_18  and  O_22
REMARK    7  A    between atoms: O_21  and  C_24
REMARK                            x       y       z     vdW  Elec       q    Type
REMARK                         _______ _______ _______ _____ _____    ______ ____
ROOT
ATOM      1  C   UNL     1       0.000  -0.563   0.000  0.00  0.00    +0.000 C 
ENDROOT
BRANCH   1   2
ATOM      2  C   UNL     1       0.714  -0.151   0.000  0.00  0.00    +0.000 A 
ATOM      3  C   UNL     1       1.429   1.087   0.000  0.00  0.00    +0.000 A 
ATOM      4  C   UNL     1       0.714   0.674   0.000  0.00  0.00    +0.000 A 
ATOM      5  C   UNL     1       1.429  -0.564   0.000  0.00  0.00    +0.000 A 
ATOM      6  C   UNL     1       2.143  -0.151   0.000  0.00  0.00    +0.000 A 
ATOM      7  C   UNL     1       2.143   0.674   0.000  0.00  0.00    +0.000 A 
BRANCH   5   8
ATOM      8  O   UNL     1       1.429  -1.389   0.000  0.00  0.00    +0.000 OA
ATOM      9  C   UNL     1       2.143  -1.801   0.000  0.00  0.00    +0.000 C 
ENDBRANCH   5   8
BRANCH   3  10
ATOM     10  O   UNL     1       1.429   1.911   0.000  0.00  0.00    +0.000 OA
BRANCH  10  11
ATOM     11  C   UNL     1       2.143   2.324   0.000  0.00  0.00    +0.000 C 
ATOM     12  F   UNL     1       2.858   2.736   0.000  0.00  0.00    +0.000 F 
ATOM     13  F   UNL     1       2.556   1.609   0.000  0.00  0.00    +0.000 F 
ATOM     14  F   UNL     1       1.731   3.038   0.000  0.00  0.00    +0.000 F 
ENDBRANCH  10  11
ENDBRANCH   3  10
ENDBRANCH   1   2
BRANCH   1  15
ATOM     15  N   UNL     1      -0.714  -0.151   0.000  0.00  0.00    +0.000 NA
BRANCH  15  21
ATOM     16  C   UNL     1      -2.143  -0.151   0.000  0.00  0.00    +0.000 C 
ATOM     17  C   UNL     1      -2.858  -0.563   0.000  0.00  0.00    +0.000 C 
ATOM     18  C   UNL     1      -2.858  -1.389   0.000  0.00  0.00    +0.000 C 
ATOM     19  N   UNL     1      -2.143  -1.801   0.000  0.00  0.00    +0.000 NA
ATOM     20  C   UNL     1      -1.429  -1.389   0.000  0.00  0.00    +0.000 C 
ATOM     21  C   UNL     1      -1.429  -0.563   0.000  0.00  0.00    +0.000 C 
BRANCH  20  22
ATOM     22  C   UNL     1      -0.714  -1.801   0.000  0.00  0.00    +0.000 A 
ATOM     23  C   UNL     1       0.000  -1.389   0.000  0.00  0.00    +0.000 A 
ATOM     24  C   UNL     1      -0.714  -2.626   0.000  0.00  0.00    +0.000 A 
ATOM     25  C   UNL     1       0.000  -3.038   0.000  0.00  0.00    +0.000 A 
ATOM     26  C   UNL     1       0.714  -2.626   0.000  0.00  0.00    +0.000 A 
ATOM     27  C   UNL     1       0.714  -1.801   0.000  0.00  0.00    +0.000 A 
ENDBRANCH  20  22
ENDBRANCH  15  21
ENDBRANCH   1  15
TORSDOF 7
