REMARK  Name = 
REMARK  6 active torsions:
REMARK  status: ('A' for Active; 'I' for Inactive)
REMARK    1  A    between atoms: C_2  and  C_7
REMARK    2  A    between atoms: C_6  and  N_14
REMARK    3  A    between atoms: C_7  and  C_8
REMARK    4  A    between atoms: C_8  and  N_10
REMARK    5  A    between atoms: C_8  and  C_11
REMARK    6  A    between atoms: C_12  and  C_15
REMARK                            x       y       z     vdW  Elec       q    Type
REMARK                         _______ _______ _______ _____ _____    ______ ____
ROOT
ATOM      1  C   UNK A   1      -1.429  -0.825   0.000  0.00  0.00    +0.000 C 
ATOM      2  O   UNK A   1      -1.429  -1.650   0.000  0.00  0.00    +0.000 OA
ENDROOT
BRANCH   1   4
ATOM      3  C   UNK A   1      -0.715   0.412   0.000  0.00  0.00    +0.000 A 
ATOM      4  C   UNK A   1      -0.715  -0.412   0.000  0.00  0.00    +0.000 A 
ATOM      5  C   UNK A   1       0.000  -0.825   0.000  0.00  0.00    +0.000 A 
ATOM      6  C   UNK A   1       0.000   0.825   0.000  0.00  0.00    +0.000 A 
ATOM      7  C   UNK A   1       0.715  -0.412   0.000  0.00  0.00    +0.000 A 
ATOM      8  C   UNK A   1       0.715   0.412   0.000  0.00  0.00    +0.000 A 
BRANCH   8   9
ATOM      9  N   UNK A   1       1.429   0.825   0.000  0.00  0.00    +0.000 N 
ATOM     10  O   UNK A   1       2.143   0.412   0.000  0.00  0.00    +0.000 OA
ATOM     11  O   UNK A   1       1.429   1.650   0.000  0.00  0.00    +0.000 OA
ENDBRANCH   8   9
ENDBRANCH   1   4
BRANCH   1  12
ATOM     12  C   UNK A   1      -2.143  -0.412   0.000  0.00  0.00    +0.000 C 
BRANCH  12  13
ATOM     13  N   UNK A   1      -2.858  -0.825   0.000  0.00  0.00    +0.000 NA
ATOM     14  C   UNK A   0      -3.572  -0.412   0.000  0.00  0.00    +0.000 C 
ATOM     15  O   UNK A   0      -3.572   0.412   0.000  0.00  0.00    +0.000 OA
BRANCH  14  16
ATOM     16  C   UNK A   0      -4.287  -0.825   0.000  0.00  0.00    +0.000 C 
ATOM     17 CL   UNK A   0      -4.287  -1.650   0.000  0.00  0.00    +0.000 Cl
ATOM     18 CL   UNK A   0      -5.001  -0.412   0.000  0.00  0.00    +0.000 Cl
ENDBRANCH  14  16
ENDBRANCH  12  13
BRANCH  12  19
ATOM     19  C   UNK A   1      -2.143   0.412   0.000  0.00  0.00    +0.000 C 
ATOM     20  O   UNK A   1      -1.429   0.825   0.000  0.00  0.00    +0.000 OA
ENDBRANCH  12  19
ENDBRANCH   1  12
TORSDOF 6
