REMARK  Name = 
REMARK  0 active torsions:
REMARK  status: ('A' for Active; 'I' for Inactive)
REMARK                            x       y       z     vdW  Elec       q    Type
REMARK                         _______ _______ _______ _____ _____    ______ ____
ROOT
ATOM      1 GA   UNL     1       3.587   0.412   0.000  0.00  0.00    +0.000 Ga
ENDROOT
TORSDOF 0
REMARK  Name = 
REMARK  0 active torsions:
REMARK  status: ('A' for Active; 'I' for Inactive)
REMARK                            x       y       z     vdW  Elec       q    Type
REMARK                         _______ _______ _______ _____ _____    ______ ____
ROOT
ATOM      1  O   UNL     1       1.429   1.238   0.000  0.00  0.00    +0.000 OA
ATOM      2  O   UNL     1       0.000   1.238   0.000  0.00  0.00    +0.000 OA
ATOM      3  O   UNL     1       0.714   0.000   0.000  0.00  0.00    +0.000 OA
ATOM      4  N   UNL     1       0.714   0.825   0.000  0.00  0.00    +0.000 N 
ENDROOT
TORSDOF 0
REMARK  Name = 
REMARK  0 active torsions:
REMARK  status: ('A' for Active; 'I' for Inactive)
REMARK                            x       y       z     vdW  Elec       q    Type
REMARK                         _______ _______ _______ _____ _____    ______ ____
ROOT
ATOM      1  O   UNL     1       4.508   3.712   0.000  0.00  0.00    +0.000 OA
ATOM      2  O   UNL     1       3.079   3.712   0.000  0.00  0.00    +0.000 OA
ATOM      3  O   UNL     1       3.793   2.475   0.000  0.00  0.00    +0.000 OA
ATOM      4  N   UNL     1       3.793   3.300   0.000  0.00  0.00    +0.000 N 
ENDROOT
TORSDOF 0
REMARK  Name = 
REMARK  0 active torsions:
REMARK  status: ('A' for Active; 'I' for Inactive)
REMARK                            x       y       z     vdW  Elec       q    Type
REMARK                         _______ _______ _______ _____ _____    ______ ____
ROOT
ATOM      1  O   UNL     1       1.429   4.125   0.000  0.00  0.00    +0.000 OA
ATOM      2  O   UNL     1       0.000   4.125   0.000  0.00  0.00    +0.000 OA
ATOM      3  O   UNL     1       0.714   2.888   0.000  0.00  0.00    +0.000 OA
ATOM      4  N   UNL     1       0.714   3.712   0.000  0.00  0.00    +0.000 N 
ENDROOT
TORSDOF 0
