REMARK  Name = 
REMARK  7 active torsions:
REMARK  status: ('A' for Active; 'I' for Inactive)
REMARK    1  A    between atoms: C_2  and  N_3
REMARK    2  A    between atoms: N_3  and  C_5
REMARK    3  A    between atoms: N_3  and  C_7
REMARK    4  A    between atoms: C_7  and  C_8
REMARK    5  A    between atoms: C_8  and  C_9
REMARK    6  A    between atoms: C_9  and  N_10
REMARK    7  A    between atoms: C_11  and  C_12
REMARK                            x       y       z     vdW  Elec       q    Type
REMARK                         _______ _______ _______ _____ _____    ______ ____
ROOT
ATOM      1  N   UNL     1       1.121   2.798   0.000  0.00  0.00    +0.000 N 
ATOM      2  C   UNL     1       1.944   2.842   0.000  0.00  0.00    +0.000 A 
ATOM      3  C   UNL     1       2.318   3.578   0.000  0.00  0.00    +0.000 A 
ATOM      4  C   UNL     1       1.868   4.269   0.000  0.00  0.00    +0.000 A 
ATOM      5  C   UNL     1       2.242   5.005   0.000  0.00  0.00    +0.000 A 
ATOM      6  C   UNL     1       3.066   5.049   0.000  0.00  0.00    +0.000 A 
ATOM      7  C   UNL     1       3.516   4.357   0.000  0.00  0.00    +0.000 A 
ATOM      8  N   UNL     1       4.340   4.402   0.000  0.00  0.00    +0.000 NA
ATOM      9  C   UNL     1       3.142   3.622   0.000  0.00  0.00    +0.000 A 
ATOM     10  C   UNL     1       1.044   4.225   0.000  0.00  0.00    +0.000 A 
ATOM     11  C   UNL     1       0.671   3.489   0.000  0.00  0.00    +0.000 A 
ATOM     12  C   UNL     1      -0.153   3.445   0.000  0.00  0.00    +0.000 A 
ATOM     13  C   UNL     1      -0.603   4.137   0.000  0.00  0.00    +0.000 A 
ATOM     14  N   UNL     1      -1.427   4.093   0.000  0.00  0.00    +0.000 NA
ATOM     15  C   UNL     1      -0.230   4.872   0.000  0.00  0.00    +0.000 A 
ATOM     16  C   UNL     1       0.594   4.916   0.000  0.00  0.00    +0.000 A 
ENDROOT
BRANCH   2  17
ATOM     17  C   UNL     1       2.395   2.151   0.000  0.00  0.00    +0.000 A 
ATOM     18  C   UNL     1       3.219   2.195   0.000  0.00  0.00    +0.000 A 
ATOM     19  C   UNL     1       3.669   1.504   0.000  0.00  0.00    +0.000 A 
ATOM     20  C   UNL     1       3.295   0.768   0.000  0.00  0.00    +0.000 A 
ATOM     21  C   UNL     1       2.471   0.724   0.000  0.00  0.00    +0.000 A 
ATOM     22  C   UNL     1       2.021   1.415   0.000  0.00  0.00    +0.000 A 
ENDBRANCH   2  17
BRANCH   1  23
ATOM     23  C   UNL     1       0.747   2.062   0.000  0.00  0.00    +0.000 C 
BRANCH  23  24
ATOM     24  C   UNL     1      -0.077   2.018   0.000  0.00  0.00    +0.000 C 
BRANCH  24  25
ATOM     25  C   UNL     1      -0.450   1.283   0.000  0.00  0.00    +0.000 C 
BRANCH  25  26
ATOM     26  N   UNL     1      -1.274   1.239   0.000  0.00  0.00    +0.000 N 
ATOM     27  C   UNL     1      -1.230   0.415   0.000  0.00  0.00    +0.000 C 
BRANCH  26  28
ATOM     28  C   UNL     1      -1.318   2.062   0.000  0.00  0.00    +0.000 C 
ATOM     29  C   UNL     1      -0.627   2.513   0.000  0.00  0.00    +0.000 C 
ENDBRANCH  26  28
BRANCH  26  31
ATOM     30  C   UNL     1      -2.472   0.459   0.000  0.00  0.00    +0.000 C 
ATOM     31  C   UNL     1      -2.098   1.194   0.000  0.00  0.00    +0.000 C 
ENDBRANCH  26  31
ENDBRANCH  25  26
ENDBRANCH  24  25
ENDBRANCH  23  24
ENDBRANCH   1  23
TORSDOF 7
