REMARK  Name = 
REMARK  5 active torsions:
REMARK  status: ('A' for Active; 'I' for Inactive)
REMARK    1  A    between atoms: C_6  and  O_12
REMARK    2  A    between atoms: C_7  and  C_9
REMARK    3  A    between atoms: C_9  and  O_10
REMARK    4  A    between atoms: O_12  and  C_14
REMARK    5  A    between atoms: C_14  and  C_15
REMARK                            x       y       z     vdW  Elec       q    Type
REMARK                         _______ _______ _______ _____ _____    ______ ____
ROOT
ATOM      1  C   UNL     1      -0.631   0.143   0.000  0.00  0.00    +0.000 C 
ATOM      2  C   UNL     1       0.194   0.143   0.000  0.00  0.00    +0.000 C 
ATOM      3  C   UNL     1       0.524   1.593   0.000  0.00  0.00    +0.000 C 
ATOM      4  N   UNL     1      -0.225   0.590   0.000  0.00  0.00    +0.000 NA
ATOM      5  C   UNL     1      -0.225   1.415   0.000  0.00  0.00    +0.000 C 
ATOM      6  C   UNL     1      -0.219   1.951   0.000  0.00  0.00    +0.000 C 
ATOM      7  C   UNL     1      -0.962   1.593   0.000  0.00  0.00    +0.000 C 
ATOM      8  C   UNL     1      -1.146   0.788   0.000  0.00  0.00    +0.000 C 
ATOM      9  C   UNL     1       0.708   0.788   0.000  0.00  0.00    +0.000 C 
ENDROOT
BRANCH   7  11
ATOM     10  O   UNL     1      -1.677   2.830   0.000  0.00  0.00    +0.000 OA
ATOM     11  C   UNL     1      -1.677   2.005   0.000  0.00  0.00    +0.000 C 
BRANCH  11  12
ATOM     12  O   UNL     1      -2.391   1.593   0.000  0.00  0.00    +0.000 OA
ATOM     13  C   UNL     1      -3.106   2.005   0.000  0.00  0.00    +0.000 C 
ENDBRANCH  11  12
ENDBRANCH   7  11
BRANCH   6  14
ATOM     14  O   UNL     1      -0.219   2.776   0.000  0.00  0.00    +0.000 OA
BRANCH  14  16
ATOM     15  O   UNL     1       0.496   4.013   0.000  0.00  0.00    +0.000 OA
ATOM     16  C   UNL     1       0.496   3.188   0.000  0.00  0.00    +0.000 C 
BRANCH  16  17
ATOM     17  C   UNL     1       1.210   2.776   0.000  0.00  0.00    +0.000 A 
ATOM     18  C   UNL     1       1.925   1.538   0.000  0.00  0.00    +0.000 A 
ATOM     19  C   UNL     1       2.639   1.951   0.000  0.00  0.00    +0.000 A 
ATOM     20  C   UNL     1       2.639   2.776   0.000  0.00  0.00    +0.000 A 
ATOM     21  C   UNL     1       1.925   3.188   0.000  0.00  0.00    +0.000 A 
ATOM     22  C   UNL     1       1.210   1.951   0.000  0.00  0.00    +0.000 A 
ENDBRANCH  16  17
ENDBRANCH  14  16
ENDBRANCH   6  14
TORSDOF 5
