REMARK  Name = 
REMARK  3 active torsions:
REMARK  status: ('A' for Active; 'I' for Inactive)
REMARK    1  A    between atoms: C_6  and  C_7
REMARK    2  A    between atoms: C_9  and  O_10
REMARK    3  A    between atoms: O_10  and  P_11
REMARK                            x       y       z     vdW  Elec       q    Type
REMARK                         _______ _______ _______ _____ _____    ______ ____
ROOT
ATOM      1  N   UNL     1       2.143   1.238   0.000  0.00  0.00    +0.000 NA
ATOM      2  C   UNL     1       1.429   0.825   0.000  0.00  0.00    +0.000 C 
ATOM      3  C   UNL     1       1.429   0.000   0.000  0.00  0.00    +0.000 C 
ATOM      4  O   UNL     1       2.143  -0.412   0.000  0.00  0.00    +0.000 OA
ATOM      5  O   UNL     1       0.715  -0.412   0.000  0.00  0.00    +0.000 OA
ATOM      6  C   UNL     1       0.000   0.000   0.000  0.00  0.00    +0.000 C 
ATOM      7  C   UNL     1       0.000   0.825   0.000  0.00  0.00    +0.000 C 
ATOM      8  C   UNL     1       0.715   1.238   0.000  0.00  0.00    +0.000 C 
ATOM      9  O   UNL     1       0.715   2.062   0.000  0.00  0.00    +0.000 OA
ENDROOT
BRANCH   6  10
ATOM     10  C   UNL     1      -0.715  -0.412   0.000  0.00  0.00    +0.000 C 
ATOM     11  O   UNL     1      -1.429   0.000   0.000  0.00  0.00    +0.000 OA
ENDBRANCH   6  10
BRANCH   7  12
ATOM     12  O   UNL     1      -0.715   1.238   0.000  0.00  0.00    +0.000 OA
BRANCH  12  13
ATOM     13  P   UNL     1      -1.429   0.825   0.000  0.00  0.00    +0.000 P 
ATOM     14  O   UNL     1      -2.143   0.412   0.000  0.00  0.00    +0.000 OA
ATOM     15  O   UNL     1      -1.841   1.540   0.000  0.00  0.00    +0.000 OA
ATOM     16  O   UNL     1      -1.016   0.111   0.000  0.00  0.00    +0.000 OA
ENDBRANCH  12  13
ENDBRANCH   7  12
TORSDOF 3
