REMARK  Name = 
REMARK  2 active torsions:
REMARK  status: ('A' for Active; 'I' for Inactive)
REMARK    1  A    between atoms: C_5  and  C_7
REMARK    2  A    between atoms: C_15  and  C_17
REMARK                            x       y       z     vdW  Elec       q    Type
REMARK                         _______ _______ _______ _____ _____    ______ ____
ROOT
ATOM      1  C   UNL     1       0.857  -1.073   0.000  0.00  0.00    +0.000 A 
ATOM      2  C   UNL     1       0.143  -1.485   0.000  0.00  0.00    +0.000 A 
ATOM      3  C   UNL     1      -0.572  -1.073   0.000  0.00  0.00    +0.000 A 
ATOM      4  C   UNL     1      -0.572  -0.247   0.000  0.00  0.00    +0.000 A 
ATOM      5  C   UNL     1       0.143   0.165   0.000  0.00  0.00    +0.000 A 
ATOM      6  C   UNL     1       0.857  -0.247   0.000  0.00  0.00    +0.000 A 
ATOM      7  O   UNL     1      -1.286   0.165   0.000  0.00  0.00    +0.000 OA
ENDROOT
BRANCH   5   8
ATOM      8  C   UNL     1       0.143   0.990   0.000  0.00  0.00    +0.000 C 
ATOM      9  O   UNL     1      -0.572   1.403   0.000  0.00  0.00    +0.000 OA
ATOM     10  O   UNL     1       0.857   1.403   0.000  0.00  0.00    +0.000 OA
ENDBRANCH   5   8
TORSDOF 1
REMARK  Name = 
REMARK  2 active torsions:
REMARK  status: ('A' for Active; 'I' for Inactive)
REMARK    1  A    between atoms: C_5  and  C_7
REMARK    2  A    between atoms: C_15  and  C_17
REMARK                            x       y       z     vdW  Elec       q    Type
REMARK                         _______ _______ _______ _____ _____    ______ ____
ROOT
ATOM      1  C   UNL     1       5.122  -1.073   0.000  0.00  0.00    +0.000 A 
ATOM      2  C   UNL     1       4.408  -1.485   0.000  0.00  0.00    +0.000 A 
ATOM      3  C   UNL     1       3.693  -1.073   0.000  0.00  0.00    +0.000 A 
ATOM      4  C   UNL     1       3.693  -0.247   0.000  0.00  0.00    +0.000 A 
ATOM      5  C   UNL     1       4.408   0.165   0.000  0.00  0.00    +0.000 A 
ATOM      6  C   UNL     1       5.122  -0.247   0.000  0.00  0.00    +0.000 A 
ATOM      7  O   UNL     1       2.979   0.165   0.000  0.00  0.00    +0.000 OA
ENDROOT
BRANCH   5   8
ATOM      8  C   UNL     1       4.408   0.990   0.000  0.00  0.00    +0.000 C 
ATOM      9  O   UNL     1       3.693   1.403   0.000  0.00  0.00    +0.000 OA
ATOM     10  O   UNL     1       5.122   1.403   0.000  0.00  0.00    +0.000 OA
ENDBRANCH   5   8
TORSDOF 1
REMARK  Name = 
REMARK  2 active torsions:
REMARK  status: ('A' for Active; 'I' for Inactive)
REMARK    1  A    between atoms: C_5  and  C_7
REMARK    2  A    between atoms: C_15  and  C_17
REMARK                            x       y       z     vdW  Elec       q    Type
REMARK                         _______ _______ _______ _____ _____    ______ ____
ROOT
ATOM      1 MG   UNL     1       0.000  -3.135   0.000  0.00  0.00    +0.000 Mg
ENDROOT
TORSDOF 0
