REMARK  Name = 
REMARK  5 active torsions:
REMARK  status: ('A' for Active; 'I' for Inactive)
REMARK    1  A    between atoms: P_1  and  C_13
REMARK    2  A    between atoms: O_2  and  C_12
REMARK    3  A    between atoms: O_2  and  C_13
REMARK    4  A    between atoms: N_6  and  C_11
REMARK    5  A    between atoms: C_11  and  C_12
REMARK                            x       y       z     vdW  Elec       q    Type
REMARK                         _______ _______ _______ _____ _____    ______ ____
ROOT
ATOM      1  N   UNL     1       3.860   1.800   0.000  0.00  0.00    +0.000 N 
ATOM      2  N   UNL     1       3.860   3.128   0.000  0.00  0.00    +0.000 NA
ATOM      3  N   UNL     1       2.365   1.639   0.000  0.00  0.00    +0.000 NA
ATOM      4  N   UNL     1       1.650   2.877   0.000  0.00  0.00    +0.000 NA
ATOM      5  N   UNL     1       2.365   4.114   0.000  0.00  0.00    +0.000 NA
ATOM      6  C   UNL     1       3.079   2.051   0.000  0.00  0.00    +0.000 A 
ATOM      7  C   UNL     1       3.079   2.877   0.000  0.00  0.00    +0.000 A 
ATOM      8  C   UNL     1       4.341   2.464   0.000  0.00  0.00    +0.000 A 
ATOM      9  C   UNL     1       2.365   3.289   0.000  0.00  0.00    +0.000 A 
ATOM     10  C   UNL     1       1.650   2.051   0.000  0.00  0.00    +0.000 A 
ENDROOT
BRANCH   1  11
ATOM     11  C   UNL     1       4.116   1.016   0.000  0.00  0.00    +0.000 C 
BRANCH  11  12
ATOM     12  C   UNL     1       4.923   0.846   0.000  0.00  0.00    +0.000 C 
BRANCH  12  13
ATOM     13  O   UNL     1       5.179   0.061   0.000  0.00  0.00    +0.000 OA
BRANCH  13  14
ATOM     14  C   UNL     1       5.987  -0.109   0.000  0.00  0.00    +0.000 C 
BRANCH  14  15
ATOM     15  P   UNL     1       6.243  -0.893   0.000  0.00  0.00    +0.000 P 
ATOM     16  O   UNL     1       7.027  -0.636   0.000  0.00  0.00    +0.000 OA
ATOM     17  O   UNL     1       6.499  -1.677   0.000  0.00  0.00    +0.000 OA
ATOM     18  O   UNL     1       5.459  -1.149   0.000  0.00  0.00    +0.000 OA
ENDBRANCH  14  15
ENDBRANCH  13  14
ENDBRANCH  12  13
ENDBRANCH  11  12
ENDBRANCH   1  11
TORSDOF 5
