REMARK  Name = 
REMARK  8 active torsions:
REMARK  status: ('A' for Active; 'I' for Inactive)
REMARK    1  A    between atoms: C_1  and  C_2
REMARK    2  A    between atoms: C_1  and  C_3
REMARK    3  A    between atoms: C_2  and  C_8
REMARK    4  A    between atoms: C_3  and  C_13
REMARK    5  A    between atoms: C_9  and  C_11
REMARK    6  A    between atoms: C_10  and  C_15
REMARK    7  A    between atoms: C_10  and  N_21
REMARK    8  A    between atoms: C_13  and  C_16
REMARK                            x       y       z     vdW  Elec       q    Type
REMARK                         _______ _______ _______ _____ _____    ______ ____
ROOT
ATOM      1  C   UNL     1       1.914  -4.845   0.000  0.00  0.00    +0.000 C 
ATOM      2  C   UNL     1       2.398  -4.178   0.000  0.00  0.00    +0.000 C 
ATOM      3  C   UNL     1       2.811  -2.908   0.000  0.00  0.00    +0.000 C 
ATOM      4  C   UNL     1       3.224  -4.178   0.000  0.00  0.00    +0.000 C 
ATOM      5  N   UNL     1       2.143  -3.393   0.000  0.00  0.00    +0.000 NA
ATOM      6  N   UNL     1       3.478  -3.393   0.000  0.00  0.00    +0.000 N 
ATOM      7  O   UNL     1       3.708  -4.845   0.000  0.00  0.00    +0.000 OA
ENDROOT
BRANCH   1  12
ATOM      8  C   UNL     1       0.757  -4.005   0.000  0.00  0.00    +0.000 A 
ATOM      9  C   UNL     1       0.608  -5.426   0.000  0.00  0.00    +0.000 A 
ATOM     10  C   UNL     1      -0.063  -3.919   0.000  0.00  0.00    +0.000 A 
ATOM     11  C   UNL     1      -0.212  -5.340   0.000  0.00  0.00    +0.000 A 
ATOM     12  C   UNL     1       1.093  -4.759   0.000  0.00  0.00    +0.000 A 
ATOM     13  C   UNL     1      -0.548  -4.586   0.000  0.00  0.00    +0.000 A 
ATOM     14  O   UNL     1      -1.368  -4.500   0.000  0.00  0.00    +0.000 OA
ENDBRANCH   1  12
BRANCH   3  15
ATOM     15  C   UNL     1       2.811  -2.083   0.000  0.00  0.00    +0.000 C 
ATOM     16  N   UNL     1       3.526  -1.671   0.000  0.00  0.00    +0.000 NA
BRANCH  15  17
ATOM     17  C   UNL     1       2.096  -1.671   0.000  0.00  0.00    +0.000 C 
BRANCH  17  18
ATOM     18  C   UNL     1       1.382  -2.083   0.000  0.00  0.00    +0.000 C 
BRANCH  18  19
ATOM     19  C   UNL     1       0.668  -1.671   0.000  0.00  0.00    +0.000 C 
BRANCH  19  20
ATOM     20  C   UNL     1      -0.047  -2.083   0.000  0.00  0.00    +0.000 C 
ATOM     21  N   UNL     1      -0.761  -1.671   0.000  0.00  0.00    +0.000 NA
ENDBRANCH  19  20
ENDBRANCH  18  19
ENDBRANCH  17  18
ENDBRANCH  15  17
ENDBRANCH   3  15
BRANCH   6  22
ATOM     22  C   UNL     1       4.263  -3.138   0.000  0.00  0.00    +0.000 C 
BRANCH  22  23
ATOM     23  C   UNL     1       4.876  -3.690   0.000  0.00  0.00    +0.000 C 
ATOM     24  O   UNL     1       5.661  -3.435   0.000  0.00  0.00    +0.000 OA
ATOM     25  O   UNL     1       4.705  -4.497   0.000  0.00  0.00    +0.000 OA
ENDBRANCH  22  23
ENDBRANCH   6  22
TORSDOF 8
