REMARK  Name = 
REMARK  21 active torsions:
REMARK  status: ('A' for Active; 'I' for Inactive)
REMARK    1  A    between atoms: C_2  and  O_18
REMARK    2  A    between atoms: C_17  and  C_20
REMARK    3  A    between atoms: O_18  and  C_32
REMARK    4  A    between atoms: C_20  and  C_22
REMARK    5  A    between atoms: C_22  and  C_23
REMARK    6  A    between atoms: C_23  and  C_24
REMARK    7  A    between atoms: C_24  and  C_25
REMARK    8  A    between atoms: C_32  and  C_33
REMARK    9  A    between atoms: C_33  and  C_35
REMARK   10  A    between atoms: C_35  and  C_36
REMARK   11  A    between atoms: C_36  and  C_37
REMARK   12  A    between atoms: C_37  and  C_38
REMARK   13  A    between atoms: C_38  and  C_39
REMARK   14  A    between atoms: C_39  and  C_40
REMARK   15  A    between atoms: C_40  and  C_41
REMARK   16  A    between atoms: C_42  and  C_43
REMARK   17  A    between atoms: C_43  and  C_44
REMARK   18  A    between atoms: C_45  and  C_46
REMARK   19  A    between atoms: C_46  and  C_47
REMARK   20  A    between atoms: C_47  and  C_48
REMARK   21  A    between atoms: C_48  and  C_49
REMARK                            x       y       z     vdW  Elec       q    Type
REMARK                         _______ _______ _______ _____ _____    ______ ____
ROOT
ATOM      1  C   UNL     1      14.419  -7.460   0.000  0.00  0.00    +0.000 C 
ATOM      2  C   UNL     1      14.419  -8.286   0.000  0.00  0.00    +0.000 C 
ATOM      3  C   UNL     1      15.133  -8.698   0.000  0.00  0.00    +0.000 C 
ATOM      4  C   UNL     1      15.848  -8.286   0.000  0.00  0.00    +0.000 C 
ATOM      5  C   UNL     1      15.848  -7.460   0.000  0.00  0.00    +0.000 C 
ATOM      6  C   UNL     1      15.133  -7.048   0.000  0.00  0.00    +0.000 C 
ATOM      7  C   UNL     1      16.562  -8.698   0.000  0.00  0.00    +0.000 C 
ATOM      8  C   UNL     1      17.277  -8.286   0.000  0.00  0.00    +0.000 C 
ATOM      9  C   UNL     1      17.277  -7.460   0.000  0.00  0.00    +0.000 C 
ATOM     10  C   UNL     1      16.562  -7.048   0.000  0.00  0.00    +0.000 C 
ATOM     11  C   UNL     1      17.991  -7.048   0.000  0.00  0.00    +0.000 C 
ATOM     12  C   UNL     1      17.991  -6.223   0.000  0.00  0.00    +0.000 C 
ATOM     13  C   UNL     1      17.277  -5.811   0.000  0.00  0.00    +0.000 C 
ATOM     14  C   UNL     1      16.562  -6.223   0.000  0.00  0.00    +0.000 C 
ATOM     15  C   UNL     1      18.776  -7.303   0.000  0.00  0.00    +0.000 C 
ATOM     16  C   UNL     1      19.261  -6.636   0.000  0.00  0.00    +0.000 C 
ATOM     17  C   UNL     1      18.776  -5.968   0.000  0.00  0.00    +0.000 C 
ATOM     18  C   UNL     1      18.078  -5.403   0.000  0.00  0.00    +0.000 C 
ATOM     19  C   UNL     1      15.848  -6.636   0.000  0.00  0.00    +0.000 C 
ENDROOT
BRANCH  17  20
ATOM     20  C   UNL     1      19.031  -5.184   0.000  0.00  0.00    +0.000 C 
ATOM     21  C   UNL     1      18.479  -4.570   0.000  0.00  0.00    +0.000 C 
BRANCH  20  22
ATOM     22  C   UNL     1      19.838  -5.012   0.000  0.00  0.00    +0.000 C 
BRANCH  22  23
ATOM     23  C   UNL     1      20.093  -4.227   0.000  0.00  0.00    +0.000 C 
BRANCH  23  24
ATOM     24  C   UNL     1      20.900  -4.056   0.000  0.00  0.00    +0.000 C 
BRANCH  24  25
ATOM     25  C   UNL     1      21.155  -3.271   0.000  0.00  0.00    +0.000 C 
ATOM     26  C   UNL     1      21.962  -3.100   0.000  0.00  0.00    +0.000 C 
ATOM     27  C   UNL     1      20.603  -2.658   0.000  0.00  0.00    +0.000 C 
ENDBRANCH  24  25
ENDBRANCH  23  24
ENDBRANCH  22  23
ENDBRANCH  20  22
ENDBRANCH  17  20
BRANCH   2  28
ATOM     28  O   UNL     1      13.704  -8.698   0.000  0.00  0.00    +0.000 OA
BRANCH  28  29
ATOM     29  C   UNL     1      12.990  -8.286   0.000  0.00  0.00    +0.000 C 
ATOM     30  O   UNL     1      12.990  -7.460   0.000  0.00  0.00    +0.000 OA
BRANCH  29  31
ATOM     31  C   UNL     1      12.275  -8.698   0.000  0.00  0.00    +0.000 C 
BRANCH  31  32
ATOM     32  C   UNL     1      11.561  -8.286   0.000  0.00  0.00    +0.000 C 
BRANCH  32  33
ATOM     33  C   UNL     1      10.847  -8.698   0.000  0.00  0.00    +0.000 C 
BRANCH  33  34
ATOM     34  C   UNL     1      10.132  -8.285   0.000  0.00  0.00    +0.000 C 
BRANCH  34  35
ATOM     35  C   UNL     1       9.418  -8.698   0.000  0.00  0.00    +0.000 C 
BRANCH  35  36
ATOM     36  C   UNL     1       8.703  -8.285   0.000  0.00  0.00    +0.000 C 
BRANCH  36  37
ATOM     37  C   UNL     1       7.989  -8.698   0.000  0.00  0.00    +0.000 C 
BRANCH  37  38
ATOM     38  C   UNL     1       7.274  -8.285   0.000  0.00  0.00    +0.000 C 
ATOM     39  C   UNL     1       6.560  -8.698   0.000  0.00  0.00    +0.000 C 
BRANCH  39  40
ATOM     40  C   UNL     1       6.560  -9.523   0.000  0.00  0.00    +0.000 C 
BRANCH  40  41
ATOM     41  C   UNL     1       5.845  -9.935   0.000  0.00  0.00    +0.000 C 
ATOM     42  C   UNL     1       5.845 -10.760   0.000  0.00  0.00    +0.000 C 
BRANCH  42  43
ATOM     43  C   UNL     1       6.559 -11.173   0.000  0.00  0.00    +0.000 C 
BRANCH  43  44
ATOM     44  C   UNL     1       6.559 -11.998   0.000  0.00  0.00    +0.000 C 
BRANCH  44  45
ATOM     45  C   UNL     1       7.274 -12.410   0.000  0.00  0.00    +0.000 C 
BRANCH  45  46
ATOM     46  C   UNL     1       7.274 -13.235   0.000  0.00  0.00    +0.000 C 
ATOM     47  C   UNL     1       6.559 -13.648   0.000  0.00  0.00    +0.000 C 
ENDBRANCH  45  46
ENDBRANCH  44  45
ENDBRANCH  43  44
ENDBRANCH  42  43
ENDBRANCH  40  41
ENDBRANCH  39  40
ENDBRANCH  37  38
ENDBRANCH  36  37
ENDBRANCH  35  36
ENDBRANCH  34  35
ENDBRANCH  33  34
ENDBRANCH  32  33
ENDBRANCH  31  32
ENDBRANCH  29  31
ENDBRANCH  28  29
ENDBRANCH   2  28
TORSDOF 21
