REMARK  Name = 
REMARK  3 active torsions:
REMARK  status: ('A' for Active; 'I' for Inactive)
REMARK    1  A    between atoms: CA_2  and  CB_3
REMARK    2  A    between atoms: CA_2  and  C_7
REMARK    3  A    between atoms: CB_3  and  CG_4
REMARK                            x       y       z     vdW  Elec       q    Type
REMARK                         _______ _______ _______ _____ _____    ______ ____
ROOT
ATOM      1  N   ASN A   1       1.952   0.119   0.000  0.00  0.00    +0.000 NA
ATOM      2  CA  ASN A   1       1.952   0.944   0.000  0.00  0.00    +0.000 C 
ENDROOT
BRANCH   2   3
ATOM      3  C   ASN A   1       2.666   1.356   0.000  0.00  0.00    +0.000 C 
ATOM      4  O   ASN A   1       3.381   0.944   0.000  0.00  0.00    +0.000 OA
ATOM      5  OXT ASN A   1       2.666   2.181   0.000  0.00  0.00    +0.000 OA
ENDBRANCH   2   3
BRANCH   2   6
ATOM      6  CB  ASN A   1       1.238   1.356   0.000  0.00  0.00    +0.000 C 
BRANCH   6   7
ATOM      7  CG  ASN A   1       0.523   0.944   0.000  0.00  0.00    +0.000 C 
ATOM      8  ND2 ASN A   1      -0.191   1.356   0.000  0.00  0.00    +0.000 NA
ATOM      9  OD1 ASN A   1       0.523   0.119   0.000  0.00  0.00    +0.000 OA
ENDBRANCH   6   7
ENDBRANCH   2   6
TORSDOF 3
