REMARK  Name = 
REMARK  10 active torsions:
REMARK  status: ('A' for Active; 'I' for Inactive)
REMARK    1  A    between atoms: C_2  and  C_3
REMARK    2  A    between atoms: C_3  and  C_4
REMARK    3  A    between atoms: C_4  and  N_5
REMARK    4  A    between atoms: N_5  and  C_6
REMARK    5  A    between atoms: N_5  and  C_10
REMARK    6  A    between atoms: C_6  and  C_7
REMARK    7  A    between atoms: C_7  and  C_8
REMARK    8  A    between atoms: C_10  and  C_11
REMARK    9  A    between atoms: C_11  and  C_12
REMARK   10  A    between atoms: C_22  and  C_23
REMARK                            x       y       z     vdW  Elec       q    Type
REMARK                         _______ _______ _______ _____ _____    ______ ____
ROOT
ATOM      1  C   UNL     1       7.088   0.082   0.000  0.00  0.00    +0.000 A 
ATOM      2  C   UNL     1       7.802   0.494   0.000  0.00  0.00    +0.000 A 
ATOM      3  C   UNL     1       8.587   0.239   0.000  0.00  0.00    +0.000 A 
ATOM      4  C   UNL     1       9.072   0.907   0.000  0.00  0.00    +0.000 A 
ATOM      5  C   UNL     1       9.892   0.821   0.000  0.00  0.00    +0.000 A 
ATOM      6  C   UNL     1      10.227   0.067   0.000  0.00  0.00    +0.000 A 
ATOM      7  C   UNL     1       9.743  -0.600   0.000  0.00  0.00    +0.000 A 
ATOM      8  C   UNL     1       8.922  -0.514   0.000  0.00  0.00    +0.000 A 
ATOM      9 CL   UNL     1      11.048  -0.019   0.000  0.00  0.00    +0.000 Cl
ATOM     10  C   UNL     1       8.587   1.574   0.000  0.00  0.00    +0.000 C 
ATOM     11  C   UNL     1       8.841   2.359   0.000  0.00  0.00    +0.000 C 
ATOM     12  C   UNL     1       7.802   1.319   0.000  0.00  0.00    +0.000 A 
ATOM     13  C   UNL     1       7.088   1.732   0.000  0.00  0.00    +0.000 A 
ATOM     14  C   UNL     1       6.373   1.319   0.000  0.00  0.00    +0.000 A 
ATOM     15  C   UNL     1       6.373   0.494   0.000  0.00  0.00    +0.000 A 
ATOM     16 CL   UNL     1       5.659   1.732   0.000  0.00  0.00    +0.000 Cl
ENDROOT
BRANCH  11  17
ATOM     17  C   UNL     1       8.290   2.972   0.000  0.00  0.00    +0.000 A 
ATOM     18  C   UNL     1       7.482   2.801   0.000  0.00  0.00    +0.000 A 
ATOM     19  C   UNL     1       6.931   3.414   0.000  0.00  0.00    +0.000 A 
ATOM     20  C   UNL     1       7.185   4.198   0.000  0.00  0.00    +0.000 A 
ATOM     21  C   UNL     1       7.992   4.370   0.000  0.00  0.00    +0.000 A 
ATOM     22  C   UNL     1       8.544   3.757   0.000  0.00  0.00    +0.000 A 
ATOM     23 CL   UNL     1       6.633   4.811   0.000  0.00  0.00    +0.000 Cl
ENDBRANCH  11  17
BRANCH   1  24
ATOM     24  C   UNL     1       7.088  -0.743   0.000  0.00  0.00    +0.000 C 
ATOM     25  O   UNL     1       7.802  -1.155   0.000  0.00  0.00    +0.000 OA
BRANCH  24  26
ATOM     26  C   UNL     1       6.373  -1.155   0.000  0.00  0.00    +0.000 C 
BRANCH  26  27
ATOM     27  N   UNL     1       6.373  -1.980   0.000  0.00  0.00    +0.000 NA
BRANCH  27  28
ATOM     28  C   UNL     1       5.659  -2.393   0.000  0.00  0.00    +0.000 C 
BRANCH  28  29
ATOM     29  C   UNL     1       5.659  -3.218   0.000  0.00  0.00    +0.000 C 
BRANCH  29  31
ATOM     30  C   UNL     1       4.944  -4.455   0.000  0.00  0.00    +0.000 C 
ATOM     31  C   UNL     1       4.944  -3.631   0.000  0.00  0.00    +0.000 C 
ENDBRANCH  29  31
ENDBRANCH  28  29
ENDBRANCH  27  28
BRANCH  27  32
ATOM     32  C   UNL     1       7.088  -2.393   0.000  0.00  0.00    +0.000 C 
BRANCH  32  33
ATOM     33  C   UNL     1       7.088  -3.218   0.000  0.00  0.00    +0.000 C 
BRANCH  33  34
ATOM     34  C   UNL     1       7.802  -3.631   0.000  0.00  0.00    +0.000 C 
ATOM     35  C   UNL     1       7.802  -4.455   0.000  0.00  0.00    +0.000 C 
ENDBRANCH  33  34
ENDBRANCH  32  33
ENDBRANCH  27  32
ENDBRANCH  26  27
ENDBRANCH  24  26
ENDBRANCH   1  24
TORSDOF 10
