REMARK  Name = 
REMARK  2 active torsions:
REMARK  status: ('A' for Active; 'I' for Inactive)
REMARK    1  A    between atoms: C_7  and  C_10
REMARK    2  A    between atoms: C_8  and  C_9
REMARK                            x       y       z     vdW  Elec       q    Type
REMARK                         _______ _______ _______ _____ _____    ______ ____
ROOT
ATOM      1  C   UNL     1      -0.143   0.856   0.000  0.00  0.00    +0.000 A 
ATOM      2  C   UNL     1      -0.628   1.523   0.000  0.00  0.00    +0.000 A 
ATOM      3  C   UNL     1       1.356   0.698   0.000  0.00  0.00    +0.000 C 
ATOM      4  C   UNL     1       2.070   1.110   0.000  0.00  0.00    +0.000 C 
ATOM      5  C   UNL     1       2.070   1.935   0.000  0.00  0.00    +0.000 C 
ATOM      6  C   UNL     1       1.356   2.348   0.000  0.00  0.00    +0.000 C 
ATOM      7  C   UNL     1       0.641   1.935   0.000  0.00  0.00    +0.000 A 
ATOM      8  N   UNL     1      -0.143   2.190   0.000  0.00  0.00    +0.000 NA
ATOM      9  N   UNL     1       0.641   1.110   0.000  0.00  0.00    +0.000 N 
ATOM     10  O   UNL     1       2.784   0.698   0.000  0.00  0.00    +0.000 OA
ATOM     11  O   UNL     1       2.784   2.348   0.000  0.00  0.00    +0.000 OA
ATOM     12  O   UNL     1       1.356   3.173   0.000  0.00  0.00    +0.000 OA
ENDROOT
BRANCH   2  18
ATOM     13  C   UNL     1      -3.103   1.523   0.000  0.00  0.00    +0.000 A 
ATOM     14  C   UNL     1      -2.691   0.808   0.000  0.00  0.00    +0.000 A 
ATOM     15  C   UNL     1      -2.691   2.237   0.000  0.00  0.00    +0.000 A 
ATOM     16  C   UNL     1      -1.866   0.808   0.000  0.00  0.00    +0.000 A 
ATOM     17  C   UNL     1      -1.866   2.237   0.000  0.00  0.00    +0.000 A 
ATOM     18  C   UNL     1      -1.453   1.523   0.000  0.00  0.00    +0.000 A 
ENDBRANCH   2  18
BRANCH   3  19
ATOM     19  C   UNL     1       1.356  -0.127   0.000  0.00  0.00    +0.000 C 
ATOM     20  O   UNL     1       2.070  -0.540   0.000  0.00  0.00    +0.000 OA
ENDBRANCH   3  19
TORSDOF 2
