REMARK  Name = 
REMARK  3 active torsions:
REMARK  status: ('A' for Active; 'I' for Inactive)
REMARK    1  A    between atoms: C_7  and  C_8
REMARK    2  A    between atoms: C_7  and  S_15
REMARK    3  A    between atoms: S_15  and  S_16
REMARK                            x       y       z     vdW  Elec       q    Type
REMARK                         _______ _______ _______ _____ _____    ______ ____
ROOT
ATOM      1  C   UNL     1       0.241  -0.976   0.000  0.00  0.00    +0.000 C 
ATOM      2  C   UNL     1      -0.652  -0.327   0.000  0.00  0.00    +0.000 C 
ATOM      3  C   UNL     1       1.120   1.727   0.000  0.00  0.00    +0.000 C 
ATOM      4  C   UNL     1       0.016   1.727   0.000  0.00  0.00    +0.000 C 
ATOM      5  C   UNL     1       0.980  -0.155   0.000  0.00  0.00    +0.000 C 
ATOM      6  C   UNL     1       1.235   0.629   0.000  0.00  0.00    +0.000 C 
ATOM      7  C   UNL     1       0.155  -0.155   0.000  0.00  0.00    +0.000 C 
ATOM      8  C   UNL     1       0.568   1.114   0.000  0.00  0.00    +0.000 C 
ATOM      9  N   UNL     1      -0.100   0.629   0.000  0.00  0.00    +0.000 NA
ATOM     10  O   UNL     1      -0.884   0.884   0.000  0.00  0.00    +0.000 OA
ENDROOT
BRANCH   6  11
ATOM     11  C   UNL     1       2.020   0.884   0.000  0.00  0.00    +0.000 C 
BRANCH  11  12
ATOM     12  S   UNL     1       2.633   0.332   0.000  0.00  0.00    +0.000 S 
BRANCH  12  16
ATOM     13  C   UNL     1       4.202   0.842   0.000  0.00  0.00    +0.000 C 
ATOM     14  O   UNL     1       3.672  -0.197   0.000  0.00  0.00    +0.000 OA
ATOM     15  O   UNL     1       3.163   1.372   0.000  0.00  0.00    +0.000 OA
ATOM     16  S   UNL     1       3.417   0.587   0.000  0.00  0.00    +0.000 S 
ENDBRANCH  12  16
ENDBRANCH  11  12
ENDBRANCH   6  11
TORSDOF 3
