REMARK  Name = 
REMARK  4 active torsions:
REMARK  status: ('A' for Active; 'I' for Inactive)
REMARK    1  A    between atoms: C_2  and  C_3
REMARK    2  A    between atoms: C_5  and  N_13
REMARK    3  A    between atoms: C_7  and  O_8
REMARK    4  A    between atoms: O_8  and  P_9
REMARK                            x       y       z     vdW  Elec       q    Type
REMARK                         _______ _______ _______ _____ _____    ______ ____
ROOT
ATOM      1  C   UNL     1       0.715  -1.238   0.000  0.00  0.00    +0.000 C 
ATOM      2  O   UNL     1       1.382  -1.722   0.000  0.00  0.00    +0.000 OA
ATOM      3  C   UNL     1       1.127  -2.507   0.000  0.00  0.00    +0.000 C 
ATOM      4  C   UNL     1       0.302  -2.507   0.000  0.00  0.00    +0.000 C 
ATOM      5  C   UNL     1       0.047  -1.722   0.000  0.00  0.00    +0.000 C 
ENDROOT
BRANCH   3   6
ATOM      6  N   UNL     1       1.612  -3.175   0.000  0.00  0.00    +0.000 N 
ATOM      7  C   UNL     1       2.432  -3.088   0.000  0.00  0.00    +0.000 A 
ATOM      8  C   UNL     1       2.917  -3.756   0.000  0.00  0.00    +0.000 A 
ATOM      9  C   UNL     1       2.582  -4.509   0.000  0.00  0.00    +0.000 A 
ATOM     10  O   UNL     1       3.067  -5.177   0.000  0.00  0.00    +0.000 OA
ATOM     11  N   UNL     1       1.761  -4.596   0.000  0.00  0.00    +0.000 NA
ATOM     12  C   UNL     1       1.276  -3.928   0.000  0.00  0.00    +0.000 A 
ATOM     13  O   UNL     1       0.456  -4.014   0.000  0.00  0.00    +0.000 OA
ENDBRANCH   3   6
BRANCH   1  15
ATOM     14  O   UNL     1       0.000   0.000   0.000  0.00  0.00    +0.000 OA
ATOM     15  C   UNL     1       0.715  -0.412   0.000  0.00  0.00    +0.000 C 
ENDBRANCH   1  15
BRANCH   5  16
ATOM     16  O   UNL     1      -0.738  -1.468   0.000  0.00  0.00    +0.000 OA
BRANCH  16  17
ATOM     17  P   UNL     1      -0.909  -0.660   0.000  0.00  0.00    +0.000 P 
ATOM     18  O   UNL     1      -1.081   0.146   0.000  0.00  0.00    +0.000 OA
ATOM     19  O   UNL     1      -1.716  -0.832   0.000  0.00  0.00    +0.000 OA
ATOM     20  O   UNL     1      -0.102  -0.489   0.000  0.00  0.00    +0.000 OA
ENDBRANCH  16  17
ENDBRANCH   5  16
TORSDOF 4
