REMARK  Name = 
REMARK  8 active torsions:
REMARK  status: ('A' for Active; 'I' for Inactive)
REMARK    1  A    between atoms: N_2  and  C_3
REMARK    2  A    between atoms: N_2  and  C_6
REMARK    3  A    between atoms: C_3  and  C_4
REMARK    4  A    between atoms: C_6  and  C_7
REMARK    5  A    between atoms: C_8  and  C_9
REMARK    6  A    between atoms: C_9  and  O_10
REMARK    7  A    between atoms: O_10  and  C_11
REMARK    8  A    between atoms: C_17  and  C_20
REMARK                            x       y       z     vdW  Elec       q    Type
REMARK                         _______ _______ _______ _____ _____    ______ ____
ROOT
ATOM      1  C   UNL     1       4.287  -3.300   0.000  0.00  0.00    +0.000 A 
ATOM      2  C   UNL     1       4.287  -2.475   0.000  0.00  0.00    +0.000 A 
ATOM      3  C   UNL     1       5.001  -2.062   0.000  0.00  0.00    +0.000 A 
ATOM      4  C   UNL     1       5.716  -2.475   0.000  0.00  0.00    +0.000 A 
ATOM      5  C   UNL     1       5.716  -3.300   0.000  0.00  0.00    +0.000 A 
ATOM      6  C   UNL     1       5.001  -3.712   0.000  0.00  0.00    +0.000 A 
ATOM      7  C   UNL     1       6.329  -1.923   0.000  0.00  0.00    +0.000 A 
ATOM      8  C   UNL     1       5.993  -1.169   0.000  0.00  0.00    +0.000 A 
ATOM      9  O   UNL     1       5.173  -1.256   0.000  0.00  0.00    +0.000 OA
ENDROOT
BRANCH   7  10
ATOM     10  C   UNL     1       7.136  -2.095   0.000  0.00  0.00    +0.000 A 
ATOM     11  C   UNL     1       7.688  -1.481   0.000  0.00  0.00    +0.000 A 
ATOM     12  C   UNL     1       8.495  -1.653   0.000  0.00  0.00    +0.000 A 
ATOM     13  C   UNL     1       8.750  -2.438   0.000  0.00  0.00    +0.000 A 
ATOM     14 BR   UNL     1       9.557  -2.609   0.000  0.00  0.00    +0.000 Br
ATOM     15  C   UNL     1       8.198  -3.051   0.000  0.00  0.00    +0.000 A 
ATOM     16  C   UNL     1       7.391  -2.879   0.000  0.00  0.00    +0.000 A 
ENDBRANCH   7  10
BRANCH   1  17
ATOM     17  O   UNL     1       3.572  -3.712   0.000  0.00  0.00    +0.000 OA
BRANCH  17  18
ATOM     18  C   UNL     1       3.572  -4.537   0.000  0.00  0.00    +0.000 C 
BRANCH  18  20
ATOM     19  C   UNL     1       2.143  -4.537   0.000  0.00  0.00    +0.000 C 
ATOM     20  C   UNL     1       2.858  -4.950   0.000  0.00  0.00    +0.000 C 
BRANCH  19  21
ATOM     21  C   UNL     1       1.429  -4.950   0.000  0.00  0.00    +0.000 C 
BRANCH  21  23
ATOM     22  C   UNL     1       0.715  -3.712   0.000  0.00  0.00    +0.000 C 
ATOM     23  N   UNL     1       0.715  -4.537   0.000  0.00  0.00    +0.000 NA
BRANCH  23  24
ATOM     24  C   UNL     1       0.000  -4.950   0.000  0.00  0.00    +0.000 C 
BRANCH  24  25
ATOM     25  C   UNL     1      -0.715  -4.537   0.000  0.00  0.00    +0.000 C 
ATOM     26  C   UNL     1      -1.429  -4.950   0.000  0.00  0.00    +0.000 C 
ENDBRANCH  24  25
ENDBRANCH  23  24
ENDBRANCH  21  23
ENDBRANCH  19  21
ENDBRANCH  18  20
ENDBRANCH  17  18
ENDBRANCH   1  17
TORSDOF 8
