REMARK  Name = 
REMARK  7 active torsions:
REMARK  status: ('A' for Active; 'I' for Inactive)
REMARK    1  A    between atoms: C_4  and  O_5
REMARK    2  A    between atoms: O_5  and  C_6
REMARK    3  A    between atoms: C_6  and  C_7
REMARK    4  A    between atoms: C_13  and  C_14
REMARK    5  A    between atoms: C_14  and  C_15
REMARK    6  A    between atoms: C_20  and  C_21
REMARK    7  A    between atoms: C_21  and  C_22
REMARK                            x       y       z     vdW  Elec       q    Type
REMARK                         _______ _______ _______ _____ _____    ______ ____
ROOT
ATOM      1  C   UNL     1      -3.572  -3.712   0.000  0.00  0.00    +0.000 C 
ENDROOT
BRANCH   1   9
ATOM      2  C   UNL     1      -2.143  -2.888   0.000  0.00  0.00    +0.000 C 
ATOM      3  C   UNL     1      -2.143  -3.712   0.000  0.00  0.00    +0.000 A 
ATOM      4  C   UNL     1      -1.429  -4.125   0.000  0.00  0.00    +0.000 A 
ATOM      5  C   UNL     1      -1.429  -4.950   0.000  0.00  0.00    +0.000 A 
ATOM      6  C   UNL     1      -2.143  -5.362   0.000  0.00  0.00    +0.000 A 
ATOM      7  C   UNL     1      -2.858  -4.950   0.000  0.00  0.00    +0.000 A 
ATOM      8  C   UNL     1      -3.572  -5.362   0.000  0.00  0.00    +0.000 C 
ATOM      9  C   UNL     1      -2.858  -4.125   0.000  0.00  0.00    +0.000 A 
BRANCH   5  10
ATOM     10  O   UNL     1      -0.715  -5.362   0.000  0.00  0.00    +0.000 OA
BRANCH  10  11
ATOM     11  C   UNL     1      -0.715  -6.188   0.000  0.00  0.00    +0.000 C 
BRANCH  11  12
ATOM     12  C   UNL     1       0.000  -6.600   0.000  0.00  0.00    +0.000 C 
ATOM     13  O   UNL     1       0.000  -7.425   0.000  0.00  0.00    +0.000 OA
ATOM     14  O   UNL     1       0.715  -6.188   0.000  0.00  0.00    +0.000 OA
ENDBRANCH  11  12
ENDBRANCH  10  11
ENDBRANCH   5  10
ENDBRANCH   1   9
BRANCH   1  15
ATOM     15  C   UNL     1      -4.287  -4.125   0.000  0.00  0.00    +0.000 A 
ATOM     16  C   UNL     1      -4.287  -4.950   0.000  0.00  0.00    +0.000 A 
ATOM     17  C   UNL     1      -5.001  -5.362   0.000  0.00  0.00    +0.000 A 
ATOM     18  C   UNL     1      -5.716  -4.950   0.000  0.00  0.00    +0.000 A 
ATOM     19  O   UNL     1      -6.430  -5.362   0.000  0.00  0.00    +0.000 OA
ATOM     20  C   UNL     1      -5.716  -4.125   0.000  0.00  0.00    +0.000 A 
ATOM     21  C   UNL     1      -5.001  -3.712   0.000  0.00  0.00    +0.000 A 
BRANCH  20  22
ATOM     22  C   UNL     1      -6.430  -3.712   0.000  0.00  0.00    +0.000 C 
BRANCH  22  23
ATOM     23  C   UNL     1      -7.145  -4.125   0.000  0.00  0.00    +0.000 A 
ATOM     24  C   UNL     1      -7.145  -4.950   0.000  0.00  0.00    +0.000 A 
ATOM     25  C   UNL     1      -7.859  -5.362   0.000  0.00  0.00    +0.000 A 
ATOM     26  C   UNL     1      -8.574  -4.950   0.000  0.00  0.00    +0.000 A 
ATOM     27  C   UNL     1      -8.574  -4.125   0.000  0.00  0.00    +0.000 A 
ATOM     28  C   UNL     1      -7.859  -3.712   0.000  0.00  0.00    +0.000 A 
ENDBRANCH  22  23
ENDBRANCH  20  22
ENDBRANCH   1  15
TORSDOF 7
