REMARK  Name = 
REMARK  3 active torsions:
REMARK  status: ('A' for Active; 'I' for Inactive)
REMARK    1  A    between atoms: C_1  and  C_2
REMARK    2  A    between atoms: C_1  and  O_12
REMARK    3  A    between atoms: O_12  and  P_14
REMARK                            x       y       z     vdW  Elec       q    Type
REMARK                         _______ _______ _______ _____ _____    ______ ____
ROOT
ATOM      1  C   UNL     1       1.235   0.629   0.000  0.00  0.00    +0.000 C 
ATOM      2  C   UNL     1       0.568   1.114   0.000  0.00  0.00    +0.000 C 
ATOM      3  C   UNL     1      -0.100   0.629   0.000  0.00  0.00    +0.000 C 
ATOM      4  C   UNL     1       0.155  -0.155   0.000  0.00  0.00    +0.000 C 
ATOM      5  O   UNL     1       0.568   1.939   0.000  0.00  0.00    +0.000 OA
ATOM      6  O   UNL     1      -0.884   0.884   0.000  0.00  0.00    +0.000 OA
ATOM      7  O   UNL     1      -0.330  -0.823   0.000  0.00  0.00    +0.000 OA
ATOM      8  O   UNL     1       0.980  -0.155   0.000  0.00  0.00    +0.000 OA
ENDROOT
BRANCH   1   9
ATOM      9  C   UNL     1       2.020   0.884   0.000  0.00  0.00    +0.000 C 
BRANCH   9  10
ATOM     10  O   UNL     1       2.633   0.332   0.000  0.00  0.00    +0.000 OA
BRANCH  10  14
ATOM     11  O   UNL     1       4.202   0.842   0.000  0.00  0.00    +0.000 OA
ATOM     12  O   UNL     1       3.672  -0.197   0.000  0.00  0.00    +0.000 OA
ATOM     13  O   UNL     1       3.163   1.372   0.000  0.00  0.00    +0.000 OA
ATOM     14  P   UNL     1       3.417   0.587   0.000  0.00  0.00    +0.000 P 
ENDBRANCH  10  14
ENDBRANCH   9  10
ENDBRANCH   1   9
TORSDOF 3
