REMARK  Name = 
REMARK  5 active torsions:
REMARK  status: ('A' for Active; 'I' for Inactive)
REMARK    1  A    between atoms: N_3  and  C_6
REMARK    2  A    between atoms: N_3  and  C_8
REMARK    3  A    between atoms: N_5  and  C_10
REMARK    4  A    between atoms: C_6  and  C_7
REMARK    5  A    between atoms: C_7  and  C_9
REMARK                            x       y       z     vdW  Elec       q    Type
REMARK                         _______ _______ _______ _____ _____    ______ ____
ROOT
ATOM      1  C   UNL     1       3.793  -0.540   0.000  0.00  0.00    +0.000 A 
ATOM      2  C   UNL     1       3.079  -0.953   0.000  0.00  0.00    +0.000 A 
ATOM      3  C   UNL     1       4.508  -0.953   0.000  0.00  0.00    +0.000 A 
ATOM      4  C   UNL     1       3.793  -2.190   0.000  0.00  0.00    +0.000 A 
ATOM      5  C   UNL     1       3.079  -1.778   0.000  0.00  0.00    +0.000 A 
ATOM      6  C   UNL     1       4.508  -1.778   0.000  0.00  0.00    +0.000 A 
ATOM      7  C   UNL     1       3.793  -3.015   0.000  0.00  0.00    +0.000 C 
ENDROOT
BRANCH   2  10
ATOM      8  O   UNL     1       1.650  -0.953   0.000  0.00  0.00    +0.000 OA
ATOM      9  O   UNL     1       2.365   0.285   0.000  0.00  0.00    +0.000 OA
ATOM     10  N   UNL     1       2.365  -0.540   0.000  0.00  0.00    +0.000 N 
ENDBRANCH   2  10
BRANCH   1  11
ATOM     11  N   UNL     1       3.793   0.285   0.000  0.00  0.00    +0.000 NA
BRANCH  11  12
ATOM     12  C   UNL     1       4.508   0.697   0.000  0.00  0.00    +0.000 C 
BRANCH  12  13
ATOM     13  C   UNL     1       4.508   1.522   0.000  0.00  0.00    +0.000 C 
BRANCH  13  15
ATOM     14  N   UNL     1       5.222   2.760   0.000  0.00  0.00    +0.000 NA
ATOM     15  C   UNL     1       5.222   1.935   0.000  0.00  0.00    +0.000 C 
ENDBRANCH  13  15
ENDBRANCH  12  13
ENDBRANCH  11  12
ENDBRANCH   1  11
TORSDOF 5
