REMARK  Name = 
REMARK  0 active torsions:
REMARK  status: ('A' for Active; 'I' for Inactive)
REMARK                            x       y       z     vdW  Elec       q    Type
REMARK                         _______ _______ _______ _____ _____    ______ ____
ROOT
ATOM      1  C   UNL     1       0.540   1.715   0.000  0.00  0.00    +0.000 C 
ATOM      2  C   UNL     1      -0.540  -1.715   0.000  0.00  0.00    +0.000 C 
ATOM      3  C   UNL     1       0.000   1.091   0.000  0.00  0.00    +0.000 C 
ATOM      4  C   UNL     1       1.350   1.559   0.000  0.00  0.00    +0.000 C 
ATOM      5  C   UNL     1      -1.350  -1.559   0.000  0.00  0.00    +0.000 C 
ATOM      6  C   UNL     1       0.000  -1.091   0.000  0.00  0.00    +0.000 C 
ATOM      7  C   UNL     1      -1.350   0.624   0.000  0.00  0.00    +0.000 C 
ATOM      8  C   UNL     1       1.080   0.156   0.000  0.00  0.00    +0.000 C 
ATOM      9  C   UNL     1      -1.080  -0.156   0.000  0.00  0.00    +0.000 C 
ATOM     10  C   UNL     1       1.350  -0.624   0.000  0.00  0.00    +0.000 C 
ATOM     11  N   UNL     1      -0.810   1.247   0.000  0.00  0.00    +0.000 NA
ATOM     12  N   UNL     1       1.620   0.780   0.000  0.00  0.00    +0.000 NA
ATOM     13  N   UNL     1      -1.620  -0.780   0.000  0.00  0.00    +0.000 NA
ATOM     14  N   UNL     1       0.810  -1.247   0.000  0.00  0.00    +0.000 NA
ENDROOT
TORSDOF 0
REMARK  Name = 
REMARK  0 active torsions:
REMARK  status: ('A' for Active; 'I' for Inactive)
REMARK                            x       y       z     vdW  Elec       q    Type
REMARK                         _______ _______ _______ _____ _____    ______ ____
ROOT
ATOM      1 CU   UNL     1       3.742   0.000   0.000  0.00  0.00    +0.000 Cu
ENDROOT
TORSDOF 0
