REMARK  Name = 
REMARK  2 active torsions:
REMARK  status: ('A' for Active; 'I' for Inactive)
REMARK    1  A    between atoms: P_2  and  O_5
REMARK    2  A    between atoms: O_5  and  P_6
REMARK                            x       y       z     vdW  Elec       q    Type
REMARK                         _______ _______ _______ _____ _____    ______ ____
ROOT
ATOM      1  O   UNL     1       0.825  -0.825   0.000  0.00  0.00    +0.000 OA
ENDROOT
BRANCH   1   3
ATOM      2  O   UNL     1      -0.604  -1.650   0.000  0.00  0.00    +0.000 OA
ATOM      3  P   UNL     1       0.111  -1.238   0.000  0.00  0.00    +0.000 P 
ATOM      4  O   UNL     1       0.523  -1.952   0.000  0.00  0.00    +0.000 OA
ATOM      5  O   UNL     1      -0.302  -0.523   0.000  0.00  0.00    +0.000 OA
ENDBRANCH   1   3
BRANCH   1   6
ATOM      6  P   UNL     1       0.825   0.000   0.000  0.00  0.00    +0.000 P 
ATOM      7  O   UNL     1       0.825   0.825   0.000  0.00  0.00    +0.000 OA
ATOM      8  O   UNL     1       1.650   0.000   0.000  0.00  0.00    +0.000 OA
ATOM      9  O   UNL     1       0.000   0.000   0.000  0.00  0.00    +0.000 OA
ENDBRANCH   1   6
TORSDOF 2
