REMARK  Name = 
REMARK  2 active torsions:
REMARK  status: ('A' for Active; 'I' for Inactive)
REMARK    1  A    between atoms: S_1  and  O_3
REMARK    2  A    between atoms: O_3  and  C_25
REMARK                            x       y       z     vdW  Elec       q    Type
REMARK                         _______ _______ _______ _____ _____    ______ ____
ROOT
ATOM      1  O   UNL     1       9.006   1.926   0.000  0.00  0.00    +0.000 OA
ATOM      2  C   UNL     1       6.540   0.065   0.000  0.00  0.00    +0.000 C 
ATOM      3  C   UNL     1       7.255  -0.347   0.000  0.00  0.00    +0.000 C 
ATOM      4  C   UNL     1       7.969   0.065   0.000  0.00  0.00    +0.000 C 
ATOM      5  C   UNL     1       7.969   0.890   0.000  0.00  0.00    +0.000 C 
ATOM      6  C   UNL     1       5.789  -0.353   0.000  0.00  0.00    +0.000 C 
ATOM      7  C   UNL     1       6.540   0.890   0.000  0.00  0.00    +0.000 C 
ATOM      8  C   UNL     1       7.255   1.303   0.000  0.00  0.00    +0.000 C 
ATOM      9  C   UNL     1       8.750  -0.186   0.000  0.00  0.00    +0.000 C 
ATOM     10  C   UNL     1       7.268  -1.207   0.000  0.00  0.00    +0.000 C 
ATOM     11  C   UNL     1       5.783  -1.212   0.000  0.00  0.00    +0.000 C 
ATOM     12  C   UNL     1       5.025   0.112   0.000  0.00  0.00    +0.000 C 
ATOM     13  C   UNL     1       8.750   1.142   0.000  0.00  0.00    +0.000 C 
ATOM     14  C   UNL     1       9.231   0.478   0.000  0.00  0.00    +0.000 C 
ATOM     15  C   UNL     1       6.527  -1.642   0.000  0.00  0.00    +0.000 C 
ATOM     16  C   UNL     1       7.969   1.715   0.000  0.00  0.00    +0.000 C 
ATOM     17  C   UNL     1       5.796   0.472   0.000  0.00  0.00    +0.000 C 
ATOM     18  C   UNL     1       5.011  -1.666   0.000  0.00  0.00    +0.000 C 
ATOM     19  C   UNL     1       4.243  -0.323   0.000  0.00  0.00    +0.000 C 
ATOM     20  C   UNL     1       4.236  -1.218   0.000  0.00  0.00    +0.000 C 
ENDROOT
BRANCH  20  21
ATOM     21  O   UNL     1       3.520  -1.628   0.000  0.00  0.00    +0.000 OA
BRANCH  21  22
ATOM     22  S   UNL     1       2.807  -1.213   0.000  0.00  0.00    +0.000 S 
ATOM     23  O   UNL     1       2.094  -0.797   0.000  0.00  0.00    +0.000 OA
ATOM     24  O   UNL     1       2.392  -1.926   0.000  0.00  0.00    +0.000 OA
ATOM     25  O   UNL     1       3.222  -0.500   0.000  0.00  0.00    +0.000 OA
ENDBRANCH  21  22
ENDBRANCH  20  21
TORSDOF 2
