REMARK  Name = 
REMARK  11 active torsions:
REMARK  status: ('A' for Active; 'I' for Inactive)
REMARK    1  A    between atoms: C_5  and  C_10
REMARK    2  A    between atoms: C_5  and  O_37
REMARK    3  A    between atoms: C_6  and  C_11
REMARK    4  A    between atoms: C_6  and  O_38
REMARK    5  A    between atoms: C_9  and  C_18
REMARK    6  A    between atoms: C_20  and  N_27
REMARK    7  A    between atoms: C_21  and  N_28
REMARK    8  A    between atoms: O_37  and  P_42
REMARK    9  A    between atoms: O_38  and  P_43
REMARK   10  A    between atoms: O_41  and  P_42
REMARK   11  A    between atoms: O_41  and  P_43
REMARK                            x       y       z     vdW  Elec       q    Type
REMARK                         _______ _______ _______ _____ _____    ______ ____
ROOT
ATOM      1  O   UNL     1      -2.657  -2.128   0.000  0.00  0.00    +0.000 OA
ENDROOT
BRANCH   1   4
ATOM      2  O   UNL     1      -2.474  -0.976   0.000  0.00  0.00    +0.000 OA
ATOM      3  O   UNL     1      -1.504  -2.311   0.000  0.00  0.00    +0.000 OA
ATOM      4  P   UNL     1      -1.989  -1.643   0.000  0.00  0.00    +0.000 P 
BRANCH   4   5
ATOM      5  O   UNL     1      -1.322  -1.158   0.000  0.00  0.00    +0.000 OA
BRANCH   5   6
ATOM      6  C   UNL     1      -0.568  -1.494   0.000  0.00  0.00    +0.000 C 
BRANCH   6   7
ATOM      7  C   UNL     1       0.099  -1.009   0.000  0.00  0.00    +0.000 C 
ATOM      8  C   UNL     1       0.884  -1.264   0.000  0.00  0.00    +0.000 C 
ATOM      9  C   UNL     1       1.369  -0.597   0.000  0.00  0.00    +0.000 C 
ATOM     10  C   UNL     1       0.884   0.071   0.000  0.00  0.00    +0.000 C 
ATOM     11  O   UNL     1       1.139  -2.049   0.000  0.00  0.00    +0.000 OA
ATOM     12  O   UNL     1       2.194  -0.597   0.000  0.00  0.00    +0.000 OA
ATOM     13  O   UNL     1       0.099  -0.184   0.000  0.00  0.00    +0.000 OA
BRANCH  10  23
ATOM     14  C   UNL     1       3.352   1.110   0.000  0.00  0.00    +0.000 A 
ATOM     15  C   UNL     1       0.654   1.523   0.000  0.00  0.00    +0.000 A 
ATOM     16  C   UNL     1       1.923   1.935   0.000  0.00  0.00    +0.000 A 
ATOM     17  C   UNL     1       2.638   2.348   0.000  0.00  0.00    +0.000 A 
ATOM     18  C   UNL     1       1.923   1.110   0.000  0.00  0.00    +0.000 A 
ATOM     19  N   UNL     1       2.638   3.173   0.000  0.00  0.00    +0.000 NA
ATOM     20  N   UNL     1       3.352   1.935   0.000  0.00  0.00    +0.000 NA
ATOM     21  N   UNL     1       2.638   0.698   0.000  0.00  0.00    +0.000 NA
ATOM     22  N   UNL     1       1.139   2.190   0.000  0.00  0.00    +0.000 NA
ATOM     23  N   UNL     1       1.139   0.856   0.000  0.00  0.00    +0.000 N 
ENDBRANCH  10  23
ENDBRANCH   6   7
ENDBRANCH   5   6
ENDBRANCH   4   5
ENDBRANCH   1   4
BRANCH   1  26
ATOM     24  O   UNL     1      -3.075  -1.039   0.000  0.00  0.00    +0.000 OA
ATOM     25  O   UNL     1      -3.746  -2.546   0.000  0.00  0.00    +0.000 OA
ATOM     26  P   UNL     1      -3.410  -1.793   0.000  0.00  0.00    +0.000 P 
BRANCH  26  27
ATOM     27  O   UNL     1      -4.164  -1.457   0.000  0.00  0.00    +0.000 OA
BRANCH  27  28
ATOM     28  C   UNL     1      -4.832  -1.942   0.000  0.00  0.00    +0.000 C 
BRANCH  28  29
ATOM     29  C   UNL     1      -5.585  -1.607   0.000  0.00  0.00    +0.000 C 
ATOM     30  C   UNL     1      -5.757  -0.799   0.000  0.00  0.00    +0.000 C 
ATOM     31  C   UNL     1      -6.577  -0.713   0.000  0.00  0.00    +0.000 C 
ATOM     32  C   UNL     1      -6.913  -1.467   0.000  0.00  0.00    +0.000 C 
ATOM     33  O   UNL     1      -5.205  -0.186   0.000  0.00  0.00    +0.000 OA
ATOM     34  O   UNL     1      -6.990   0.001   0.000  0.00  0.00    +0.000 OA
ATOM     35  O   UNL     1      -6.300  -2.019   0.000  0.00  0.00    +0.000 OA
BRANCH  32  41
ATOM     36  C   UNL     1      -9.079  -1.197   0.000  0.00  0.00    +0.000 A 
ATOM     37  C   UNL     1      -9.334  -1.982   0.000  0.00  0.00    +0.000 A 
ATOM     38  C   UNL     1      -8.272  -1.025   0.000  0.00  0.00    +0.000 A 
ATOM     39  C   UNL     1      -7.975  -2.423   0.000  0.00  0.00    +0.000 A 
ATOM     40  C   UNL     1      -8.782  -2.595   0.000  0.00  0.00    +0.000 A 
ATOM     41  N   UNL     1      -7.720  -1.639   0.000  0.00  0.00    +0.000 N 
BRANCH  40  42
ATOM     42  C   UNL     1      -9.037  -3.379   0.000  0.00  0.00    +0.000 C 
ATOM     43  N   UNL     1      -9.844  -3.551   0.000  0.00  0.00    +0.000 NA
ATOM     44  S   UNL     1      -8.485  -3.992   0.000  0.00  0.00    +0.000 SA
ENDBRANCH  40  42
ENDBRANCH  32  41
ENDBRANCH  28  29
ENDBRANCH  27  28
ENDBRANCH  26  27
ENDBRANCH   1  26
TORSDOF 11
