REMARK  Name = 
REMARK  4 active torsions:
REMARK  status: ('A' for Active; 'I' for Inactive)
REMARK    1  A    between atoms: C_3  and  C_5
REMARK    2  A    between atoms: C_4  and  C_6
REMARK    3  A    between atoms: C_12  and  O_25
REMARK    4  A    between atoms: C_14  and  O_25
REMARK                            x       y       z     vdW  Elec       q    Type
REMARK                         _______ _______ _______ _____ _____    ______ ____
ROOT
ATOM      1  C   UNL     1      -0.628   1.523   0.000  0.00  0.00    +0.000 A 
ATOM      2  C   UNL     1      -0.143   0.856   0.000  0.00  0.00    +0.000 A 
ATOM      3  C   UNL     1       1.356   0.698   0.000  0.00  0.00    +0.000 C 
ATOM      4  C   UNL     1       2.070   1.935   0.000  0.00  0.00    +0.000 C 
ATOM      5  C   UNL     1       1.356   2.348   0.000  0.00  0.00    +0.000 C 
ATOM      6  C   UNL     1       2.070   1.110   0.000  0.00  0.00    +0.000 C 
ATOM      7  C   UNL     1       0.641   1.935   0.000  0.00  0.00    +0.000 A 
ATOM      8  N   UNL     1      -0.143   2.190   0.000  0.00  0.00    +0.000 NA
ATOM      9  N   UNL     1       0.641   1.110   0.000  0.00  0.00    +0.000 N 
ATOM     10  O   UNL     1       2.784   2.348   0.000  0.00  0.00    +0.000 OA
ATOM     11  O   UNL     1       1.356   3.173   0.000  0.00  0.00    +0.000 OA
ENDROOT
BRANCH   3  12
ATOM     12  C   UNL     1       1.356  -0.127   0.000  0.00  0.00    +0.000 C 
ATOM     13  O   UNL     1       0.641  -0.540   0.000  0.00  0.00    +0.000 OA
ENDBRANCH   3  12
BRANCH   6  14
ATOM     14  O   UNL     1       2.784   0.698   0.000  0.00  0.00    +0.000 OA
BRANCH  14  19
ATOM     15  C   UNL     1       4.213   2.348   0.000  0.00  0.00    +0.000 C 
ATOM     16  C   UNL     1       4.928   1.935   0.000  0.00  0.00    +0.000 C 
ATOM     17  C   UNL     1       4.928   1.110   0.000  0.00  0.00    +0.000 C 
ATOM     18  C   UNL     1       4.213   0.698   0.000  0.00  0.00    +0.000 C 
ATOM     19  C   UNL     1       3.499   1.110   0.000  0.00  0.00    +0.000 C 
ATOM     20  O   UNL     1       5.642   2.348   0.000  0.00  0.00    +0.000 OA
ATOM     21  O   UNL     1       5.642   0.698   0.000  0.00  0.00    +0.000 OA
ATOM     22  O   UNL     1       4.213  -0.127   0.000  0.00  0.00    +0.000 OA
ATOM     23  O   UNL     1       3.499   1.935   0.000  0.00  0.00    +0.000 OA
BRANCH  15  24
ATOM     24  C   UNL     1       4.213   3.173   0.000  0.00  0.00    +0.000 C 
ATOM     25  O   UNL     1       4.928   3.585   0.000  0.00  0.00    +0.000 OA
ENDBRANCH  15  24
ENDBRANCH  14  19
ENDBRANCH   6  14
TORSDOF 4
