REMARK  Name = 
REMARK  5 active torsions:
REMARK  status: ('A' for Active; 'I' for Inactive)
REMARK    1  A    between atoms: C_1  and  C_3
REMARK    2  A    between atoms: C_1  and  C_4
REMARK    3  A    between atoms: C_2  and  C_5
REMARK    4  A    between atoms: C_3  and  C_5
REMARK    5  A    between atoms: C_4  and  C_6
REMARK                            x       y       z     vdW  Elec       q    Type
REMARK                         _______ _______ _______ _____ _____    ______ ____
ROOT
ATOM      1  C   UNL     1       3.904   1.429   0.000  0.00  0.00    +0.000 C 
ENDROOT
BRANCH   1   2
ATOM      2  C   UNL     1       3.189   1.841   0.000  0.00  0.00    +0.000 C 
ATOM      3  O   UNL     1       3.189   2.666   0.000  0.00  0.00    +0.000 OA
BRANCH   2   4
ATOM      4  C   UNL     1       2.475   1.429   0.000  0.00  0.00    +0.000 C 
ATOM      5  O   UNL     1       2.475   0.604   0.000  0.00  0.00    +0.000 OA
BRANCH   4   6
ATOM      6  C   UNL     1       1.760   1.841   0.000  0.00  0.00    +0.000 C 
ATOM      7  O   UNL     1       1.046   1.429   0.000  0.00  0.00    +0.000 OA
ENDBRANCH   4   6
ENDBRANCH   2   4
ENDBRANCH   1   2
BRANCH   1   8
ATOM      8  C   UNL     1       4.618   1.841   0.000  0.00  0.00    +0.000 C 
ATOM      9  O   UNL     1       4.618   2.666   0.000  0.00  0.00    +0.000 OA
BRANCH   8  10
ATOM     10  C   UNL     1       5.333   1.429   0.000  0.00  0.00    +0.000 C 
ATOM     11  O   UNL     1       6.047   1.841   0.000  0.00  0.00    +0.000 OA
ATOM     12  O   UNL     1       5.333   0.604   0.000  0.00  0.00    +0.000 OA
ENDBRANCH   8  10
ENDBRANCH   1   8
TORSDOF 5
