REMARK  Name = 
REMARK  8 active torsions:
REMARK  status: ('A' for Active; 'I' for Inactive)
REMARK    1  A    between atoms: O_3  and  C_13
REMARK    2  A    between atoms: O_5  and  C_19
REMARK    3  A    between atoms: O_5  and  C_26
REMARK    4  A    between atoms: N_11  and  C_13
REMARK    5  A    between atoms: C_16  and  C_21
REMARK    6  A    between atoms: C_17  and  C_19
REMARK    7  A    between atoms: C_20  and  C_23
REMARK    8  A    between atoms: C_23  and  C_24
REMARK                            x       y       z     vdW  Elec       q    Type
REMARK                         _______ _______ _______ _____ _____    ______ ____
ROOT
ATOM      1  S   UNL     1       5.665  -0.534   0.000  0.00  0.00    +0.000 S 
ATOM      2  O   UNL     1       7.794   1.292   0.000  0.00  0.00    +0.000 OA
ATOM      3  N   UNL     1       6.380   0.704   0.000  0.00  0.00    +0.000 N 
ATOM      4  C   UNL     1       7.212  -0.125   0.000  0.00  0.00    +0.000 C 
ATOM      5  C   UNL     1       6.380  -0.121   0.000  0.00  0.00    +0.000 C 
ATOM      6  C   UNL     1       7.212   0.707   0.000  0.00  0.00    +0.000 C 
ATOM      7  C   UNL     1       5.665   1.116   0.000  0.00  0.00    +0.000 C 
ATOM      8  C   UNL     1       4.951   0.704   0.000  0.00  0.00    +0.000 C 
ATOM      9  C   UNL     1       4.951  -0.121   0.000  0.00  0.00    +0.000 C 
ENDROOT
BRANCH   7  12
ATOM     10  O   UNL     1       4.951   2.354   0.000  0.00  0.00    +0.000 OA
ATOM     11  O   UNL     1       6.380   2.354   0.000  0.00  0.00    +0.000 OA
ATOM     12  C   UNL     1       5.665   1.941   0.000  0.00  0.00    +0.000 C 
ENDBRANCH   7  12
BRANCH   4  14
ATOM     13  O   UNL     1       8.034  -1.556   0.000  0.00  0.00    +0.000 OA
ATOM     14  N   UNL     1       8.037  -0.127   0.000  0.00  0.00    +0.000 NA
ATOM     15  C   UNL     1       8.448  -0.842   0.000  0.00  0.00    +0.000 C 
BRANCH  15  16
ATOM     16  C   UNL     1       9.273  -0.844   0.000  0.00  0.00    +0.000 C 
BRANCH  16  18
ATOM     17  S   UNL     1       9.347  -2.312   0.000  0.00  0.00    +0.000 S 
ATOM     18  C   UNL     1       9.684  -1.559   0.000  0.00  0.00    +0.000 A 
ATOM     19  C   UNL     1      10.504  -1.647   0.000  0.00  0.00    +0.000 A 
ATOM     20  C   UNL     1      10.674  -2.454   0.000  0.00  0.00    +0.000 A 
ATOM     21  C   UNL     1       9.959  -2.865   0.000  0.00  0.00    +0.000 A 
ENDBRANCH  16  18
ENDBRANCH  15  16
ENDBRANCH   4  14
BRANCH   4  22
ATOM     22  O   UNL     1       7.210  -0.950   0.000  0.00  0.00    +0.000 OA
ATOM     23  C   UNL     1       6.495  -1.361   0.000  0.00  0.00    +0.000 C 
ENDBRANCH   4  22
BRANCH   8  24
ATOM     24  C   UNL     1       4.236   1.116   0.000  0.00  0.00    +0.000 C 
BRANCH  24  25
ATOM     25  O   UNL     1       3.522   0.704   0.000  0.00  0.00    +0.000 OA
BRANCH  25  28
ATOM     26  O   UNL     1       2.808   1.941   0.000  0.00  0.00    +0.000 OA
ATOM     27  N   UNL     1       2.093   0.704   0.000  0.00  0.00    +0.000 NA
ATOM     28  C   UNL     1       2.808   1.116   0.000  0.00  0.00    +0.000 C 
ENDBRANCH  25  28
ENDBRANCH  24  25
ENDBRANCH   8  24
TORSDOF 8
