REMARK  Name = 
REMARK  9 active torsions:
REMARK  status: ('A' for Active; 'I' for Inactive)
REMARK    1  A    between atoms: C_2  and  C_3
REMARK    2  A    between atoms: C_2  and  O_20
REMARK    3  A    between atoms: C_3  and  N_4
REMARK    4  A    between atoms: N_4  and  C_5
REMARK    5  A    between atoms: C_5  and  C_6
REMARK    6  A    between atoms: C_13  and  C_14
REMARK    7  A    between atoms: C_14  and  O_15
REMARK    8  A    between atoms: O_15  and  P_16
REMARK    9  A    between atoms: O_20  and  P_21
REMARK                            x       y       z     vdW  Elec       q    Type
REMARK                         _______ _______ _______ _____ _____    ______ ____
ROOT
ATOM      1  C   UNL     1      -2.143  -1.238   0.000  0.00  0.00    +0.000 A 
ATOM      2  C   UNL     1      -2.858  -1.650   0.000  0.00  0.00    +0.000 A 
ATOM      3  O   UNL     1      -2.858  -2.475   0.000  0.00  0.00    +0.000 OA
ATOM      4  C   UNL     1      -3.572  -1.238   0.000  0.00  0.00    +0.000 A 
ATOM      5  C   UNL     1      -4.287  -1.650   0.000  0.00  0.00    +0.000 C 
ATOM      6  N   UNL     1      -3.572  -0.412   0.000  0.00  0.00    +0.000 NA
ATOM      7  C   UNL     1      -2.858   0.000   0.000  0.00  0.00    +0.000 A 
ATOM      8  C   UNL     1      -2.143  -0.412   0.000  0.00  0.00    +0.000 A 
ENDROOT
BRANCH   1   9
ATOM      9  C   UNL     1      -1.429  -1.650   0.000  0.00  0.00    +0.000 C 
BRANCH   9  10
ATOM     10  N   UNL     1      -0.715  -1.238   0.000  0.00  0.00    +0.000 NA
BRANCH  10  11
ATOM     11  C   UNL     1       0.000  -1.650   0.000  0.00  0.00    +0.000 C 
BRANCH  11  13
ATOM     12  C   UNL     1       0.715  -0.412   0.000  0.00  0.00    +0.000 C 
ATOM     13  C   UNL     1       0.715  -1.238   0.000  0.00  0.00    +0.000 C 
BRANCH  13  14
ATOM     14  O   UNL     1       1.429  -1.650   0.000  0.00  0.00    +0.000 OA
BRANCH  14  15
ATOM     15  P   UNL     1       2.143  -1.238   0.000  0.00  0.00    +0.000 P 
ATOM     16  O   UNL     1       2.858  -0.825   0.000  0.00  0.00    +0.000 OA
ATOM     17  O   UNL     1       2.556  -1.952   0.000  0.00  0.00    +0.000 OA
ATOM     18  O   UNL     1       1.731  -0.523   0.000  0.00  0.00    +0.000 OA
ENDBRANCH  14  15
ENDBRANCH  13  14
ENDBRANCH  11  13
ENDBRANCH  10  11
ENDBRANCH   9  10
ENDBRANCH   1   9
BRANCH   8  19
ATOM     19  C   UNL     1      -1.429   0.000   0.000  0.00  0.00    +0.000 C 
BRANCH  19  20
ATOM     20  O   UNL     1      -1.429   0.825   0.000  0.00  0.00    +0.000 OA
BRANCH  20  21
ATOM     21  P   UNL     1      -0.715   1.238   0.000  0.00  0.00    +0.000 P 
ATOM     22  O   UNL     1       0.000   1.650   0.000  0.00  0.00    +0.000 OA
ATOM     23  O   UNL     1      -1.127   1.952   0.000  0.00  0.00    +0.000 OA
ATOM     24  O   UNL     1      -0.302   0.523   0.000  0.00  0.00    +0.000 OA
ENDBRANCH  20  21
ENDBRANCH  19  20
ENDBRANCH   8  19
TORSDOF 9
