REMARK  Name = 
REMARK  1 active torsions:
REMARK  status: ('A' for Active; 'I' for Inactive)
REMARK    1  A    between atoms: C_2  and  CA_4
REMARK                            x       y       z     vdW  Elec       q    Type
REMARK                         _______ _______ _______ _____ _____    ______ ____
ROOT
ATOM      1  CA  PRO A   1       0.568   1.114   0.000  0.00  0.00    +0.000 C 
ATOM      2  N   PRO A   1       1.235   0.629   0.000  0.00  0.00    +0.000 NA
ATOM      3  CD  PRO A   1       0.980  -0.155   0.000  0.00  0.00    +0.000 C 
ATOM      4  CG  PRO A   1       0.155  -0.155   0.000  0.00  0.00    +0.000 C 
ATOM      5  CB  PRO A   1      -0.100   0.629   0.000  0.00  0.00    +0.000 C 
ENDROOT
BRANCH   1   7
ATOM      6  O   PRO A   1      -0.147   2.352   0.000  0.00  0.00    +0.000 OA
ATOM      7  C   PRO A   1       0.568   1.939   0.000  0.00  0.00    +0.000 C 
ATOM      8  OXT PRO A   1       1.282   2.352   0.000  0.00  0.00    +0.000 OA
ENDBRANCH   1   7
TORSDOF 1
