REMARK  Name = 
REMARK  6 active torsions:
REMARK  status: ('A' for Active; 'I' for Inactive)
REMARK    1  A    between atoms: C_18  and  C_19
REMARK    2  A    between atoms: C_18  and  N_29
REMARK    3  A    between atoms: C_19  and  O_31
REMARK    4  A    between atoms: C_21  and  C_26
REMARK    5  A    between atoms: C_22  and  C_28
REMARK    6  A    between atoms: C_25  and  O_31
REMARK                            x       y       z     vdW  Elec       q    Type
REMARK                         _______ _______ _______ _____ _____    ______ ____
ROOT
ATOM      1  C   UNL     1       2.143  -0.412   0.000  0.00  0.00    +0.000 C 
ATOM      2  C   UNL     1       4.287   0.825   0.000  0.00  0.00    +0.000 A 
ATOM      3  C   UNL     1       1.429   0.000   0.000  0.00  0.00    +0.000 C 
ATOM      4  C   UNL     1       3.572   1.238   0.000  0.00  0.00    +0.000 A 
ATOM      5  C   UNL     1       3.572  -0.412   0.000  0.00  0.00    +0.000 A 
ATOM      6  C   UNL     1       2.858   0.000   0.000  0.00  0.00    +0.000 A 
ATOM      7  C   UNL     1       4.287   0.000   0.000  0.00  0.00    +0.000 A 
ATOM      8  C   UNL     1       1.429   0.825   0.000  0.00  0.00    +0.000 C 
ATOM      9  C   UNL     1       2.858   0.825   0.000  0.00  0.00    +0.000 A 
ATOM     10  C   UNL     1       2.143   1.238   0.000  0.00  0.00    +0.000 C 
ATOM     11  O   UNL     1       5.001  -0.412   0.000  0.00  0.00    +0.000 OA
ENDROOT
BRANCH   8  17
ATOM     12  C   UNL     1      -0.715   2.062   0.000  0.00  0.00    +0.000 A 
ATOM     13  C   UNL     1      -0.715   1.238   0.000  0.00  0.00    +0.000 A 
ATOM     14  C   UNL     1       0.000   2.475   0.000  0.00  0.00    +0.000 A 
ATOM     15  C   UNL     1       0.000   0.825   0.000  0.00  0.00    +0.000 A 
ATOM     16  C   UNL     1       0.715   2.062   0.000  0.00  0.00    +0.000 A 
ATOM     17  C   UNL     1       0.715   1.238   0.000  0.00  0.00    +0.000 A 
ENDBRANCH   8  17
BRANCH  10  22
ATOM     18  C   UNL     1       2.858   2.475   0.000  0.00  0.00    +0.000 A 
ATOM     19  C   UNL     1       1.429   2.475   0.000  0.00  0.00    +0.000 A 
ATOM     20  C   UNL     1       2.858   3.300   0.000  0.00  0.00    +0.000 A 
ATOM     21  C   UNL     1       1.429   3.300   0.000  0.00  0.00    +0.000 A 
ATOM     22  C   UNL     1       2.143   2.062   0.000  0.00  0.00    +0.000 A 
ATOM     23  C   UNL     1       2.143   3.712   0.000  0.00  0.00    +0.000 A 
BRANCH  23  24
ATOM     24  O   UNL     1       2.143   4.537   0.000  0.00  0.00    +0.000 OA
BRANCH  24  25
ATOM     25  C   UNL     1       1.429   4.950   0.000  0.00  0.00    +0.000 C 
BRANCH  25  26
ATOM     26  C   UNL     1       1.429   5.775   0.000  0.00  0.00    +0.000 C 
BRANCH  26  31
ATOM     27  C   UNL     1      -0.179   7.179   0.000  0.00  0.00    +0.000 C 
ATOM     28  C   UNL     1      -0.591   6.465   0.000  0.00  0.00    +0.000 C 
ATOM     29  C   UNL     1       0.628   7.008   0.000  0.00  0.00    +0.000 C 
ATOM     30  C   UNL     1      -0.039   5.852   0.000  0.00  0.00    +0.000 C 
ATOM     31  N   UNL     1       0.715   6.188   0.000  0.00  0.00    +0.000 NA
ENDBRANCH  26  31
ENDBRANCH  25  26
ENDBRANCH  24  25
ENDBRANCH  23  24
ENDBRANCH  10  22
TORSDOF 6
