REMARK  Name = 
REMARK  8 active torsions:
REMARK  status: ('A' for Active; 'I' for Inactive)
REMARK    1  A    between atoms: N_1  and  C_3
REMARK    2  A    between atoms: C_12  and  C_16
REMARK    3  A    between atoms: C_16  and  O_18
REMARK    4  A    between atoms: O_18  and  P_19
REMARK    5  A    between atoms: P_19  and  O_20
REMARK    6  A    between atoms: O_20  and  P_23
REMARK    7  A    between atoms: P_23  and  O_24
REMARK    8  A    between atoms: O_24  and  P_27
REMARK                            x       y       z     vdW  Elec       q    Type
REMARK                         _______ _______ _______ _____ _____    ______ ____
ROOT
ATOM      1  C   UNL     1       1.810   0.194   0.000  0.00  0.00    +0.000 C 
ATOM      2  O   UNL     1       1.133   0.698   0.000  0.00  0.00    +0.000 OA
ATOM      3  C   UNL     1       1.551  -0.553   0.000  0.00  0.00    +0.000 C 
ATOM      4  C   UNL     1       0.477   0.228   0.000  0.00  0.00    +0.000 C 
ATOM      5  C   UNL     1       0.733  -0.553   0.000  0.00  0.00    +0.000 C 
ATOM      6  O   UNL     1       0.466  -1.334   0.000  0.00  0.00    +0.000 OA
ENDROOT
BRANCH   1   7
ATOM      7  N   UNL     1       2.574   0.442   0.000  0.00  0.00    +0.000 N 
ATOM      8  C   UNL     1       3.206   0.003   0.000  0.00  0.00    +0.000 A 
ATOM      9  C   UNL     1       2.857   1.272   0.000  0.00  0.00    +0.000 A 
ATOM     10  C   UNL     1       3.939   0.542   0.000  0.00  0.00    +0.000 A 
ATOM     11  N   UNL     1       3.286  -0.843   0.000  0.00  0.00    +0.000 NA
ATOM     12  N   UNL     1       3.718   1.268   0.000  0.00  0.00    +0.000 NA
ATOM     13  C   UNL     1       4.685   0.211   0.000  0.00  0.00    +0.000 A 
ATOM     14  C   UNL     1       4.074  -1.192   0.000  0.00  0.00    +0.000 A 
ATOM     15  N   UNL     1       4.779  -0.670   0.000  0.00  0.00    +0.000 NA
ATOM     16  N   UNL     1       5.342   0.701   0.000  0.00  0.00    +0.000 NA
ENDBRANCH   1   7
BRANCH   4  17
ATOM     17  C   UNL     1      -0.307   0.484   0.000  0.00  0.00    +0.000 C 
BRANCH  17  18
ATOM     18  O   UNL     1      -0.926  -0.072   0.000  0.00  0.00    +0.000 OA
BRANCH  18  19
ATOM     19  P   UNL     1      -1.755  -0.072   0.000  0.00  0.00    +0.000 P 
ATOM     20  O   UNL     1      -1.759  -0.898   0.000  0.00  0.00    +0.000 OA
ATOM     21  O   UNL     1      -1.759   0.753   0.000  0.00  0.00    +0.000 OA
BRANCH  19  22
ATOM     22  O   UNL     1      -2.581  -0.072   0.000  0.00  0.00    +0.000 OA
BRANCH  22  23
ATOM     23  P   UNL     1      -3.407  -0.069   0.000  0.00  0.00    +0.000 P 
ATOM     24  O   UNL     1      -3.410  -0.895   0.000  0.00  0.00    +0.000 OA
ATOM     25  O   UNL     1      -3.410   0.757   0.000  0.00  0.00    +0.000 OA
BRANCH  23  26
ATOM     26  O   UNL     1      -4.233  -0.069   0.000  0.00  0.00    +0.000 OA
BRANCH  26  27
ATOM     27  P   UNL     1      -5.062  -0.066   0.000  0.00  0.00    +0.000 P 
ATOM     28  O   UNL     1      -5.065  -0.891   0.000  0.00  0.00    +0.000 OA
ATOM     29  O   UNL     1      -5.888  -0.059   0.000  0.00  0.00    +0.000 OA
ATOM     30  O   UNL     1      -5.065   0.764   0.000  0.00  0.00    +0.000 OA
ENDBRANCH  26  27
ENDBRANCH  23  26
ENDBRANCH  22  23
ENDBRANCH  19  22
ENDBRANCH  18  19
ENDBRANCH  17  18
ENDBRANCH   4  17
TORSDOF 8
