REMARK  Name = 
REMARK  21 active torsions:
REMARK  status: ('A' for Active; 'I' for Inactive)
REMARK    1  A    between atoms: C_2  and  C_3
REMARK    2  A    between atoms: C_2  and  C_17
REMARK    3  A    between atoms: C_3  and  C_4
REMARK    4  A    between atoms: C_4  and  C_5
REMARK    5  A    between atoms: N_7  and  C_8
REMARK    6  A    between atoms: C_8  and  C_9
REMARK    7  A    between atoms: C_8  and  C_10
REMARK    8  A    between atoms: C_9  and  S_40
REMARK    9  A    between atoms: N_12  and  CA_13
REMARK   10  A    between atoms: CA_13  and  C_14
REMARK   11  A    between atoms: C_21  and  C_22
REMARK   12  A    between atoms: C_21  and  C_37
REMARK   13  A    between atoms: C_22  and  C_23
REMARK   14  A    between atoms: C_23  and  C_24
REMARK   15  A    between atoms: N_26  and  C_27
REMARK   16  A    between atoms: C_27  and  C_28
REMARK   17  A    between atoms: C_27  and  C_30
REMARK   18  A    between atoms: C_28  and  S_29
REMARK   19  A    between atoms: S_29  and  S_40
REMARK   20  A    between atoms: N_32  and  CA_33
REMARK   21  A    between atoms: CA_33  and  C_34
REMARK                            x       y       z     vdW  Elec       q    Type
REMARK                         _______ _______ _______ _____ _____    ______ ____
ROOT
ATOM      1  S   UNK A   1       1.429   2.104   0.000  0.00  0.00    +0.000 S 
ENDROOT
BRANCH   1   2
ATOM      2  C   UNK A   1       2.143   2.516   0.000  0.00  0.00    +0.000 C 
BRANCH   2   3
ATOM      3  C   UNK A   1       2.143   3.341   0.000  0.00  0.00    +0.000 C 
BRANCH   3   6
ATOM      4  C   UNK A   1       3.572   3.341   0.000  0.00  0.00    +0.000 C 
ATOM      5  O   UNK A   1       3.572   2.516   0.000  0.00  0.00    +0.000 OA
ATOM      6  N   UNK A   1       2.858   3.754   0.000  0.00  0.00    +0.000 NA
BRANCH   4   7
ATOM      7  C   UNK A   1       4.287   3.754   0.000  0.00  0.00    +0.000 C 
BRANCH   7   8
ATOM      8  C   UNK A   1       5.001   3.341   0.000  0.00  0.00    +0.000 C 
BRANCH   8  10
ATOM      9  N   UNK A   1       5.716   4.579   0.000  0.00  0.00    +0.000 NA
ATOM     10  C   UNK A   1       5.716   3.754   0.000  0.00  0.00    +0.000 C 
BRANCH  10  11
ATOM     11  C   UNK A   1       6.430   3.341   0.000  0.00  0.00    +0.000 C 
ATOM     12  O   UNK A   1       6.430   2.516   0.000  0.00  0.00    +0.000 OA
ATOM     13  O   UNK A   1       7.145   3.754   0.000  0.00  0.00    +0.000 OA
ENDBRANCH  10  11
ENDBRANCH   8  10
ENDBRANCH   7   8
ENDBRANCH   4   7
ENDBRANCH   3   6
BRANCH   3  14
ATOM     14  C   UNK A   1       1.429   3.754   0.000  0.00  0.00    +0.000 C 
ATOM     15  O   UNK A   1       1.429   4.579   0.000  0.00  0.00    +0.000 OA
ATOM     16  N   GLY A   2       0.714   3.341   0.000  0.00  0.00    +0.000 NA
BRANCH  16  17
ATOM     17  CA  GLY A   2      -0.000   3.754   0.000  0.00  0.00    +0.000 C 
BRANCH  17  18
ATOM     18  C   GLY A   2      -0.715   3.341   0.000  0.00  0.00    +0.000 C 
ATOM     19  O   GLY A   2      -0.715   2.516   0.000  0.00  0.00    +0.000 OA
ATOM     20  OXT GLY A   2      -1.429   3.754   0.000  0.00  0.00    +0.000 OA
ENDBRANCH  17  18
ENDBRANCH  16  17
ENDBRANCH   3  14
ENDBRANCH   2   3
ENDBRANCH   1   2
BRANCH   1  21
ATOM     21  S   UNK A   1       1.429   1.279   0.000  0.00  0.00    +0.000 S 
BRANCH  21  22
ATOM     22  C   UNK A   1       0.715   0.866   0.000  0.00  0.00    +0.000 C 
BRANCH  22  23
ATOM     23  C   UNK A   1       0.715   0.041   0.000  0.00  0.00    +0.000 C 
BRANCH  23  26
ATOM     24  C   UNK A   1      -0.715   0.041   0.000  0.00  0.00    +0.000 C 
ATOM     25  O   UNK A   1      -0.715   0.866   0.000  0.00  0.00    +0.000 OA
ATOM     26  N   UNK A   1       0.000  -0.371   0.000  0.00  0.00    +0.000 NA
BRANCH  24  27
ATOM     27  C   UNK A   1      -1.429  -0.371   0.000  0.00  0.00    +0.000 C 
BRANCH  27  28
ATOM     28  C   UNK A   1      -2.143   0.041   0.000  0.00  0.00    +0.000 C 
BRANCH  28  30
ATOM     29  N   UNK A   1      -2.858  -1.196   0.000  0.00  0.00    +0.000 NA
ATOM     30  C   UNK A   1      -2.858  -0.371   0.000  0.00  0.00    +0.000 C 
BRANCH  30  31
ATOM     31  C   UNK A   1      -3.572   0.041   0.000  0.00  0.00    +0.000 C 
ATOM     32  O   UNK A   1      -3.572   0.866   0.000  0.00  0.00    +0.000 OA
ATOM     33  O   UNK A   1      -4.287  -0.371   0.000  0.00  0.00    +0.000 OA
ENDBRANCH  30  31
ENDBRANCH  28  30
ENDBRANCH  27  28
ENDBRANCH  24  27
ENDBRANCH  23  26
BRANCH  23  34
ATOM     34  C   UNK A   1       1.429  -0.371   0.000  0.00  0.00    +0.000 C 
ATOM     35  O   UNK A   1       1.429  -1.196   0.000  0.00  0.00    +0.000 OA
ATOM     36  N   GLY A   2       2.143   0.041   0.000  0.00  0.00    +0.000 NA
BRANCH  36  37
ATOM     37  CA  GLY A   2       2.858  -0.371   0.000  0.00  0.00    +0.000 C 
BRANCH  37  38
ATOM     38  C   GLY A   2       3.572   0.041   0.000  0.00  0.00    +0.000 C 
ATOM     39  O   GLY A   2       3.572   0.866   0.000  0.00  0.00    +0.000 OA
ATOM     40  OXT GLY A   2       4.287  -0.371   0.000  0.00  0.00    +0.000 OA
ENDBRANCH  37  38
ENDBRANCH  36  37
ENDBRANCH  23  34
ENDBRANCH  22  23
ENDBRANCH  21  22
ENDBRANCH   1  21
TORSDOF 21
