REMARK  Name = 
REMARK  2 active torsions:
REMARK  status: ('A' for Active; 'I' for Inactive)
REMARK    1  A    between atoms: C_3  and  C_5
REMARK    2  A    between atoms: C_5  and  C_7
REMARK                            x       y       z     vdW  Elec       q    Type
REMARK                         _______ _______ _______ _____ _____    ______ ____
ROOT
ATOM      1  C   UNL     1       1.952  -1.127   0.000  0.00  0.00    +0.000 C 
ATOM      2  N   UNL     1       1.952  -1.952   0.000  0.00  0.00    +0.000 NA
ENDROOT
BRANCH   1   5
ATOM      3  C   UNL     1      -0.191  -0.715   0.000  0.00  0.00    +0.000 C 
ATOM      4  N   UNL     1       0.523  -1.127   0.000  0.00  0.00    +0.000 NA
ATOM      5  C   UNL     1       1.238  -0.715   0.000  0.00  0.00    +0.000 C 
ATOM      6  O   UNL     1       1.238   0.111   0.000  0.00  0.00    +0.000 OA
ENDBRANCH   1   5
BRANCH   1   7
ATOM      7  C   UNL     1       2.666  -0.715   0.000  0.00  0.00    +0.000 C 
ATOM      8  C   UNL     1       3.381  -0.302   0.000  0.00  0.00    +0.000 C 
ATOM      9  C   UNL     1       3.079  -1.429   0.000  0.00  0.00    +0.000 C 
ATOM     10  C   UNL     1       2.254   0.000   0.000  0.00  0.00    +0.000 C 
ENDBRANCH   1   7
TORSDOF 2
