REMARK  Name = 
REMARK  2 active torsions:
REMARK  status: ('A' for Active; 'I' for Inactive)
REMARK    1  A    between atoms: CA_1  and  C_2
REMARK    2  A    between atoms: CA_1  and  C_3
REMARK                            x       y       z     vdW  Elec       q    Type
REMARK                         _______ _______ _______ _____ _____    ______ ____
ROOT
ATOM      1  CA  UNL     1       1.238   0.715   0.000  0.00  0.00    +0.000 C 
ATOM      2  N   UNL     1       2.062   0.715   0.000  0.00  0.00    +0.000 NA
ENDROOT
BRANCH   1   3
ATOM      3  C   UNL     1       0.825   1.429   0.000  0.00  0.00    +0.000 C 
ATOM      4  F   UNL     1       0.412   2.143   0.000  0.00  0.00    +0.000 F 
ATOM      5  F   UNL     1       0.111   1.016   0.000  0.00  0.00    +0.000 F 
ATOM      6  F   UNL     1       1.540   1.841   0.000  0.00  0.00    +0.000 F 
ENDBRANCH   1   3
BRANCH   1   7
ATOM      7  C   UNL     1       0.825   0.000   0.000  0.00  0.00    +0.000 C 
ATOM      8  O   UNL     1       1.238  -0.715   0.000  0.00  0.00    +0.000 OA
ATOM      9  OXT UNL     1       0.000   0.000   0.000  0.00  0.00    +0.000 OA
ENDBRANCH   1   7
TORSDOF 2
