REMARK  Name = 
REMARK  3 active torsions:
REMARK  status: ('A' for Active; 'I' for Inactive)
REMARK    1  A    between atoms: C_13  and  C_15
REMARK    2  A    between atoms: C_15  and  C_17
REMARK    3  A    between atoms: C_24  and  C_27
REMARK                            x       y       z     vdW  Elec       q    Type
REMARK                         _______ _______ _______ _____ _____    ______ ____
ROOT
ATOM      1  C   UNL     1      -1.429  -1.650   0.000  0.00  0.00    +0.000 C 
ATOM      2  O   UNL     1      -1.429  -2.475   0.000  0.00  0.00    +0.000 OA
ENDROOT
BRANCH   1  15
ATOM      3  C   UNL     1      -4.817   0.632   0.000  0.00  0.00    +0.000 C 
ATOM      4  C   UNL     1      -4.287   0.000   0.000  0.00  0.00    +0.000 C 
ATOM      5  C   UNL     1      -3.756   0.632   0.000  0.00  0.00    +0.000 C 
ATOM      6  C   UNL     1      -5.001  -0.412   0.000  0.00  0.00    +0.000 C 
ATOM      7  C   UNL     1      -5.001  -1.238   0.000  0.00  0.00    +0.000 C 
ATOM      8  C   UNL     1      -4.287  -1.650   0.000  0.00  0.00    +0.000 C 
ATOM      9  C   UNL     1      -4.817  -2.282   0.000  0.00  0.00    +0.000 C 
ATOM     10  C   UNL     1      -3.756  -2.282   0.000  0.00  0.00    +0.000 C 
ATOM     11  C   UNL     1      -3.572  -1.238   0.000  0.00  0.00    +0.000 A 
ATOM     12  C   UNL     1      -3.572  -0.412   0.000  0.00  0.00    +0.000 A 
ATOM     13  C   UNL     1      -2.858   0.000   0.000  0.00  0.00    +0.000 A 
ATOM     14  C   UNL     1      -2.143  -0.412   0.000  0.00  0.00    +0.000 A 
ATOM     15  C   UNL     1      -2.143  -1.238   0.000  0.00  0.00    +0.000 A 
ATOM     16  C   UNL     1      -2.858  -1.650   0.000  0.00  0.00    +0.000 A 
ENDBRANCH   1  15
BRANCH   1  17
ATOM     17  C   UNL     1      -0.715  -1.238   0.000  0.00  0.00    +0.000 A 
ATOM     18  C   UNL     1       0.000  -1.650   0.000  0.00  0.00    +0.000 A 
ATOM     19  C   UNL     1       0.715  -1.238   0.000  0.00  0.00    +0.000 A 
ATOM     20  C   UNL     1       0.715  -0.412   0.000  0.00  0.00    +0.000 A 
ATOM     21  C   UNL     1       0.000   0.000   0.000  0.00  0.00    +0.000 A 
ATOM     22  C   UNL     1      -0.715  -0.412   0.000  0.00  0.00    +0.000 A 
ATOM     23  C   UNL     1       1.429   0.000   0.000  0.00  0.00    +0.000 A 
ATOM     24  C   UNL     1       2.143  -0.412   0.000  0.00  0.00    +0.000 A 
ATOM     25  C   UNL     1       2.143  -1.238   0.000  0.00  0.00    +0.000 A 
ATOM     26  C   UNL     1       1.429  -1.650   0.000  0.00  0.00    +0.000 A 
BRANCH  24  27
ATOM     27  C   UNL     1       2.858   0.000   0.000  0.00  0.00    +0.000 C 
ATOM     28  O   UNL     1       2.858   0.825   0.000  0.00  0.00    +0.000 OA
ATOM     29  O   UNL     1       3.572  -0.412   0.000  0.00  0.00    +0.000 OA
ENDBRANCH  24  27
ENDBRANCH   1  17
TORSDOF 3
