REMARK  Name = 
REMARK  2 active torsions:
REMARK  status: ('A' for Active; 'I' for Inactive)
REMARK    1  A    between atoms: N_2  and  CA_3
REMARK    2  A    between atoms: CA_3  and  C_5
REMARK                            x       y       z     vdW  Elec       q    Type
REMARK                         _______ _______ _______ _____ _____    ______ ____
ROOT
ATOM      1  CA  ALA A   1       1.238   0.715   0.000  0.00  0.00    +0.000 C 
ATOM      2  CB  ALA A   1       2.062   0.715   0.000  0.00  0.00    +0.000 C 
ENDROOT
BRANCH   1   3
ATOM      3  C   ALA A   1       0.825   0.000   0.000  0.00  0.00    +0.000 C 
ATOM      4  O   ALA A   1       1.238  -0.715   0.000  0.00  0.00    +0.000 OA
ATOM      5  OXT ALA A   1       0.000   0.000   0.000  0.00  0.00    +0.000 OA
ENDBRANCH   1   3
BRANCH   1   7
ATOM      6  C   ACE A   0       1.238   2.143   0.000  0.00  0.00    +0.000 C 
ATOM      7  N   ALA A   1       0.825   1.429   0.000  0.00  0.00    +0.000 NA
ENDBRANCH   1   7
TORSDOF 2
