REMARK  Name = 
REMARK  6 active torsions:
REMARK  status: ('A' for Active; 'I' for Inactive)
REMARK    1  A    between atoms: N_3  and  C_12
REMARK    2  A    between atoms: N_4  and  C_11
REMARK    3  A    between atoms: C_6  and  C_11
REMARK    4  A    between atoms: C_12  and  C_13
REMARK    5  A    between atoms: C_13  and  C_18
REMARK    6  A    between atoms: C_14  and  C_15
REMARK                            x       y       z     vdW  Elec       q    Type
REMARK                         _______ _______ _______ _____ _____    ______ ____
ROOT
ATOM      1  O   UNL     1       3.021  -0.692   0.000  0.00  0.00    +0.000 OA
ATOM      2  N   UNL     1       4.450  -0.692   0.000  0.00  0.00    +0.000 NA
ATOM      3  C   UNL     1       3.735  -1.104   0.000  0.00  0.00    +0.000 C 
ENDROOT
BRANCH   3   6
ATOM      4  O   UNL     1       5.240  -2.222   0.000  0.00  0.00    +0.000 OA
ATOM      5  N   UNL     1       4.148  -3.199   0.000  0.00  0.00    +0.000 N 
ATOM      6  C   UNL     1       3.735  -1.929   0.000  0.00  0.00    +0.000 A 
ATOM      7  C   UNL     1       4.402  -2.414   0.000  0.00  0.00    +0.000 A 
ATOM      8  C   UNL     1       4.713  -3.846   0.000  0.00  0.00    +0.000 C 
ATOM      9  C   UNL     1       3.068  -2.414   0.000  0.00  0.00    +0.000 A 
ATOM     10  C   UNL     1       3.323  -3.199   0.000  0.00  0.00    +0.000 A 
ATOM     11  C   UNL     1       5.555  -3.674   0.000  0.00  0.00    +0.000 C 
ATOM     12  C   UNL     1       5.820  -2.857   0.000  0.00  0.00    +0.000 C 
ATOM     13  C   UNL     1       2.230  -2.222   0.000  0.00  0.00    +0.000 A 
ATOM     14  C   UNL     1       2.757  -3.846   0.000  0.00  0.00    +0.000 A 
ATOM     15  C   UNL     1       1.650  -2.857   0.000  0.00  0.00    +0.000 A 
ATOM     16  C   UNL     1       1.916  -3.674   0.000  0.00  0.00    +0.000 A 
ENDBRANCH   3   6
BRANCH   2  17
ATOM     17  C   UNL     1       4.450   0.134   0.000  0.00  0.00    +0.000 C 
BRANCH  17  19
ATOM     18  N   UNL     1       6.593   1.371   0.000  0.00  0.00    +0.000 NA
ATOM     19  C   UNL     1       5.164   0.546   0.000  0.00  0.00    +0.000 C 
ATOM     20  C   UNL     1       5.164   1.371   0.000  0.00  0.00    +0.000 C 
ATOM     21  C   UNL     1       5.878   0.134   0.000  0.00  0.00    +0.000 C 
ATOM     22  C   UNL     1       5.878   1.784   0.000  0.00  0.00    +0.000 C 
ATOM     23  C   UNL     1       6.593   0.546   0.000  0.00  0.00    +0.000 C 
BRANCH  18  24
ATOM     24  C   UNL     1       7.307   1.784   0.000  0.00  0.00    +0.000 C 
BRANCH  24  25
ATOM     25  C   UNL     1       7.307   2.608   0.000  0.00  0.00    +0.000 C 
BRANCH  25  26
ATOM     26  C   UNL     1       8.022   3.021   0.000  0.00  0.00    +0.000 C 
ATOM     27  C   UNL     1       8.022   3.846   0.000  0.00  0.00    +0.000 C 
ENDBRANCH  25  26
ENDBRANCH  24  25
ENDBRANCH  18  24
ENDBRANCH  17  19
ENDBRANCH   2  17
TORSDOF 6
