REMARK  Name = 
REMARK  3 active torsions:
REMARK  status: ('A' for Active; 'I' for Inactive)
REMARK    1  A    between atoms: C_22  and  C_29
REMARK    2  A    between atoms: C_24  and  N_31
REMARK    3  A    between atoms: C_25  and  N_32
REMARK                            x       y       z     vdW  Elec       q    Type
REMARK                         _______ _______ _______ _____ _____    ______ ____
ROOT
ATOM      1  C   UNL     1      12.861   3.300   0.000  0.00  0.00    +0.000 A 
ATOM      2  C   UNL     1      12.146   3.712   0.000  0.00  0.00    +0.000 A 
ATOM      3  C   UNL     1      12.861   5.775   0.000  0.00  0.00    +0.000 C 
ATOM      4  C   UNL     1      12.146   6.188   0.000  0.00  0.00    +0.000 C 
ATOM      5  C   UNL     1      13.575   4.537   0.000  0.00  0.00    +0.000 A 
ATOM      6  C   UNL     1      12.861   4.950   0.000  0.00  0.00    +0.000 A 
ATOM      7  C   UNL     1      13.575   3.712   0.000  0.00  0.00    +0.000 A 
ATOM      8  C   UNL     1      12.146   4.537   0.000  0.00  0.00    +0.000 A 
ATOM      9  C   UNL     1      11.431   4.950   0.000  0.00  0.00    +0.000 C 
ATOM     10  N   UNL     1      11.431   5.775   0.000  0.00  0.00    +0.000 N 
ATOM     11  O   UNL     1      14.289   3.300   0.000  0.00  0.00    +0.000 OA
ENDROOT
BRANCH  10  17
ATOM     12  C   UNL     1       9.288   7.013   0.000  0.00  0.00    +0.000 A 
ATOM     13  C   UNL     1       9.288   6.188   0.000  0.00  0.00    +0.000 A 
ATOM     14  C   UNL     1      10.003   7.425   0.000  0.00  0.00    +0.000 A 
ATOM     15  C   UNL     1      10.003   5.775   0.000  0.00  0.00    +0.000 A 
ATOM     16  C   UNL     1      10.717   7.013   0.000  0.00  0.00    +0.000 A 
ATOM     17  C   UNL     1      10.717   6.188   0.000  0.00  0.00    +0.000 A 
ENDBRANCH  10  17
BRANCH   9  22
ATOM     18  C   UNL     1      10.003   4.950   0.000  0.00  0.00    +0.000 A 
ATOM     19  C   UNL     1      10.717   3.712   0.000  0.00  0.00    +0.000 A 
ATOM     20  C   UNL     1       9.288   4.537   0.000  0.00  0.00    +0.000 A 
ATOM     21  C   UNL     1      10.003   3.300   0.000  0.00  0.00    +0.000 A 
ATOM     22  C   UNL     1      10.717   4.537   0.000  0.00  0.00    +0.000 A 
ATOM     23  C   UNL     1       9.288   3.712   0.000  0.00  0.00    +0.000 A 
BRANCH  23  33
ATOM     24  C   UNL     1       5.716   3.300   0.000  0.00  0.00    +0.000 C 
ATOM     25  C   UNL     1       5.716   2.475   0.000  0.00  0.00    +0.000 C 
ATOM     26  C   UNL     1       6.430   3.712   0.000  0.00  0.00    +0.000 C 
ATOM     27  C   UNL     1       6.430   2.062   0.000  0.00  0.00    +0.000 C 
ATOM     28  C   UNL     1       7.859   2.062   0.000  0.00  0.00    +0.000 C 
ATOM     29  C   UNL     1       8.574   2.475   0.000  0.00  0.00    +0.000 C 
ATOM     30  C   UNL     1       7.859   3.712   0.000  0.00  0.00    +0.000 C 
ATOM     31  C   UNL     1       7.145   3.300   0.000  0.00  0.00    +0.000 C 
ATOM     32  N   UNL     1       7.145   2.475   0.000  0.00  0.00    +0.000 NA
ATOM     33  N   UNL     1       8.574   3.300   0.000  0.00  0.00    +0.000 N 
ENDBRANCH  23  33
ENDBRANCH   9  22
TORSDOF 3
