REMARK  Name = 
REMARK  7 active torsions:
REMARK  status: ('A' for Active; 'I' for Inactive)
REMARK    1  A    between atoms: N_3  and  C_9
REMARK    2  A    between atoms: N_4  and  C_10
REMARK    3  A    between atoms: C_9  and  C_10
REMARK    4  A    between atoms: C_10  and  C_11
REMARK    5  A    between atoms: C_12  and  C_13
REMARK    6  A    between atoms: C_13  and  C_17
REMARK    7  A    between atoms: C_13  and  C_18
REMARK                            x       y       z     vdW  Elec       q    Type
REMARK                         _______ _______ _______ _____ _____    ______ ____
ROOT
ATOM      1  O   UNL     1       4.816  -0.825   0.000  0.00  0.00    +0.000 OA
ATOM      2  N   UNL     1       5.531   0.412   0.000  0.00  0.00    +0.000 N 
ATOM      3  C   UNL     1       5.531  -0.412   0.000  0.00  0.00    +0.000 C 
ATOM      4  C   UNL     1       6.245   0.825   0.000  0.00  0.00    +0.000 C 
ENDROOT
BRANCH   2   5
ATOM      5  C   UNL     1       4.816   0.825   0.000  0.00  0.00    +0.000 C 
BRANCH   5   6
ATOM      6  C   UNL     1       4.816   1.650   0.000  0.00  0.00    +0.000 A 
ATOM      7  C   UNL     1       4.102   2.062   0.000  0.00  0.00    +0.000 A 
ATOM      8  C   UNL     1       5.531   2.062   0.000  0.00  0.00    +0.000 A 
ATOM      9  C   UNL     1       4.102   2.888   0.000  0.00  0.00    +0.000 A 
ATOM     10  C   UNL     1       5.531   2.888   0.000  0.00  0.00    +0.000 A 
ATOM     11  C   UNL     1       4.816   3.300   0.000  0.00  0.00    +0.000 A 
ENDBRANCH   5   6
BRANCH   5  12
ATOM     12  C   UNL     1       4.102   0.412   0.000  0.00  0.00    +0.000 C 
BRANCH  12  14
ATOM     13  O   UNL     1       2.159   2.571   0.000  0.00  0.00    +0.000 OA
ATOM     14  N   UNL     1       3.388   0.825   0.000  0.00  0.00    +0.000 NA
ATOM     15  C   UNL     1       3.301   1.645   0.000  0.00  0.00    +0.000 C 
ATOM     16  C   UNL     1       2.634   0.489   0.000  0.00  0.00    +0.000 C 
ATOM     17  C   UNL     1       2.494   1.817   0.000  0.00  0.00    +0.000 C 
ATOM     18  C   UNL     1       2.082   1.103   0.000  0.00  0.00    +0.000 C 
ENDBRANCH  12  14
ENDBRANCH   5  12
ENDBRANCH   2   5
BRANCH   3  19
ATOM     19  C   UNL     1       6.245  -0.825   0.000  0.00  0.00    +0.000 C 
BRANCH  19  20
ATOM     20  C   UNL     1       6.960  -0.412   0.000  0.00  0.00    +0.000 A 
ATOM     21  C   UNL     1       6.960   0.412   0.000  0.00  0.00    +0.000 A 
ATOM     22  C   UNL     1       7.675  -0.825   0.000  0.00  0.00    +0.000 A 
ATOM     23  C   UNL     1       7.675   0.825   0.000  0.00  0.00    +0.000 A 
ATOM     24  C   UNL     1       8.389  -0.412   0.000  0.00  0.00    +0.000 A 
ATOM     25  C   UNL     1       8.389   0.412   0.000  0.00  0.00    +0.000 A 
ENDBRANCH  19  20
BRANCH  19  26
ATOM     26  C   UNL     1       6.245  -1.650   0.000  0.00  0.00    +0.000 A 
ATOM     27  C   UNL     1       6.960  -2.062   0.000  0.00  0.00    +0.000 A 
ATOM     28  C   UNL     1       5.531  -2.062   0.000  0.00  0.00    +0.000 A 
ATOM     29  C   UNL     1       6.960  -2.888   0.000  0.00  0.00    +0.000 A 
ATOM     30  C   UNL     1       5.531  -2.888   0.000  0.00  0.00    +0.000 A 
ATOM     31  C   UNL     1       6.245  -3.300   0.000  0.00  0.00    +0.000 A 
ENDBRANCH  19  26
ENDBRANCH   3  19
TORSDOF 7
