REMARK  Name = 
REMARK  0 active torsions:
REMARK  status: ('A' for Active; 'I' for Inactive)
REMARK                            x       y       z     vdW  Elec       q    Type
REMARK                         _______ _______ _______ _____ _____    ______ ____
ROOT
ATOM      1  C   UNL     1      -1.786   1.333   0.000  0.00  0.00    +0.000 C 
ATOM      2  C   UNL     1      -1.072   0.921   0.000  0.00  0.00    +0.000 C 
ATOM      3  O   UNL     1      -0.357   1.333   0.000  0.00  0.00    +0.000 OA
ATOM      4  C   UNL     1       0.357   0.921   0.000  0.00  0.00    +0.000 C 
ATOM      5  O   UNL     1       1.072   1.333   0.000  0.00  0.00    +0.000 OA
ATOM      6  C   UNL     1       0.357   0.096   0.000  0.00  0.00    +0.000 C 
ATOM      7  O   UNL     1       1.072  -0.317   0.000  0.00  0.00    +0.000 OA
ATOM      8  C   UNL     1      -0.357  -0.317   0.000  0.00  0.00    +0.000 C 
ATOM      9  O   UNL     1      -0.357  -1.142   0.000  0.00  0.00    +0.000 OA
ATOM     10  C   UNL     1      -1.072   0.096   0.000  0.00  0.00    +0.000 C 
ATOM     11  O   UNL     1      -1.786  -0.317   0.000  0.00  0.00    +0.000 OA
ENDROOT
TORSDOF 0
