REMARK  Name = 
REMARK  9 active torsions:
REMARK  status: ('A' for Active; 'I' for Inactive)
REMARK    1  A    between atoms: C_1  and  C_2
REMARK    2  A    between atoms: C_1  and  C_8
REMARK    3  A    between atoms: C_2  and  C_9
REMARK    4  A    between atoms: C_3  and  C_4
REMARK    5  A    between atoms: C_3  and  C_7
REMARK    6  A    between atoms: C_5  and  C_7
REMARK    7  A    between atoms: C_5  and  C_10
REMARK    8  A    between atoms: C_6  and  C_8
REMARK    9  A    between atoms: C_7  and  C_8
REMARK                            x       y       z     vdW  Elec       q    Type
REMARK                         _______ _______ _______ _____ _____    ______ ____
ROOT
ATOM      1  C   UNL     1       1.238  -3.572   0.000  0.00  0.00    +0.000 C 
ENDROOT
BRANCH   1   2
ATOM      2  C   UNL     1       1.650  -2.858   0.000  0.00  0.00    +0.000 C 
BRANCH   2   3
ATOM      3  C   UNL     1       1.238  -2.143   0.000  0.00  0.00    +0.000 C 
ATOM      4  O   UNL     1       0.412  -2.143   0.000  0.00  0.00    +0.000 OA
ATOM      5  O   UNL     1       1.650  -1.429   0.000  0.00  0.00    +0.000 OA
ENDBRANCH   2   3
ENDBRANCH   1   2
BRANCH   1   6
ATOM      6  C   UNL     1       1.650  -4.287   0.000  0.00  0.00    +0.000 C 
BRANCH   6   7
ATOM      7  C   UNL     1       2.475  -4.287   0.000  0.00  0.00    +0.000 C 
ATOM      8  N   UNL     1       2.888  -5.001   0.000  0.00  0.00    +0.000 NA
ENDBRANCH   6   7
ENDBRANCH   1   6
BRANCH   1   9
ATOM      9  C   UNL     1       0.412  -3.572   0.000  0.00  0.00    +0.000 C 
BRANCH   9  10
ATOM     10  C   UNL     1       0.000  -4.287   0.000  0.00  0.00    +0.000 C 
ATOM     11  N   UNL     1       0.412  -5.001   0.000  0.00  0.00    +0.000 NA
ENDBRANCH   9  10
BRANCH   9  12
ATOM     12  C   UNL     1       0.000  -2.858   0.000  0.00  0.00    +0.000 C 
BRANCH  12  13
ATOM     13  C   UNL     1      -0.825  -2.858   0.000  0.00  0.00    +0.000 C 
BRANCH  13  14
ATOM     14  C   UNL     1      -1.238  -2.143   0.000  0.00  0.00    +0.000 C 
ATOM     15  O   UNL     1      -2.062  -2.143   0.000  0.00  0.00    +0.000 OA
ATOM     16  O   UNL     1      -0.825  -1.429   0.000  0.00  0.00    +0.000 OA
ENDBRANCH  13  14
ENDBRANCH  12  13
ENDBRANCH   9  12
ENDBRANCH   1   9
TORSDOF 9
