REMARK  Name = 
REMARK  2 active torsions:
REMARK  status: ('A' for Active; 'I' for Inactive)
REMARK    1  A    between atoms: C_12  and  C_14
REMARK    2  A    between atoms: C_13  and  C_15
REMARK                            x       y       z     vdW  Elec       q    Type
REMARK                         _______ _______ _______ _____ _____    ______ ____
ROOT
ATOM      1  C   UNL     1       1.429   0.825   0.000  0.00  0.00    +0.000 A 
ATOM      2  C   UNL     1       0.715   1.238   0.000  0.00  0.00    +0.000 A 
ATOM      3  C   UNL     1       1.429   0.000   0.000  0.00  0.00    +0.000 A 
ATOM      4  C   UNL     1       0.000   0.825   0.000  0.00  0.00    +0.000 A 
ATOM      5  C   UNL     1       0.715  -0.412   0.000  0.00  0.00    +0.000 A 
ATOM      6  N   UNL     1       0.000   0.000   0.000  0.00  0.00    +0.000 NA
ENDROOT
BRANCH   4  11
ATOM      7  C   UNL     1      -1.429   2.475   0.000  0.00  0.00    +0.000 A 
ATOM      8  C   UNL     1      -2.143   2.062   0.000  0.00  0.00    +0.000 A 
ATOM      9  C   UNL     1      -0.715   2.062   0.000  0.00  0.00    +0.000 A 
ATOM     10  C   UNL     1      -2.143   1.238   0.000  0.00  0.00    +0.000 A 
ATOM     11  C   UNL     1      -0.715   1.238   0.000  0.00  0.00    +0.000 A 
ATOM     12  N   UNL     1      -1.429   0.825   0.000  0.00  0.00    +0.000 NA
ENDBRANCH   4  11
BRANCH   5  17
ATOM     13  C   UNL     1       0.000  -2.475   0.000  0.00  0.00    +0.000 A 
ATOM     14  C   UNL     1       0.715  -2.888   0.000  0.00  0.00    +0.000 A 
ATOM     15  C   UNL     1       0.000  -1.650   0.000  0.00  0.00    +0.000 A 
ATOM     16  C   UNL     1       1.429  -2.475   0.000  0.00  0.00    +0.000 A 
ATOM     17  C   UNL     1       0.715  -1.238   0.000  0.00  0.00    +0.000 A 
ATOM     18  N   UNL     1       1.429  -1.650   0.000  0.00  0.00    +0.000 NA
ENDBRANCH   5  17
TORSDOF 2
REMARK  Name = 
REMARK  2 active torsions:
REMARK  status: ('A' for Active; 'I' for Inactive)
REMARK    1  A    between atoms: C_12  and  C_14
REMARK    2  A    between atoms: C_13  and  C_15
REMARK                            x       y       z     vdW  Elec       q    Type
REMARK                         _______ _______ _______ _____ _____    ______ ____
ROOT
ATOM      1 CL   UNL     1       3.668   0.000   0.000  0.00  0.00    +0.000 Cl
ENDROOT
TORSDOF 0
REMARK  Name = 
REMARK  2 active torsions:
REMARK  status: ('A' for Active; 'I' for Inactive)
REMARK    1  A    between atoms: C_12  and  C_14
REMARK    2  A    between atoms: C_13  and  C_15
REMARK                            x       y       z     vdW  Elec       q    Type
REMARK                         _______ _______ _______ _____ _____    ______ ____
ROOT
ATOM      1 PT   UNL     1       0.000  -4.537   0.000  0.00  0.00    +0.000 Pt
ENDROOT
TORSDOF 0
