REMARK  Name = 
REMARK  4 active torsions:
REMARK  status: ('A' for Active; 'I' for Inactive)
REMARK    1  A    between atoms: O_2  and  C_20
REMARK    2  A    between atoms: O_3  and  C_21
REMARK    3  A    between atoms: C_6  and  C_12
REMARK    4  A    between atoms: C_12  and  C_15
REMARK                            x       y       z     vdW  Elec       q    Type
REMARK                         _______ _______ _______ _____ _____    ______ ____
ROOT
ATOM      1  O   UNL     1       5.286   2.307   0.000  0.00  0.00    +0.000 OA
ATOM      2  N   UNL     1       5.276  -0.225   0.000  0.00  0.00    +0.000 NA
ATOM      3  C   UNL     1       4.562   0.188   0.000  0.00  0.00    +0.000 C 
ATOM      4  C   UNL     1       6.034   1.052   0.000  0.00  0.00    +0.000 C 
ATOM      5  C   UNL     1       6.027   0.193   0.000  0.00  0.00    +0.000 C 
ATOM      6  C   UNL     1       4.549   1.047   0.000  0.00  0.00    +0.000 C 
ATOM      7  C   UNL     1       5.276  -1.050   0.000  0.00  0.00    +0.000 C 
ATOM      8  C   UNL     1       3.848  -0.225   0.000  0.00  0.00    +0.000 A 
ATOM      9  C   UNL     1       5.290   1.482   0.000  0.00  0.00    +0.000 C 
ATOM     10  C   UNL     1       4.562  -1.462   0.000  0.00  0.00    +0.000 C 
ATOM     11  C   UNL     1       3.848  -1.050   0.000  0.00  0.00    +0.000 A 
ATOM     12  C   UNL     1       3.110   0.216   0.000  0.00  0.00    +0.000 A 
ATOM     13  C   UNL     1       3.110  -1.491   0.000  0.00  0.00    +0.000 A 
ATOM     14  C   UNL     1       2.363  -0.208   0.000  0.00  0.00    +0.000 A 
ATOM     15  C   UNL     1       2.363  -1.067   0.000  0.00  0.00    +0.000 A 
ENDROOT
BRANCH  14  16
ATOM     16  O   UNL     1       1.650   0.208   0.000  0.00  0.00    +0.000 OA
ATOM     17  C   UNL     1       1.653   1.032   0.000  0.00  0.00    +0.000 C 
ENDBRANCH  14  16
BRANCH  15  18
ATOM     18  O   UNL     1       1.650  -1.482   0.000  0.00  0.00    +0.000 OA
ATOM     19  C   UNL     1       1.653  -2.307   0.000  0.00  0.00    +0.000 C 
ENDBRANCH  15  18
BRANCH   4  20
ATOM     20  C   UNL     1       6.750   1.462   0.000  0.00  0.00    +0.000 C 
BRANCH  20  21
ATOM     21  C   UNL     1       7.463   1.047   0.000  0.00  0.00    +0.000 C 
ATOM     22  C   UNL     1       7.459   0.222   0.000  0.00  0.00    +0.000 C 
ATOM     23  C   UNL     1       8.178   1.457   0.000  0.00  0.00    +0.000 C 
ENDBRANCH  20  21
ENDBRANCH   4  20
TORSDOF 4
