REMARK  Name = 
REMARK  14 active torsions:
REMARK  status: ('A' for Active; 'I' for Inactive)
REMARK    1  A    between atoms: C_1  and  C_4
REMARK    2  A    between atoms: C_4  and  C_7
REMARK    3  A    between atoms: C_7  and  C_10
REMARK    4  A    between atoms: C_9  and  N_11
REMARK    5  A    between atoms: C_10  and  C_12
REMARK    6  A    between atoms: N_11  and  S_13
REMARK    7  A    between atoms: C_12  and  N_14
REMARK    8  A    between atoms: N_14  and  C_18
REMARK    9  A    between atoms: N_14  and  C_20
REMARK   10  A    between atoms: C_20  and  C_21
REMARK   11  A    between atoms: C_21  and  C_22
REMARK   12  A    between atoms: C_22  and  C_23
REMARK   13  A    between atoms: C_23  and  C_24
REMARK   14  A    between atoms: C_24  and  C_25
REMARK                            x       y       z     vdW  Elec       q    Type
REMARK                         _______ _______ _______ _____ _____    ______ ____
ROOT
ATOM      1  C   UNL     1      17.526 -10.750   0.000  0.00  0.00    +0.000 C 
ATOM      2  O   UNL     1      17.526  -9.914   0.000  0.00  0.00    +0.000 OA
ENDROOT
BRANCH   1   3
ATOM      3  C   UNL     1      18.279 -11.168   0.000  0.00  0.00    +0.000 A 
ATOM      4  C   UNL     1      18.279 -12.005   0.000  0.00  0.00    +0.000 A 
ATOM      5  C   UNL     1      18.990 -10.750   0.000  0.00  0.00    +0.000 A 
ATOM      6  C   UNL     1      18.990 -12.465   0.000  0.00  0.00    +0.000 A 
ATOM      7  C   UNL     1      19.743 -11.168   0.000  0.00  0.00    +0.000 A 
ATOM      8  C   UNL     1      19.743 -12.005   0.000  0.00  0.00    +0.000 A 
BRANCH   8   9
ATOM      9  N   UNL     1      20.454 -12.423   0.000  0.00  0.00    +0.000 NA
BRANCH   9  10
ATOM     10  S   UNL     1      21.207 -12.005   0.000  0.00  0.00    +0.000 S 
ATOM     11  C   UNL     1      21.919 -12.423   0.000  0.00  0.00    +0.000 C 
ATOM     12  O   UNL     1      20.454 -11.587   0.000  0.00  0.00    +0.000 OA
ATOM     13  O   UNL     1      21.835 -11.587   0.000  0.00  0.00    +0.000 OA
ENDBRANCH   9  10
ENDBRANCH   8   9
ENDBRANCH   1   3
BRANCH   1  14
ATOM     14  C   UNL     1      16.815 -11.168   0.000  0.00  0.00    +0.000 C 
BRANCH  14  15
ATOM     15  C   UNL     1      16.062 -10.750   0.000  0.00  0.00    +0.000 C 
BRANCH  15  16
ATOM     16  C   UNL     1      15.351 -11.168   0.000  0.00  0.00    +0.000 C 
BRANCH  16  17
ATOM     17  N   UNL     1      14.640 -10.750   0.000  0.00  0.00    +0.000 NA
BRANCH  17  18
ATOM     18  C   UNL     1      14.640  -9.914   0.000  0.00  0.00    +0.000 C 
ATOM     19  C   UNL     1      15.351  -9.495   0.000  0.00  0.00    +0.000 C 
ENDBRANCH  17  18
BRANCH  17  20
ATOM     20  C   UNL     1      13.887 -11.168   0.000  0.00  0.00    +0.000 C 
BRANCH  20  21
ATOM     21  C   UNL     1      13.176 -10.750   0.000  0.00  0.00    +0.000 C 
BRANCH  21  22
ATOM     22  C   UNL     1      12.465 -11.168   0.000  0.00  0.00    +0.000 C 
BRANCH  22  23
ATOM     23  C   UNL     1      11.754 -10.750   0.000  0.00  0.00    +0.000 C 
BRANCH  23  24
ATOM     24  C   UNL     1      11.001 -11.168   0.000  0.00  0.00    +0.000 C 
BRANCH  24  25
ATOM     25  C   UNL     1      10.290 -10.750   0.000  0.00  0.00    +0.000 C 
ATOM     26  C   UNL     1       9.579 -11.168   0.000  0.00  0.00    +0.000 C 
ENDBRANCH  24  25
ENDBRANCH  23  24
ENDBRANCH  22  23
ENDBRANCH  21  22
ENDBRANCH  20  21
ENDBRANCH  17  20
ENDBRANCH  16  17
ENDBRANCH  15  16
ENDBRANCH  14  15
ENDBRANCH   1  14
TORSDOF 14
