REMARK  Name = 
REMARK  5 active torsions:
REMARK  status: ('A' for Active; 'I' for Inactive)
REMARK    1  A    between atoms: C_2  and  N_4
REMARK    2  A    between atoms: N_4  and  C_15
REMARK    3  A    between atoms: C_5  and  C_7
REMARK    4  A    between atoms: C_16  and  C_26
REMARK    5  A    between atoms: C_18  and  C_20
REMARK                            x       y       z     vdW  Elec       q    Type
REMARK                         _______ _______ _______ _____ _____    ______ ____
ROOT
ATOM      1  N   UNL     1       0.715  -0.412   0.000  0.00  0.00    +0.000 N 
ATOM      2  C   UNL     1       0.000   0.000   0.000  0.00  0.00    +0.000 C 
ATOM      3  O   UNL     1      -0.715  -0.412   0.000  0.00  0.00    +0.000 OA
ENDROOT
BRANCH   2   4
ATOM      4  C   UNL     1       0.000   0.825   0.000  0.00  0.00    +0.000 A 
ATOM      5  C   UNL     1      -0.715   1.238   0.000  0.00  0.00    +0.000 A 
ATOM      6 CL   UNL     1      -1.429   0.825   0.000  0.00  0.00    +0.000 Cl
ATOM      7  C   UNL     1      -0.715   2.062   0.000  0.00  0.00    +0.000 A 
ATOM      8  C   UNL     1       0.000   2.475   0.000  0.00  0.00    +0.000 A 
ATOM      9 CL   UNL     1       0.000   3.300   0.000  0.00  0.00    +0.000 Cl
ATOM     10  C   UNL     1       0.715   2.062   0.000  0.00  0.00    +0.000 A 
ATOM     11  C   UNL     1       0.715   1.238   0.000  0.00  0.00    +0.000 A 
ENDBRANCH   2   4
BRANCH   1  12
ATOM     12  C   UNL     1       0.715  -1.238   0.000  0.00  0.00    +0.000 A 
ATOM     13  C   UNL     1       1.382  -1.722   0.000  0.00  0.00    +0.000 A 
ATOM     14  S   UNL     1       1.127  -2.507   0.000  0.00  0.00    +0.000 S 
ATOM     15  C   UNL     1       0.302  -2.507   0.000  0.00  0.00    +0.000 A 
ATOM     16  C   UNL     1       0.047  -1.722   0.000  0.00  0.00    +0.000 A 
BRANCH  15  17
ATOM     17  C   UNL     1      -0.183  -3.175   0.000  0.00  0.00    +0.000 A 
ATOM     18  C   UNL     1       0.153  -3.928   0.000  0.00  0.00    +0.000 A 
ATOM     19  C   UNL     1      -0.332  -4.596   0.000  0.00  0.00    +0.000 A 
ATOM     20  C   UNL     1      -1.153  -4.509   0.000  0.00  0.00    +0.000 A 
ATOM     21  C   UNL     1      -1.488  -3.756   0.000  0.00  0.00    +0.000 A 
ATOM     22  C   UNL     1      -1.003  -3.088   0.000  0.00  0.00    +0.000 A 
ENDBRANCH  15  17
BRANCH  13  23
ATOM     23  C   UNL     1       2.167  -1.468   0.000  0.00  0.00    +0.000 C 
ATOM     24  O   UNL     1       2.780  -2.019   0.000  0.00  0.00    +0.000 OA
ATOM     25  O   UNL     1       2.338  -0.660   0.000  0.00  0.00    +0.000 OA
ENDBRANCH  13  23
ENDBRANCH   1  12
BRANCH   1  27
ATOM     26  C   UNL     1       1.429   0.825   0.000  0.00  0.00    +0.000 C 
ATOM     27  C   UNL     1       1.429   0.000   0.000  0.00  0.00    +0.000 C 
ATOM     28  C   UNL     1       2.143  -0.412   0.000  0.00  0.00    +0.000 C 
ENDBRANCH   1  27
TORSDOF 5
