REMARK  Name = 
REMARK  11 active torsions:
REMARK  status: ('A' for Active; 'I' for Inactive)
REMARK    1  A    between atoms: C_1  and  C_2
REMARK    2  A    between atoms: N_7  and  C_12
REMARK    3  A    between atoms: C_12  and  C_15
REMARK    4  A    between atoms: C_13  and  N_16
REMARK    5  A    between atoms: N_16  and  C_19
REMARK    6  A    between atoms: C_19  and  C_20
REMARK    7  A    between atoms: C_19  and  C_21
REMARK    8  A    between atoms: C_20  and  C_22
REMARK    9  A    between atoms: C_21  and  O_23
REMARK   10  A    between atoms: C_22  and  C_25
REMARK   11  A    between atoms: O_23  and  C_26
REMARK                            x       y       z     vdW  Elec       q    Type
REMARK                         _______ _______ _______ _____ _____    ______ ____
ROOT
ATOM      1  C   UNL     1       1.883   0.860   0.000  0.00  0.00    +0.000 C 
ATOM      2  C   UNL     1       2.035  -0.033   0.000  0.00  0.00    +0.000 C 
ATOM      3  S   UNL     1       1.142   1.254   0.000  0.00  0.00    +0.000 S 
ATOM      4  N   UNL     1       1.486  -0.599   0.000  0.00  0.00    +0.000 N 
ATOM      5  C   UNL     1       0.398   0.860   0.000  0.00  0.00    +0.000 C 
ATOM      6  C   UNL     1       0.678  -0.599   0.000  0.00  0.00    +0.000 C 
ATOM      7  C   UNL     1       0.183   0.111   0.000  0.00  0.00    +0.000 C 
ATOM      8  O   UNL     1       0.253  -1.288   0.000  0.00  0.00    +0.000 OA
ENDROOT
BRANCH   1   9
ATOM      9  C   UNL     1       2.702   1.367   0.000  0.00  0.00    +0.000 A 
ATOM     10  C   UNL     1       2.975   2.107   0.000  0.00  0.00    +0.000 A 
ATOM     11  S   UNL     1       3.380   0.797   0.000  0.00  0.00    +0.000 S 
ATOM     12  C   UNL     1       3.755   2.107   0.000  0.00  0.00    +0.000 A 
ATOM     13  C   UNL     1       4.039   1.316   0.000  0.00  0.00    +0.000 A 
ENDBRANCH   1   9
BRANCH   7  14
ATOM     14  N   UNL     1      -0.503  -0.287   0.000  0.00  0.00    +0.000 NA
BRANCH  14  15
ATOM     15  C   UNL     1      -1.212   0.119   0.000  0.00  0.00    +0.000 C 
BRANCH  15  16
ATOM     16  C   UNL     1      -1.212   0.973   0.000  0.00  0.00    +0.000 C 
ATOM     17  O   UNL     1      -0.503   1.367   0.000  0.00  0.00    +0.000 OA
BRANCH  16  18
ATOM     18  O   UNL     1      -1.914   1.367   0.000  0.00  0.00    +0.000 OA
BRANCH  18  19
ATOM     19  C   UNL     1      -2.593   0.973   0.000  0.00  0.00    +0.000 C 
ATOM     20  C   UNL     1      -3.302   1.367   0.000  0.00  0.00    +0.000 C 
ENDBRANCH  18  19
ENDBRANCH  16  18
ENDBRANCH  15  16
BRANCH  15  21
ATOM     21  C   UNL     1      -1.942  -0.287   0.000  0.00  0.00    +0.000 C 
BRANCH  21  22
ATOM     22  C   UNL     1      -2.663   0.111   0.000  0.00  0.00    +0.000 C 
BRANCH  22  23
ATOM     23  C   UNL     1      -3.373  -0.287   0.000  0.00  0.00    +0.000 A 
ATOM     24  C   UNL     1      -3.373  -1.136   0.000  0.00  0.00    +0.000 A 
ATOM     25  C   UNL     1      -4.102   0.100   0.000  0.00  0.00    +0.000 A 
ATOM     26  C   UNL     1      -4.102  -1.562   0.000  0.00  0.00    +0.000 A 
ATOM     27  C   UNL     1      -4.800  -0.287   0.000  0.00  0.00    +0.000 A 
ATOM     28  C   UNL     1      -4.800  -1.136   0.000  0.00  0.00    +0.000 A 
ENDBRANCH  22  23
ENDBRANCH  21  22
ENDBRANCH  15  21
ENDBRANCH  14  15
ENDBRANCH   7  14
BRANCH   4  29
ATOM     29  C   UNL     1       1.833  -1.398   0.000  0.00  0.00    +0.000 C 
BRANCH  29  30
ATOM     30  C   UNL     1       2.683  -1.398   0.000  0.00  0.00    +0.000 C 
ATOM     31  O   UNL     1       3.057  -0.669   0.000  0.00  0.00    +0.000 OA
ATOM     32  O   UNL     1       3.037  -2.107   0.000  0.00  0.00    +0.000 OA
ENDBRANCH  29  30
ENDBRANCH   4  29
TORSDOF 11
