REMARK  Name = 
REMARK  0 active torsions:
REMARK  status: ('A' for Active; 'I' for Inactive)
REMARK                            x       y       z     vdW  Elec       q    Type
REMARK                         _______ _______ _______ _____ _____    ______ ____
ROOT
ATOM      1  O   UNL     1      27.439 -11.438   0.000  0.00  0.00    +0.000 OA
ATOM      2  O   UNL     1      27.439 -13.088   0.000  0.00  0.00    +0.000 OA
ATOM      3  N   UNL     1      30.363 -11.599   0.000  0.00  0.00    +0.000 NA
ATOM      4  C   UNL     1      28.153 -11.851   0.000  0.00  0.00    +0.000 A 
ATOM      5  C   UNL     1      28.153 -12.676   0.000  0.00  0.00    +0.000 A 
ATOM      6  C   UNL     1      29.582 -11.851   0.000  0.00  0.00    +0.000 A 
ATOM      7  C   UNL     1      29.582 -12.676   0.000  0.00  0.00    +0.000 A 
ATOM      8  C   UNL     1      30.844 -12.263   0.000  0.00  0.00    +0.000 A 
ATOM      9  C   UNL     1      28.868 -11.438   0.000  0.00  0.00    +0.000 A 
ATOM     10  C   UNL     1      28.868 -13.088   0.000  0.00  0.00    +0.000 A 
ATOM     11  C   UNL     1      30.363 -12.927   0.000  0.00  0.00    +0.000 A 
ENDROOT
TORSDOF 0
