REMARK  Name = 
REMARK  3 active torsions:
REMARK  status: ('A' for Active; 'I' for Inactive)
REMARK    1  A    between atoms: C_3  and  C_4
REMARK    2  A    between atoms: C_3  and  P_17
REMARK    3  A    between atoms: C_7  and  C_8
REMARK                            x       y       z     vdW  Elec       q    Type
REMARK                         _______ _______ _______ _____ _____    ______ ____
ROOT
ATOM      1  C   UNL     1       1.429   0.825   0.000  0.00  0.00    +0.000 C 
ATOM      2  C   UNL     1       0.715  -0.412   0.000  0.00  0.00    +0.000 C 
ATOM      3  C   UNL     1       0.715   1.238   0.000  0.00  0.00    +0.000 C 
ATOM      4  C   UNL     1       0.000   0.000   0.000  0.00  0.00    +0.000 C 
ATOM      5  C   UNL     1       0.000   0.825   0.000  0.00  0.00    +0.000 C 
ATOM      6  C   UNL     1       1.429   0.000   0.000  0.00  0.00    +0.000 C 
ATOM      7  O   UNL     1      -0.715  -0.412   0.000  0.00  0.00    +0.000 OA
ATOM      8  O   UNL     1      -0.715   1.238   0.000  0.00  0.00    +0.000 OA
ATOM      9  O   UNL     1       1.866  -0.700   0.000  0.00  0.00    +0.000 OA
ENDROOT
BRANCH   6  10
ATOM     10  C   UNL     1       2.253  -0.029   0.000  0.00  0.00    +0.000 C 
ATOM     11  O   UNL     1       2.691   0.671   0.000  0.00  0.00    +0.000 OA
ATOM     12  O   UNL     1       2.641  -0.757   0.000  0.00  0.00    +0.000 OA
ENDBRANCH   6  10
BRANCH   3  13
ATOM     13  C   UNL     1       0.715   2.062   0.000  0.00  0.00    +0.000 C 
BRANCH  13  17
ATOM     14  O   UNL     1      -0.715   2.888   0.000  0.00  0.00    +0.000 OA
ATOM     15  O   UNL     1       0.412   3.189   0.000  0.00  0.00    +0.000 OA
ATOM     16  O   UNL     1      -0.412   1.760   0.000  0.00  0.00    +0.000 OA
ATOM     17  P   UNL     1       0.000   2.475   0.000  0.00  0.00    +0.000 P 
ENDBRANCH  13  17
ENDBRANCH   3  13
TORSDOF 3
