REMARK  Name = 
REMARK  8 active torsions:
REMARK  status: ('A' for Active; 'I' for Inactive)
REMARK    1  A    between atoms: C_7  and  C_9
REMARK    2  A    between atoms: C_15  and  C_18
REMARK    3  A    between atoms: N_23  and  C_24
REMARK    4  A    between atoms: C_43  and  C_44
REMARK    5  A    between atoms: C_54  and  C_56
REMARK    6  A    between atoms: N_58  and  C_59
REMARK    7  A    between atoms: C_78  and  C_79
REMARK    8  A    between atoms: C_89  and  C_91
REMARK                            x       y       z     vdW  Elec       q    Type
REMARK                         _______ _______ _______ _____ _____    ______ ____
ROOT
ATOM      1  C   UNL     1       0.715   0.412   0.000  0.00  0.00    +0.000 A 
ATOM      2  C   UNL     1       0.715  -0.412   0.000  0.00  0.00    +0.000 A 
ATOM      3  O   UNL     1       0.000  -0.825   0.000  0.00  0.00    +0.000 OA
ATOM      4  C   UNL     1      -0.715   0.412   0.000  0.00  0.00    +0.000 A 
ATOM      5  C   UNL     1      -0.715  -0.412   0.000  0.00  0.00    +0.000 A 
ATOM      6  N   UNL     1       0.000   0.825   0.000  0.00  0.00    +0.000 NA
ATOM      7  C   UNL     1       1.429   0.825   0.000  0.00  0.00    +0.000 A 
ATOM      8  C   UNL     1       1.429  -0.825   0.000  0.00  0.00    +0.000 A 
ATOM      9  C   UNL     1       2.143   0.412   0.000  0.00  0.00    +0.000 A 
ATOM     10  C   UNL     1       2.143  -0.412   0.000  0.00  0.00    +0.000 A 
ATOM     11  C   UNL     1       1.429  -1.650   0.000  0.00  0.00    +0.000 C 
ATOM     12  N   UNL     1       2.858   0.825   0.000  0.00  0.00    +0.000 NA
ATOM     13  C   UNL     1      -1.429   0.825   0.000  0.00  0.00    +0.000 A 
ATOM     14  C   UNL     1      -1.429  -0.825   0.000  0.00  0.00    +0.000 A 
ATOM     15  O   UNL     1       2.858  -0.825   0.000  0.00  0.00    +0.000 OA
ATOM     16  C   UNL     1      -2.143   0.412   0.000  0.00  0.00    +0.000 A 
ATOM     17  C   UNL     1      -2.143  -0.412   0.000  0.00  0.00    +0.000 A 
ATOM     18  C   UNL     1      -1.429  -1.650   0.000  0.00  0.00    +0.000 C 
ENDROOT
BRANCH  13  19
ATOM     19  C   UNL     1      -1.429   1.650   0.000  0.00  0.00    +0.000 C 
ATOM     20  O   UNL     1      -0.715   2.062   0.000  0.00  0.00    +0.000 OA
ATOM     21  N   UNL     1      -2.143   2.062   0.000  0.00  0.00    +0.000 NA
BRANCH  21  22
ATOM     22  C   UNL     1      -2.143   2.888   0.000  0.00  0.00    +0.000 C 
ATOM     23  C   UNL     1      -1.429   3.300   0.000  0.00  0.00    +0.000 C 
ATOM     24  C   UNL     1      -2.858   3.300   0.000  0.00  0.00    +0.000 C 
ATOM     25  O   UNL     1      -3.572   2.888   0.000  0.00  0.00    +0.000 OA
ATOM     26  C   UNL     1      -4.287   3.300   0.000  0.00  0.00    +0.000 C 
ATOM     27  N   UNL     1      -5.001   7.013   0.000  0.00  0.00    +0.000 N 
ATOM     28  C   UNL     1      -5.173   7.819   0.000  0.00  0.00    +0.000 C 
ATOM     29  C   UNL     1      -5.716   6.600   0.000  0.00  0.00    +0.000 C 
ATOM     30  C   UNL     1      -5.993   7.906   0.000  0.00  0.00    +0.000 C 
ATOM     31  C   UNL     1      -6.329   7.152   0.000  0.00  0.00    +0.000 C 
ATOM     32  C   UNL     1      -5.716   5.775   0.000  0.00  0.00    +0.000 C 
ATOM     33  N   UNL     1      -6.430   5.362   0.000  0.00  0.00    +0.000 N 
ATOM     34  C   UNL     1      -6.430   4.537   0.000  0.00  0.00    +0.000 C 
ATOM     35  C   UNL     1      -7.145   5.775   0.000  0.00  0.00    +0.000 C 
ATOM     36  C   UNL     1      -5.716   4.125   0.000  0.00  0.00    +0.000 C 
ATOM     37  O   UNL     1      -5.001   4.537   0.000  0.00  0.00    +0.000 OA
ATOM     38  N   UNL     1      -5.716   3.300   0.000  0.00  0.00    +0.000 N 
ATOM     39  C   UNL     1      -6.430   2.888   0.000  0.00  0.00    +0.000 C 
ATOM     40  C   UNL     1      -5.001   2.888   0.000  0.00  0.00    +0.000 C 
ATOM     41  O   UNL     1      -5.001   5.362   0.000  0.00  0.00    +0.000 OA
ATOM     42  O   UNL     1      -4.287   4.125   0.000  0.00  0.00    +0.000 OA
ATOM     43  C   UNL     1      -2.858   4.125   0.000  0.00  0.00    +0.000 C 
ATOM     44  O   UNL     1      -4.287   5.775   0.000  0.00  0.00    +0.000 OA
ATOM     45  O   UNL     1      -0.715   2.888   0.000  0.00  0.00    +0.000 OA
ATOM     46  N   UNL     1      -1.429   6.600   0.000  0.00  0.00    +0.000 NA
ATOM     47  C   UNL     1      -4.287   6.600   0.000  0.00  0.00    +0.000 C 
ATOM     48  C   UNL     1      -2.858   7.425   0.000  0.00  0.00    +0.000 C 
BRANCH  40  49
ATOM     49  C   UNL     1      -5.001   2.062   0.000  0.00  0.00    +0.000 C 
ATOM     50  C   UNL     1      -5.716   1.650   0.000  0.00  0.00    +0.000 C 
ATOM     51  C   UNL     1      -4.287   1.650   0.000  0.00  0.00    +0.000 C 
ENDBRANCH  40  49
BRANCH  48  53
ATOM     52  C   UNL     1      -3.572   8.662   0.000  0.00  0.00    +0.000 C 
ATOM     53  C   UNL     1      -2.858   8.250   0.000  0.00  0.00    +0.000 C 
ATOM     54  C   UNL     1      -2.143   8.662   0.000  0.00  0.00    +0.000 C 
ENDBRANCH  48  53
ENDBRANCH  21  22
ENDBRANCH  13  19
BRANCH   7  55
ATOM     55  C   UNL     1       1.429   1.650   0.000  0.00  0.00    +0.000 C 
ATOM     56  O   UNL     1       0.715   2.062   0.000  0.00  0.00    +0.000 OA
ATOM     57  N   UNL     1       2.143   2.062   0.000  0.00  0.00    +0.000 NA
BRANCH  57  58
ATOM     58  C   UNL     1       2.143   2.888   0.000  0.00  0.00    +0.000 C 
ATOM     59  C   UNL     1       1.429   3.300   0.000  0.00  0.00    +0.000 C 
ATOM     60  C   UNL     1       2.858   3.300   0.000  0.00  0.00    +0.000 C 
ATOM     61  O   UNL     1       3.572   2.888   0.000  0.00  0.00    +0.000 OA
ATOM     62  C   UNL     1       4.287   3.300   0.000  0.00  0.00    +0.000 C 
ATOM     63  N   UNL     1       5.001   7.013   0.000  0.00  0.00    +0.000 N 
ATOM     64  C   UNL     1       5.173   7.819   0.000  0.00  0.00    +0.000 C 
ATOM     65  C   UNL     1       5.716   6.600   0.000  0.00  0.00    +0.000 C 
ATOM     66  C   UNL     1       5.993   7.906   0.000  0.00  0.00    +0.000 C 
ATOM     67  C   UNL     1       6.329   7.152   0.000  0.00  0.00    +0.000 C 
ATOM     68  C   UNL     1       5.716   5.775   0.000  0.00  0.00    +0.000 C 
ATOM     69  N   UNL     1       6.430   5.362   0.000  0.00  0.00    +0.000 N 
ATOM     70  C   UNL     1       6.430   4.537   0.000  0.00  0.00    +0.000 C 
ATOM     71  C   UNL     1       7.145   5.775   0.000  0.00  0.00    +0.000 C 
ATOM     72  C   UNL     1       5.716   4.125   0.000  0.00  0.00    +0.000 C 
ATOM     73  O   UNL     1       5.001   4.537   0.000  0.00  0.00    +0.000 OA
ATOM     74  N   UNL     1       5.716   3.300   0.000  0.00  0.00    +0.000 N 
ATOM     75  C   UNL     1       6.430   2.888   0.000  0.00  0.00    +0.000 C 
ATOM     76  C   UNL     1       5.001   2.888   0.000  0.00  0.00    +0.000 C 
ATOM     77  O   UNL     1       5.001   5.362   0.000  0.00  0.00    +0.000 OA
ATOM     78  O   UNL     1       4.287   4.125   0.000  0.00  0.00    +0.000 OA
ATOM     79  C   UNL     1       2.858   4.125   0.000  0.00  0.00    +0.000 C 
ATOM     80  O   UNL     1       4.287   5.775   0.000  0.00  0.00    +0.000 OA
ATOM     81  O   UNL     1       0.715   2.888   0.000  0.00  0.00    +0.000 OA
ATOM     82  N   UNL     1       1.429   6.600   0.000  0.00  0.00    +0.000 NA
ATOM     83  C   UNL     1       4.287   6.600   0.000  0.00  0.00    +0.000 C 
ATOM     84  C   UNL     1       2.858   7.425   0.000  0.00  0.00    +0.000 C 
BRANCH  76  85
ATOM     85  C   UNL     1       5.001   2.062   0.000  0.00  0.00    +0.000 C 
ATOM     86  C   UNL     1       5.716   1.650   0.000  0.00  0.00    +0.000 C 
ATOM     87  C   UNL     1       4.287   1.650   0.000  0.00  0.00    +0.000 C 
ENDBRANCH  76  85
BRANCH  84  89
ATOM     88  C   UNL     1       3.572   8.662   0.000  0.00  0.00    +0.000 C 
ATOM     89  C   UNL     1       2.858   8.250   0.000  0.00  0.00    +0.000 C 
ATOM     90  C   UNL     1       2.143   8.662   0.000  0.00  0.00    +0.000 C 
ENDBRANCH  84  89
ENDBRANCH  57  58
ENDBRANCH   7  55
TORSDOF 8
