REMARK  Name = 
REMARK  8 active torsions:
REMARK  status: ('A' for Active; 'I' for Inactive)
REMARK    1  A    between atoms: C_1  and  C_28
REMARK    2  A    between atoms: C_4  and  S_11
REMARK    3  A    between atoms: C_5  and  C_8
REMARK    4  A    between atoms: S_11  and  C_23
REMARK    5  A    between atoms: S_12  and  C_13
REMARK    6  A    between atoms: S_12  and  C_23
REMARK    7  A    between atoms: C_16  and  C_24
REMARK    8  A    between atoms: C_17  and  C_20
REMARK                            x       y       z     vdW  Elec       q    Type
REMARK                         _______ _______ _______ _____ _____    ______ ____
ROOT
ATOM      1  C   UNL     1       8.604  -5.747   0.000  0.00  0.00    +0.000 C 
ATOM      2  C   UNL     1       8.191  -5.032   0.000  0.00  0.00    +0.000 C 
ATOM      3  C   UNL     1       9.016  -5.032   0.000  0.00  0.00    +0.000 C 
ENDROOT
BRANCH   1   4
ATOM      4  S   UNL     1       9.318  -6.159   0.000  0.00  0.00    +0.000 S 
BRANCH   4   5
ATOM      5  C   UNL     1      10.030  -5.796   0.000  0.00  0.00    +0.000 A 
ATOM      6  C   UNL     1      10.030  -4.971   0.000  0.00  0.00    +0.000 A 
ATOM      7  C   UNL     1      11.459  -4.971   0.000  0.00  0.00    +0.000 A 
ATOM      8  C   UNL     1      11.459  -5.796   0.000  0.00  0.00    +0.000 A 
ATOM      9  C   UNL     1      10.745  -4.559   0.000  0.00  0.00    +0.000 A 
ATOM     10  C   UNL     1      10.745  -6.209   0.000  0.00  0.00    +0.000 A 
ATOM     11  O   UNL     1      12.174  -4.559   0.000  0.00  0.00    +0.000 OA
BRANCH   9  14
ATOM     12  C   UNL     1      11.459  -3.321   0.000  0.00  0.00    +0.000 C 
ATOM     13  C   UNL     1      10.030  -3.321   0.000  0.00  0.00    +0.000 C 
ATOM     14  C   UNL     1      10.745  -3.734   0.000  0.00  0.00    +0.000 C 
ATOM     15  C   UNL     1      10.745  -2.909   0.000  0.00  0.00    +0.000 C 
ENDBRANCH   9  14
BRANCH   8  16
ATOM     16  C   UNL     1      12.174  -6.209   0.000  0.00  0.00    +0.000 C 
ATOM     17  C   UNL     1      12.888  -5.796   0.000  0.00  0.00    +0.000 C 
ATOM     18  C   UNL     1      12.174  -7.034   0.000  0.00  0.00    +0.000 C 
ATOM     19  C   UNL     1      13.089  -6.685   0.000  0.00  0.00    +0.000 C 
ENDBRANCH   8  16
ENDBRANCH   4   5
ENDBRANCH   1   4
BRANCH   1  20
ATOM     20  S   UNL     1       7.889  -6.159   0.000  0.00  0.00    +0.000 S 
BRANCH  20  24
ATOM     21  C   UNL     1       5.746  -5.747   0.000  0.00  0.00    +0.000 A 
ATOM     22  C   UNL     1       5.746  -4.922   0.000  0.00  0.00    +0.000 A 
ATOM     23  C   UNL     1       7.175  -4.922   0.000  0.00  0.00    +0.000 A 
ATOM     24  C   UNL     1       7.175  -5.747   0.000  0.00  0.00    +0.000 A 
ATOM     25  C   UNL     1       6.460  -4.509   0.000  0.00  0.00    +0.000 A 
ATOM     26  C   UNL     1       6.460  -6.159   0.000  0.00  0.00    +0.000 A 
ATOM     27  O   UNL     1       5.032  -4.509   0.000  0.00  0.00    +0.000 OA
BRANCH  25  30
ATOM     28  C   UNL     1       7.175  -3.272   0.000  0.00  0.00    +0.000 C 
ATOM     29  C   UNL     1       5.746  -3.272   0.000  0.00  0.00    +0.000 C 
ATOM     30  C   UNL     1       6.460  -3.684   0.000  0.00  0.00    +0.000 C 
ATOM     31  C   UNL     1       6.460  -2.859   0.000  0.00  0.00    +0.000 C 
ENDBRANCH  25  30
BRANCH  21  32
ATOM     32  C   UNL     1       5.032  -6.159   0.000  0.00  0.00    +0.000 C 
ATOM     33  C   UNL     1       5.032  -6.984   0.000  0.00  0.00    +0.000 C 
ATOM     34  C   UNL     1       4.317  -5.747   0.000  0.00  0.00    +0.000 C 
ATOM     35  C   UNL     1       4.153  -6.705   0.000  0.00  0.00    +0.000 C 
ENDBRANCH  21  32
ENDBRANCH  20  24
ENDBRANCH   1  20
TORSDOF 8
