REMARK  Name = 
REMARK  1 active torsions:
REMARK  status: ('A' for Active; 'I' for Inactive)
REMARK    1  A    between atoms: C_7  and  C_10
REMARK                            x       y       z     vdW  Elec       q    Type
REMARK                         _______ _______ _______ _____ _____    ______ ____
ROOT
ATOM      1  C   UNL     1      11.823  -9.745   0.000  0.00  0.00    +0.000 A 
ATOM      2  C   UNL     1      10.998  -9.745   0.000  0.00  0.00    +0.000 A 
ATOM      3  C   UNL     1      10.585  -9.031   0.000  0.00  0.00    +0.000 A 
ATOM      4  C   UNL     1      10.998  -8.316   0.000  0.00  0.00    +0.000 A 
ATOM      5  C   UNL     1      11.823  -8.316   0.000  0.00  0.00    +0.000 A 
ATOM      6  C   UNL     1      12.235  -9.031   0.000  0.00  0.00    +0.000 A 
ATOM      7  C   UNL     1      13.042  -8.859   0.000  0.00  0.00    +0.000 A 
ATOM      8  C   UNL     1      13.128  -8.039   0.000  0.00  0.00    +0.000 A 
ATOM      9  N   UNL     1      12.375  -7.703   0.000  0.00  0.00    +0.000 NA
ENDROOT
BRANCH   7  10
ATOM     10  C   UNL     1      13.655  -9.412   0.000  0.00  0.00    +0.000 C 
ATOM     11  O   UNL     1      14.440  -9.156   0.000  0.00  0.00    +0.000 OA
ENDBRANCH   7  10
TORSDOF 1
