REMARK  Name = 
REMARK  20 active torsions:
REMARK  status: ('A' for Active; 'I' for Inactive)
REMARK    1  A    between atoms: O_1  and  C_2
REMARK    2  A    between atoms: O_1  and  C_18
REMARK    3  A    between atoms: C_2  and  C_3
REMARK    4  A    between atoms: C_3  and  C_4
REMARK    5  A    between atoms: C_3  and  O_6
REMARK    6  A    between atoms: C_4  and  O_5
REMARK    7  A    between atoms: O_5  and  C_7
REMARK    8  A    between atoms: O_6  and  C_29
REMARK    9  A    between atoms: C_7  and  C_8
REMARK   10  A    between atoms: C_8  and  C_10
REMARK   11  A    between atoms: C_10  and  C_11
REMARK   12  A    between atoms: C_11  and  C_12
REMARK   13  A    between atoms: C_18  and  C_20
REMARK   14  A    between atoms: C_20  and  C_21
REMARK   15  A    between atoms: C_21  and  C_22
REMARK   16  A    between atoms: C_22  and  C_23
REMARK   17  A    between atoms: C_29  and  C_30
REMARK   18  A    between atoms: C_30  and  C_32
REMARK   19  A    between atoms: C_32  and  C_33
REMARK   20  A    between atoms: C_33  and  C_34
REMARK                            x       y       z     vdW  Elec       q    Type
REMARK                         _______ _______ _______ _____ _____    ______ ____
ROOT
ATOM      1  C   UNL     1      14.682 -12.256   0.000  0.00  0.00    +0.000 C 
ENDROOT
BRANCH   1   2
ATOM      2  O   UNL     1      14.682 -13.092   0.000  0.00  0.00    +0.000 OA
BRANCH   2   3
ATOM      3  C   UNL     1      15.393 -13.511   0.000  0.00  0.00    +0.000 C 
ATOM      4  O   UNL     1      15.393 -14.347   0.000  0.00  0.00    +0.000 OA
BRANCH   3   5
ATOM      5  C   UNL     1      16.146 -13.092   0.000  0.00  0.00    +0.000 C 
BRANCH   5   6
ATOM      6  C   UNL     1      16.857 -13.511   0.000  0.00  0.00    +0.000 C 
BRANCH   6   7
ATOM      7  C   UNL     1      17.568 -13.092   0.000  0.00  0.00    +0.000 C 
BRANCH   7   8
ATOM      8  C   UNL     1      18.279 -13.511   0.000  0.00  0.00    +0.000 A 
ATOM      9  C   UNL     1      18.279 -14.347   0.000  0.00  0.00    +0.000 A 
ATOM     10  C   UNL     1      18.990 -14.766   0.000  0.00  0.00    +0.000 A 
ATOM     11  C   UNL     1      19.743 -14.347   0.000  0.00  0.00    +0.000 A 
ATOM     12  C   UNL     1      19.743 -13.511   0.000  0.00  0.00    +0.000 A 
ATOM     13  C   UNL     1      18.990 -13.092   0.000  0.00  0.00    +0.000 A 
ENDBRANCH   7   8
ENDBRANCH   6   7
ENDBRANCH   5   6
ENDBRANCH   3   5
ENDBRANCH   2   3
ENDBRANCH   1   2
BRANCH   1  14
ATOM     14  C   UNL     1      13.929 -11.838   0.000  0.00  0.00    +0.000 C 
BRANCH  14  15
ATOM     15  O   UNL     1      13.218 -12.256   0.000  0.00  0.00    +0.000 OA
BRANCH  15  16
ATOM     16  C   UNL     1      12.465 -11.838   0.000  0.00  0.00    +0.000 C 
ATOM     17  O   UNL     1      12.465 -11.001   0.000  0.00  0.00    +0.000 OA
BRANCH  16  18
ATOM     18  C   UNL     1      11.754 -12.256   0.000  0.00  0.00    +0.000 C 
BRANCH  18  19
ATOM     19  C   UNL     1      11.043 -11.838   0.000  0.00  0.00    +0.000 C 
BRANCH  19  20
ATOM     20  C   UNL     1      10.332 -12.256   0.000  0.00  0.00    +0.000 C 
BRANCH  20  21
ATOM     21  C   UNL     1       9.621 -11.838   0.000  0.00  0.00    +0.000 A 
ATOM     22  C   UNL     1       9.621 -11.001   0.000  0.00  0.00    +0.000 A 
ATOM     23  C   UNL     1       8.910 -10.541   0.000  0.00  0.00    +0.000 A 
ATOM     24  C   UNL     1       8.157 -11.001   0.000  0.00  0.00    +0.000 A 
ATOM     25  C   UNL     1       8.157 -11.838   0.000  0.00  0.00    +0.000 A 
ATOM     26  C   UNL     1       8.910 -12.256   0.000  0.00  0.00    +0.000 A 
ENDBRANCH  20  21
ENDBRANCH  19  20
ENDBRANCH  18  19
ENDBRANCH  16  18
ENDBRANCH  15  16
ENDBRANCH  14  15
ENDBRANCH   1  14
BRANCH   1  27
ATOM     27  C   UNL     1      15.393 -11.838   0.000  0.00  0.00    +0.000 C 
BRANCH  27  28
ATOM     28  O   UNL     1      16.104 -12.256   0.000  0.00  0.00    +0.000 OA
BRANCH  28  29
ATOM     29  C   UNL     1      16.857 -11.838   0.000  0.00  0.00    +0.000 C 
ATOM     30  O   UNL     1      16.857 -11.001   0.000  0.00  0.00    +0.000 OA
BRANCH  29  31
ATOM     31  C   UNL     1      17.568 -12.256   0.000  0.00  0.00    +0.000 C 
BRANCH  31  32
ATOM     32  C   UNL     1      18.279 -11.838   0.000  0.00  0.00    +0.000 C 
BRANCH  32  33
ATOM     33  C   UNL     1      18.990 -12.256   0.000  0.00  0.00    +0.000 C 
BRANCH  33  34
ATOM     34  C   UNL     1      19.701 -11.838   0.000  0.00  0.00    +0.000 A 
ATOM     35  C   UNL     1      20.413 -12.256   0.000  0.00  0.00    +0.000 A 
ATOM     36  C   UNL     1      21.166 -11.838   0.000  0.00  0.00    +0.000 A 
ATOM     37  C   UNL     1      21.166 -10.959   0.000  0.00  0.00    +0.000 A 
ATOM     38  C   UNL     1      20.413 -10.583   0.000  0.00  0.00    +0.000 A 
ATOM     39  C   UNL     1      19.701 -11.001   0.000  0.00  0.00    +0.000 A 
ENDBRANCH  33  34
ENDBRANCH  32  33
ENDBRANCH  31  32
ENDBRANCH  29  31
ENDBRANCH  28  29
ENDBRANCH  27  28
ENDBRANCH   1  27
TORSDOF 20
