REMARK  Name = 
REMARK  4 active torsions:
REMARK  status: ('A' for Active; 'I' for Inactive)
REMARK    1  A    between atoms: C_3  and  C_4
REMARK    2  A    between atoms: C_16  and  O_17
REMARK    3  A    between atoms: C_24  and  O_29
REMARK    4  A    between atoms: C_25  and  O_27
REMARK                            x       y       z     vdW  Elec       q    Type
REMARK                         _______ _______ _______ _____ _____    ______ ____
ROOT
ATOM      1  C   UNL     1       1.879  -1.392   0.000  0.00  0.00    +0.000 C 
ATOM      2  N   UNL     1       2.593  -0.979   0.000  0.00  0.00    +0.000 NA
ATOM      3  C   UNL     1       3.307  -1.392   0.000  0.00  0.00    +0.000 C 
ATOM      4  C   UNL     1       2.593  -0.154   0.000  0.00  0.00    +0.000 C 
ATOM      5  C   UNL     1       1.879   0.258   0.000  0.00  0.00    +0.000 C 
ATOM      6  C   UNL     1       1.164  -0.154   0.000  0.00  0.00    +0.000 A 
ATOM      7  C   UNL     1       0.450   0.258   0.000  0.00  0.00    +0.000 A 
ATOM      8  C   UNL     1      -0.265  -0.154   0.000  0.00  0.00    +0.000 A 
ATOM      9  O   UNL     1      -1.050   0.101   0.000  0.00  0.00    +0.000 OA
ATOM     10  C   UNL     1      -1.534  -0.567   0.000  0.00  0.00    +0.000 C 
ATOM     11  O   UNL     1      -1.050  -1.234   0.000  0.00  0.00    +0.000 OA
ATOM     12  C   UNL     1      -0.265  -0.979   0.000  0.00  0.00    +0.000 A 
ATOM     13  C   UNL     1       0.450  -1.392   0.000  0.00  0.00    +0.000 A 
ATOM     14  C   UNL     1       1.164  -0.979   0.000  0.00  0.00    +0.000 A 
ENDROOT
BRANCH   1  17
ATOM     15  O   UNL     1       2.546  -2.701   0.000  0.00  0.00    +0.000 OA
ATOM     16  C   UNL     1       2.291  -3.486   0.000  0.00  0.00    +0.000 C 
ATOM     17  C   UNL     1       1.879  -2.217   0.000  0.00  0.00    +0.000 C 
ATOM     18  O   UNL     1       2.874  -4.069   0.000  0.00  0.00    +0.000 OA
ATOM     19  C   UNL     1       1.211  -2.701   0.000  0.00  0.00    +0.000 A 
ATOM     20  C   UNL     1       0.456  -2.476   0.000  0.00  0.00    +0.000 A 
ATOM     21  C   UNL     1      -0.128  -3.059   0.000  0.00  0.00    +0.000 A 
ATOM     22  C   UNL     1       0.086  -3.856   0.000  0.00  0.00    +0.000 A 
ATOM     23  C   UNL     1       0.883  -4.069   0.000  0.00  0.00    +0.000 A 
ATOM     24  C   UNL     1       1.466  -3.486   0.000  0.00  0.00    +0.000 A 
BRANCH  23  25
ATOM     25  O   UNL     1       1.096  -4.866   0.000  0.00  0.00    +0.000 OA
ATOM     26  C   UNL     1       1.893  -5.080   0.000  0.00  0.00    +0.000 C 
ENDBRANCH  23  25
BRANCH  22  27
ATOM     27  O   UNL     1      -0.498  -4.439   0.000  0.00  0.00    +0.000 OA
ATOM     28  C   UNL     1      -0.284  -5.236   0.000  0.00  0.00    +0.000 C 
ENDBRANCH  22  27
ENDBRANCH   1  17
BRANCH  13  29
ATOM     29  O   UNL     1       0.450  -2.217   0.000  0.00  0.00    +0.000 OA
ATOM     30  C   UNL     1      -0.265  -2.629   0.000  0.00  0.00    +0.000 C 
ENDBRANCH  13  29
TORSDOF 4
