REMARK  Name = 
REMARK  9 active torsions:
REMARK  status: ('A' for Active; 'I' for Inactive)
REMARK    1  A    between atoms: C_7  and  C_26
REMARK    2  A    between atoms: C_8  and  C_27
REMARK    3  A    between atoms: C_14  and  C_16
REMARK    4  A    between atoms: C_14  and  C_28
REMARK    5  A    between atoms: C_15  and  C_17
REMARK    6  A    between atoms: C_15  and  C_29
REMARK    7  A    between atoms: C_16  and  C_36
REMARK    8  A    between atoms: C_17  and  C_37
REMARK    9  A    between atoms: C_25  and  C_38
REMARK                            x       y       z     vdW  Elec       q    Type
REMARK                         _______ _______ _______ _____ _____    ______ ____
ROOT
ATOM      1  C   UNL     1       3.462   0.426   0.000  0.00  0.00    +0.000 C 
ATOM      2  C   UNL     1       1.008   0.948   0.000  0.00  0.00    +0.000 C 
ATOM      3  C   UNL     1       5.228  -3.547   0.000  0.00  0.00    +0.000 C 
ATOM      4  C   UNL     1       7.990   0.144   0.000  0.00  0.00    +0.000 C 
ATOM      5  C   UNL     1       2.950   1.499   0.000  0.00  0.00    +0.000 C 
ATOM      6  C   UNL     1       5.739  -1.679   0.000  0.00  0.00    +0.000 C 
ATOM      7  C   UNL     1       2.755  -1.485   0.000  0.00  0.00    +0.000 C 
ATOM      8  C   UNL     1       3.867   1.112   0.000  0.00  0.00    +0.000 A 
ATOM      9  C   UNL     1       1.629   0.358   0.000  0.00  0.00    +0.000 A 
ATOM     10  C   UNL     1       4.719  -2.858   0.000  0.00  0.00    +0.000 A 
ATOM     11  C   UNL     1       7.112   0.284   0.000  0.00  0.00    +0.000 C 
ATOM     12  C   UNL     1       7.059  -0.539   0.000  0.00  0.00    +0.000 C 
ATOM     13  C   UNL     1       4.690   1.058   0.000  0.00  0.00    +0.000 A 
ATOM     14  C   UNL     1       1.576  -0.465   0.000  0.00  0.00    +0.000 A 
ATOM     15  C   UNL     1       3.895  -2.805   0.000  0.00  0.00    +0.000 A 
ATOM     16  C   UNL     1       2.429   0.562   0.000  0.00  0.00    +0.000 A 
ATOM     17  C   UNL     1       5.024  -2.092   0.000  0.00  0.00    +0.000 A 
ATOM     18  C   UNL     1       3.664   1.912   0.000  0.00  0.00    +0.000 A 
ATOM     19  C   UNL     1       6.259  -0.742   0.000  0.00  0.00    +0.000 C 
ATOM     20  C   UNL     1       2.342  -0.770   0.000  0.00  0.00    +0.000 A 
ATOM     21  C   UNL     1       3.692  -2.005   0.000  0.00  0.00    +0.000 A 
ATOM     22  C   UNL     1       5.933   1.304   0.000  0.00  0.00    +0.000 C 
ATOM     23  C   UNL     1       6.346   0.590   0.000  0.00  0.00    +0.000 C 
ATOM     24  C   UNL     1       4.996   1.825   0.000  0.00  0.00    +0.000 A 
ATOM     25 FE   UNL     1       4.360   0.152   0.000  0.00  0.00    +0.000 Fe
ATOM     26  N   UNL     1       2.869  -0.136   0.000  0.00  0.00    +0.000 N 
ATOM     27  N   UNL     1       4.390  -1.565   0.000  0.00  0.00    +0.000 N 
ATOM     28  N   UNL     1       4.362   2.352   0.000  0.00  0.00    +0.000 N 
ATOM     29  N   UNL     1       5.819  -0.044   0.000  0.00  0.00    +0.000 N 
ENDROOT
BRANCH  22  35
ATOM     30  C   UNL     1       7.668   3.069   0.000  0.00  0.00    +0.000 A 
ATOM     31  C   UNL     1       6.870   3.276   0.000  0.00  0.00    +0.000 A 
ATOM     32  C   UNL     1       7.889   2.274   0.000  0.00  0.00    +0.000 A 
ATOM     33  C   UNL     1       6.292   2.688   0.000  0.00  0.00    +0.000 A 
ATOM     34  C   UNL     1       7.310   1.686   0.000  0.00  0.00    +0.000 A 
ATOM     35  C   UNL     1       6.512   1.893   0.000  0.00  0.00    +0.000 A 
ENDBRANCH  22  35
BRANCH  12  37
ATOM     36  C   UNL     1       8.618  -1.241   0.000  0.00  0.00    +0.000 C 
ATOM     37  C   UNL     1       7.774  -1.067   0.000  0.00  0.00    +0.000 C 
ENDBRANCH  12  37
BRANCH  13  39
ATOM     38  C   UNL     1       5.049  -0.555   0.000  0.00  0.00    +0.000 C 
ATOM     39  C   UNL     1       5.008   0.266   0.000  0.00  0.00    +0.000 C 
ENDBRANCH  13  39
BRANCH  14  40
ATOM     40  C   UNL     1       0.817  -0.919   0.000  0.00  0.00    +0.000 C 
BRANCH  40  41
ATOM     41  C   UNL     1      -0.026  -0.771   0.000  0.00  0.00    +0.000 C 
BRANCH  41  42
ATOM     42  C   UNL     1      -0.309   0.004   0.000  0.00  0.00    +0.000 C 
ATOM     43  O   UNL     1      -1.121   0.147   0.000  0.00  0.00    +0.000 OA
ATOM     44  O   UNL     1       0.221   0.636   0.000  0.00  0.00    +0.000 OA
ENDBRANCH  41  42
ENDBRANCH  40  41
ENDBRANCH  14  40
BRANCH  15  45
ATOM     45  C   UNL     1       3.381  -3.523   0.000  0.00  0.00    +0.000 C 
BRANCH  45  46
ATOM     46  C   UNL     1       3.408  -4.379   0.000  0.00  0.00    +0.000 C 
BRANCH  46  47
ATOM     47  C   UNL     1       4.135  -4.769   0.000  0.00  0.00    +0.000 C 
ATOM     48  O   UNL     1       4.836  -4.335   0.000  0.00  0.00    +0.000 OA
ATOM     49  O   UNL     1       4.160  -5.594   0.000  0.00  0.00    +0.000 OA
ENDBRANCH  46  47
ENDBRANCH  45  46
ENDBRANCH  15  45
TORSDOF 9
