REMARK  Name = 
REMARK  5 active torsions:
REMARK  status: ('A' for Active; 'I' for Inactive)
REMARK    1  A    between atoms: C_1  and  C_3
REMARK    2  A    between atoms: C_1  and  O_20
REMARK    3  A    between atoms: C_4  and  C_7
REMARK    4  A    between atoms: C_9  and  N_12
REMARK    5  A    between atoms: O_20  and  P_22
REMARK                            x       y       z     vdW  Elec       q    Type
REMARK                         _______ _______ _______ _____ _____    ______ ____
ROOT
ATOM      1  C   UNL     1      -0.721   0.512   0.000  0.00  0.00    +0.000 C 
ATOM      2  C   UNL     1      -0.053   0.027   0.000  0.00  0.00    +0.000 C 
ATOM      3  C   UNL     1       0.614   0.512   0.000  0.00  0.00    +0.000 C 
ATOM      4  C   UNL     1       0.359   1.297   0.000  0.00  0.00    +0.000 C 
ATOM      5  O   UNL     1      -0.053  -0.798   0.000  0.00  0.00    +0.000 OA
ATOM      6  O   UNL     1       1.399   0.257   0.000  0.00  0.00    +0.000 OA
ATOM      7  O   UNL     1      -0.466   1.297   0.000  0.00  0.00    +0.000 OA
ENDROOT
BRANCH   4  12
ATOM      8  C   UNL     1       1.669   1.964   0.000  0.00  0.00    +0.000 A 
ATOM      9  C   UNL     1       1.256   3.234   0.000  0.00  0.00    +0.000 A 
ATOM     10  C   UNL     1       0.589   2.749   0.000  0.00  0.00    +0.000 A 
ATOM     11  N   UNL     1       1.924   2.749   0.000  0.00  0.00    +0.000 NA
ATOM     12  N   UNL     1       0.844   1.964   0.000  0.00  0.00    +0.000 N 
ATOM     13  O   UNL     1      -0.196   3.004   0.000  0.00  0.00    +0.000 OA
BRANCH   9  14
ATOM     14  C   UNL     1       1.256   4.059   0.000  0.00  0.00    +0.000 C 
ATOM     15  N   UNL     1       1.971   4.471   0.000  0.00  0.00    +0.000 NA
ATOM     16  O   UNL     1       0.542   4.471   0.000  0.00  0.00    +0.000 OA
ENDBRANCH   9  14
ENDBRANCH   4  12
BRANCH   1  17
ATOM     17  C   UNL     1      -1.506   0.257   0.000  0.00  0.00    +0.000 C 
BRANCH  17  18
ATOM     18  O   UNL     1      -2.119   0.809   0.000  0.00  0.00    +0.000 OA
BRANCH  18  22
ATOM     19  O   UNL     1      -3.688   0.299   0.000  0.00  0.00    +0.000 OA
ATOM     20  O   UNL     1      -3.158   1.339   0.000  0.00  0.00    +0.000 OA
ATOM     21  O   UNL     1      -2.648  -0.230   0.000  0.00  0.00    +0.000 OA
ATOM     22  P   UNL     1      -2.903   0.554   0.000  0.00  0.00    +0.000 P 
ENDBRANCH  18  22
ENDBRANCH  17  18
ENDBRANCH   1  17
TORSDOF 5
