REMARK  Name = 
REMARK  6 active torsions:
REMARK  status: ('A' for Active; 'I' for Inactive)
REMARK    1  A    between atoms: S_1  and  C_37
REMARK    2  A    between atoms: O_6  and  C_30
REMARK    3  A    between atoms: O_6  and  C_33
REMARK    4  A    between atoms: C_16  and  C_26
REMARK    5  A    between atoms: C_26  and  C_30
REMARK    6  A    between atoms: C_33  and  C_34
REMARK                            x       y       z     vdW  Elec       q    Type
REMARK                         _______ _______ _______ _____ _____    ______ ____
ROOT
ATOM      1  O   UNL     1       4.976   4.104   0.000  0.00  0.00    +0.000 OA
ATOM      2  O   UNL     1       2.306   3.480   0.000  0.00  0.00    +0.000 OA
ATOM      3  O   UNL     1       0.000   0.549   0.000  0.00  0.00    +0.000 OA
ATOM      4  C   UNL     1       4.449   3.067   0.000  0.00  0.00    +0.000 C 
ATOM      5  C   UNL     1       4.449   2.243   0.000  0.00  0.00    +0.000 C 
ATOM      6  C   UNL     1       3.735   1.830   0.000  0.00  0.00    +0.000 C 
ATOM      7  C   UNL     1       3.020   2.243   0.000  0.00  0.00    +0.000 C 
ATOM      8  C   UNL     1       5.230   3.319   0.000  0.00  0.00    +0.000 C 
ATOM      9  C   UNL     1       3.735   3.480   0.000  0.00  0.00    +0.000 C 
ATOM     10  C   UNL     1       5.230   1.991   0.000  0.00  0.00    +0.000 C 
ATOM     11  C   UNL     1       3.020   3.067   0.000  0.00  0.00    +0.000 C 
ATOM     12  C   UNL     1       2.270   1.824   0.000  0.00  0.00    +0.000 C 
ATOM     13  C   UNL     1       5.711   2.655   0.000  0.00  0.00    +0.000 C 
ATOM     14  C   UNL     1       3.748   0.971   0.000  0.00  0.00    +0.000 C 
ATOM     15  C   UNL     1       4.449   3.893   0.000  0.00  0.00    +0.000 C 
ATOM     16  C   UNL     1       3.007   0.535   0.000  0.00  0.00    +0.000 C 
ATOM     17  C   UNL     1       2.263   0.965   0.000  0.00  0.00    +0.000 C 
ATOM     18  C   UNL     1       2.276   2.649   0.000  0.00  0.00    +0.000 C 
ATOM     19  C   UNL     1       1.505   2.290   0.000  0.00  0.00    +0.000 C 
ATOM     20  C   UNL     1       1.491   0.511   0.000  0.00  0.00    +0.000 C 
ATOM     21  C   UNL     1       0.723   1.854   0.000  0.00  0.00    +0.000 C 
ATOM     22  C   UNL     1       0.716   0.959   0.000  0.00  0.00    +0.000 C 
ENDROOT
BRANCH   8  24
ATOM     23  O   UNL     1       5.813   4.623   0.000  0.00  0.00    +0.000 OA
ATOM     24  C   UNL     1       5.898   3.803   0.000  0.00  0.00    +0.000 C 
BRANCH  24  25
ATOM     25  C   UNL     1       6.651   3.466   0.000  0.00  0.00    +0.000 C 
BRANCH  25  26
ATOM     26  O   UNL     1       7.320   3.950   0.000  0.00  0.00    +0.000 OA
BRANCH  26  28
ATOM     27  O   UNL     1       8.158   2.792   0.000  0.00  0.00    +0.000 OA
ATOM     28  C   UNL     1       8.073   3.613   0.000  0.00  0.00    +0.000 C 
BRANCH  28  29
ATOM     29  C   UNL     1       8.741   4.096   0.000  0.00  0.00    +0.000 A 
ATOM     30  C   UNL     1       8.656   4.917   0.000  0.00  0.00    +0.000 A 
ATOM     31  C   UNL     1       9.494   3.760   0.000  0.00  0.00    +0.000 A 
ATOM     32  C   UNL     1       9.324   5.401   0.000  0.00  0.00    +0.000 A 
ATOM     33  C   UNL     1      10.162   4.243   0.000  0.00  0.00    +0.000 A 
ATOM     34  C   UNL     1      10.078   5.064   0.000  0.00  0.00    +0.000 A 
BRANCH  32  35
ATOM     35  S   UNL     1       9.240   6.221   0.000  0.00  0.00    +0.000 S 
ATOM     36  O   UNL     1       9.155   7.042   0.000  0.00  0.00    +0.000 OA
ATOM     37  O   UNL     1       8.419   6.137   0.000  0.00  0.00    +0.000 OA
ATOM     38  O   UNL     1      10.060   6.306   0.000  0.00  0.00    +0.000 OA
ENDBRANCH  32  35
ENDBRANCH  28  29
ENDBRANCH  26  28
ENDBRANCH  25  26
ENDBRANCH  24  25
ENDBRANCH   8  24
TORSDOF 6
REMARK  Name = 
REMARK  6 active torsions:
REMARK  status: ('A' for Active; 'I' for Inactive)
REMARK    1  A    between atoms: S_1  and  C_37
REMARK    2  A    between atoms: O_6  and  C_30
REMARK    3  A    between atoms: O_6  and  C_33
REMARK    4  A    between atoms: C_16  and  C_26
REMARK    5  A    between atoms: C_26  and  C_30
REMARK    6  A    between atoms: C_33  and  C_34
REMARK                            x       y       z     vdW  Elec       q    Type
REMARK                         _______ _______ _______ _____ _____    ______ ____
ROOT
ATOM      1 NA   UNL     1       9.823   7.526   0.000  0.00  0.00    +0.000 Na
ENDROOT
TORSDOF 0
