REMARK  Name = 
REMARK  6 active torsions:
REMARK  status: ('A' for Active; 'I' for Inactive)
REMARK    1  A    between atoms: C_1  and  O_2
REMARK    2  A    between atoms: O_2  and  C_5
REMARK    3  A    between atoms: C_6  and  C_12
REMARK    4  A    between atoms: C_12  and  O_18
REMARK    5  A    between atoms: C_14  and  C_20
REMARK    6  A    between atoms: O_18  and  P_22
REMARK                            x       y       z     vdW  Elec       q    Type
REMARK                         _______ _______ _______ _____ _____    ______ ____
ROOT
ATOM      1  C   UNL     1       0.343   0.474   0.000  0.00  0.00    +0.000 C 
ATOM      2  O   UNL     1       1.058   0.884   0.000  0.00  0.00    +0.000 OA
ATOM      3  C   UNL     1       0.343  -0.354   0.000  0.00  0.00    +0.000 C 
ATOM      4  C   UNL     1       1.769   0.474   0.000  0.00  0.00    +0.000 C 
ATOM      5  C   UNL     1       1.058  -0.772   0.000  0.00  0.00    +0.000 C 
ATOM      6  O   UNL     1      -0.369  -0.557   0.000  0.00  0.00    +0.000 OA
ATOM      7  C   UNL     1       1.769  -0.354   0.000  0.00  0.00    +0.000 C 
ATOM      8  O   UNL     1       1.061  -1.592   0.000  0.00  0.00    +0.000 OA
ATOM      9  O   UNL     1       2.480  -0.760   0.000  0.00  0.00    +0.000 OA
ENDROOT
BRANCH   1  10
ATOM     10  O   UNL     1      -0.693   1.080   0.000  0.00  0.00    +0.000 OA
BRANCH  10  11
ATOM     11  C   UNL     1      -1.799   0.474   0.000  0.00  0.00    +0.000 C 
ATOM     12  O   UNL     1      -2.518   0.884   0.000  0.00  0.00    +0.000 OA
ATOM     13  C   UNL     1      -1.799  -0.354   0.000  0.00  0.00    +0.000 C 
ATOM     14  C   UNL     1      -3.226   0.474   0.000  0.00  0.00    +0.000 C 
ATOM     15  C   UNL     1      -2.518  -0.772   0.000  0.00  0.00    +0.000 C 
ATOM     16  O   UNL     1      -1.186  -1.148   0.000  0.00  0.00    +0.000 OA
ATOM     17  C   UNL     1      -3.226  -0.354   0.000  0.00  0.00    +0.000 C 
ATOM     18  O   UNL     1      -2.518  -1.592   0.000  0.00  0.00    +0.000 OA
ATOM     19  O   UNL     1      -3.937  -0.760   0.000  0.00  0.00    +0.000 OA
BRANCH  14  20
ATOM     20  C   UNL     1      -3.933   0.884   0.000  0.00  0.00    +0.000 C 
ATOM     21  O   UNL     1      -4.645   0.474   0.000  0.00  0.00    +0.000 OA
ENDBRANCH  14  20
ENDBRANCH  10  11
ENDBRANCH   1  10
BRANCH   4  22
ATOM     22  C   UNL     1       2.477   0.884   0.000  0.00  0.00    +0.000 C 
BRANCH  22  23
ATOM     23  O   UNL     1       3.188   0.474   0.000  0.00  0.00    +0.000 OA
BRANCH  23  24
ATOM     24  P   UNL     1       4.001   0.474   0.000  0.00  0.00    +0.000 P 
ATOM     25  O   UNL     1       4.822   0.474   0.000  0.00  0.00    +0.000 OA
ATOM     26  O   UNL     1       4.001   1.295   0.000  0.00  0.00    +0.000 OA
ATOM     27  O   UNL     1       3.997  -0.343   0.000  0.00  0.00    +0.000 OA
ENDBRANCH  23  24
ENDBRANCH  22  23
ENDBRANCH   4  22
TORSDOF 6
