REMARK  Name = 
REMARK  3 active torsions:
REMARK  status: ('A' for Active; 'I' for Inactive)
REMARK    1  A    between atoms: C_7  and  C_10
REMARK    2  A    between atoms: C_9  and  C_10
REMARK    3  A    between atoms: C_9  and  C_11
REMARK                            x       y       z     vdW  Elec       q    Type
REMARK                         _______ _______ _______ _____ _____    ______ ____
ROOT
ATOM      1  C   UNK     1       3.352   1.110   0.000  0.00  0.00    +0.000 A 
ATOM      2  C   UNK     1       3.352   1.935   0.000  0.00  0.00    +0.000 A 
ATOM      3  C   UNK     1       2.638   0.698   0.000  0.00  0.00    +0.000 A 
ATOM      4  C   UNK     1       2.638   2.348   0.000  0.00  0.00    +0.000 A 
ATOM      5  C   UNK     1       0.654   1.523   0.000  0.00  0.00    +0.000 A 
ATOM      6  C   UNK     1       1.923   1.110   0.000  0.00  0.00    +0.000 A 
ATOM      7  C   UNK     1       1.139   0.856   0.000  0.00  0.00    +0.000 A 
ATOM      8  C   UNK     1       1.923   1.935   0.000  0.00  0.00    +0.000 A 
ATOM      9  N   UNK     1       1.139   2.190   0.000  0.00  0.00    +0.000 NA
ENDROOT
BRANCH   7  10
ATOM     10  C   UNK     1       0.884   0.071   0.000  0.00  0.00    +0.000 C 
ATOM     11  O   UNK     1       0.077  -0.101   0.000  0.00  0.00    +0.000 OA
BRANCH  10  12
ATOM     12  C   UNK     1       1.436  -0.542   0.000  0.00  0.00    +0.000 C 
ATOM     13  N   UNK     1       2.243  -0.371   0.000  0.00  0.00    +0.000 NA
BRANCH  12  14
ATOM     14  C   UNK     1       1.181  -1.327   0.000  0.00  0.00    +0.000 C 
ATOM     15  O   UNK     1       1.733  -1.940   0.000  0.00  0.00    +0.000 OA
ATOM     16  O   UNK     1       0.374  -1.498   0.000  0.00  0.00    +0.000 OA
ENDBRANCH  12  14
ENDBRANCH  10  12
ENDBRANCH   7  10
TORSDOF 3
