REMARK  Name = 
REMARK  3 active torsions:
REMARK  status: ('A' for Active; 'I' for Inactive)
REMARK    1  A    between atoms: C_7  and  C_8
REMARK    2  A    between atoms: C_9  and  C_10
REMARK    3  A    between atoms: C_12  and  C_21
REMARK                            x       y       z     vdW  Elec       q    Type
REMARK                         _______ _______ _______ _____ _____    ______ ____
ROOT
ATOM      1  O   UNL     1       3.381   1.368   0.000  0.00  0.00    +0.000 OA
ATOM      2  N   UNL     1       4.461   0.584   0.000  0.00  0.00    +0.000 NA
ATOM      3  N   UNL     1       3.126   0.584   0.000  0.00  0.00    +0.000 NA
ATOM      4  C   UNL     1       3.793   0.099   0.000  0.00  0.00    +0.000 A 
ATOM      5  C   UNL     1       4.206   1.368   0.000  0.00  0.00    +0.000 A 
ENDROOT
BRANCH   5   7
ATOM      6  F   UNL     1       5.847   1.196   0.000  0.00  0.00    +0.000 F 
ATOM      7  C   UNL     1       4.691   2.036   0.000  0.00  0.00    +0.000 A 
ATOM      8  C   UNL     1       5.511   1.950   0.000  0.00  0.00    +0.000 A 
ATOM      9  C   UNL     1       4.355   2.789   0.000  0.00  0.00    +0.000 A 
ATOM     10  C   UNL     1       5.996   2.617   0.000  0.00  0.00    +0.000 A 
ATOM     11  C   UNL     1       4.840   3.457   0.000  0.00  0.00    +0.000 A 
ATOM     12  C   UNL     1       5.661   3.371   0.000  0.00  0.00    +0.000 A 
ENDBRANCH   5   7
BRANCH   4  13
ATOM     13  C   UNL     1       3.793  -0.726   0.000  0.00  0.00    +0.000 A 
ATOM     14  C   UNL     1       3.079  -1.139   0.000  0.00  0.00    +0.000 A 
ATOM     15  C   UNL     1       3.079  -1.964   0.000  0.00  0.00    +0.000 A 
ATOM     16  C   UNL     1       4.508  -1.139   0.000  0.00  0.00    +0.000 A 
ATOM     17  C   UNL     1       3.793  -2.376   0.000  0.00  0.00    +0.000 A 
ATOM     18  C   UNL     1       4.508  -1.964   0.000  0.00  0.00    +0.000 A 
BRANCH  15  21
ATOM     19  O   UNL     1       2.365  -3.201   0.000  0.00  0.00    +0.000 OA
ATOM     20  O   UNL     1       1.650  -1.964   0.000  0.00  0.00    +0.000 OA
ATOM     21  C   UNL     1       2.365  -2.376   0.000  0.00  0.00    +0.000 C 
ENDBRANCH  15  21
ENDBRANCH   4  13
TORSDOF 3
