REMARK  Name = 
REMARK  4 active torsions:
REMARK  status: ('A' for Active; 'I' for Inactive)
REMARK    1  A    between atoms: C_3  and  C_4
REMARK    2  A    between atoms: C_3  and  S_11
REMARK    3  A    between atoms: C_4  and  C_5
REMARK    4  A    between atoms: AS_6  and  S_11
REMARK                            x       y       z     vdW  Elec       q    Type
REMARK                         _______ _______ _______ _____ _____    ______ ____
ROOT
ATOM      1  C   UNK     1      -0.412   0.715   0.000  0.00  0.00    +0.000 C 
ENDROOT
BRANCH   1   2
ATOM      2  C   UNK     1      -1.238   0.715   0.000  0.00  0.00    +0.000 C 
ATOM      3  N   UNK     1      -1.650   0.000   0.000  0.00  0.00    +0.000 NA
BRANCH   2   4
ATOM      4  C   UNK     1      -1.650   1.429   0.000  0.00  0.00    +0.000 C 
ATOM      5  O   UNK     1      -2.475   1.429   0.000  0.00  0.00    +0.000 OA
ATOM      6  O   UNK     1      -1.238   2.143   0.000  0.00  0.00    +0.000 OA
ENDBRANCH   2   4
ENDBRANCH   1   2
BRANCH   1   7
ATOM      7  S   UNK     1       0.000   0.000   0.000  0.00  0.00    +0.000 S 
BRANCH   7  10
ATOM      8  C   UNK     1       1.650   0.000   0.000  0.00  0.00    +0.000 C 
ATOM      9  C   UNK     1       0.825   0.825   0.000  0.00  0.00    +0.000 C 
ATOM     10 AS   UNK     1       0.825   0.000   0.000  0.00  0.00    +0.000 As
ATOM     11  O   UNK     1       0.825  -0.825   0.000  0.00  0.00    +0.000 OA
ENDBRANCH   7  10
ENDBRANCH   1   7
TORSDOF 4
