REMARK  Name = 
REMARK  7 active torsions:
REMARK  status: ('A' for Active; 'I' for Inactive)
REMARK    1  A    between atoms: C_2  and  N_19
REMARK    2  A    between atoms: C_7  and  C_8
REMARK    3  A    between atoms: N_16  and  C_26
REMARK    4  A    between atoms: C_21  and  C_27
REMARK    5  A    between atoms: C_24  and  C_26
REMARK    6  A    between atoms: C_26  and  C_35
REMARK    7  A    between atoms: C_35  and  O_36
REMARK                            x       y       z     vdW  Elec       q    Type
REMARK                         _______ _______ _______ _____ _____    ______ ____
ROOT
ATOM      1  C   UNL     1       2.144   1.304   0.000  0.00  0.00    +0.000 C 
ATOM      2  C   UNL     1       1.319   1.304   0.000  0.00  0.00    +0.000 C 
ATOM      3  N   UNL     1       0.906   0.589   0.000  0.00  0.00    +0.000 NA
ATOM      4  C   UNL     1       1.319  -0.125   0.000  0.00  0.00    +0.000 C 
ATOM      5  C   UNL     1       2.144  -0.125   0.000  0.00  0.00    +0.000 C 
ATOM      6  N   UNL     1       2.556   0.589   0.000  0.00  0.00    +0.000 NA
ATOM      7  C   UNL     1       0.906   2.018   0.000  0.00  0.00    +0.000 C 
ENDROOT
BRANCH   6   9
ATOM      8  C   UNL     1       4.096   1.002   0.000  0.00  0.00    +0.000 C 
ATOM      9  C   UNL     1       3.381   0.589   0.000  0.00  0.00    +0.000 C 
ATOM     10  C   UNL     1       3.381  -0.236   0.000  0.00  0.00    +0.000 C 
ATOM     11  C   UNL     1       4.096  -0.648   0.000  0.00  0.00    +0.000 C 
ATOM     12  N   UNL     1       4.810  -0.236   0.000  0.00  0.00    +0.000 N 
ATOM     13  C   UNL     1       4.810   0.589   0.000  0.00  0.00    +0.000 C 
ATOM     14  C   UNL     1       5.524  -0.648   0.000  0.00  0.00    +0.000 C 
ATOM     15  C   UNL     1       3.167   1.386   0.000  0.00  0.00    +0.000 C 
ATOM     16  O   UNL     1       6.239  -0.236   0.000  0.00  0.00    +0.000 OA
BRANCH  14  17
ATOM     17  C   UNL     1       5.524  -1.473   0.000  0.00  0.00    +0.000 A 
ATOM     18  C   UNL     1       4.810  -1.886   0.000  0.00  0.00    +0.000 A 
ATOM     19  N   UNL     1       4.810  -2.711   0.000  0.00  0.00    +0.000 NA
ATOM     20  C   UNL     1       5.524  -3.123   0.000  0.00  0.00    +0.000 A 
ATOM     21  N   UNL     1       6.239  -2.711   0.000  0.00  0.00    +0.000 NA
ATOM     22  C   UNL     1       6.239  -1.886   0.000  0.00  0.00    +0.000 A 
ATOM     23  C   UNL     1       4.096  -1.473   0.000  0.00  0.00    +0.000 C 
ATOM     24  C   UNL     1       6.953  -1.473   0.000  0.00  0.00    +0.000 C 
ENDBRANCH  14  17
ENDBRANCH   6   9
BRANCH   3  25
ATOM     25  C   UNL     1       0.081   0.589   0.000  0.00  0.00    +0.000 C 
BRANCH  25  30
ATOM     26  C   UNL     1      -0.331  -1.554   0.000  0.00  0.00    +0.000 A 
ATOM     27  C   UNL     1      -1.156  -1.554   0.000  0.00  0.00    +0.000 A 
ATOM     28  C   UNL     1      -1.569  -0.840   0.000  0.00  0.00    +0.000 A 
ATOM     29  C   UNL     1      -1.156  -0.125   0.000  0.00  0.00    +0.000 A 
ATOM     30  C   UNL     1      -0.331  -0.125   0.000  0.00  0.00    +0.000 A 
ATOM     31  C   UNL     1       0.081  -0.840   0.000  0.00  0.00    +0.000 A 
BRANCH  27  32
ATOM     32  C   UNL     1      -1.569  -2.269   0.000  0.00  0.00    +0.000 C 
ATOM     33  F   UNL     1      -0.854  -2.681   0.000  0.00  0.00    +0.000 F 
ATOM     34  F   UNL     1      -2.283  -1.856   0.000  0.00  0.00    +0.000 F 
ATOM     35  F   UNL     1      -1.981  -2.983   0.000  0.00  0.00    +0.000 F 
ENDBRANCH  27  32
ENDBRANCH  25  30
BRANCH  25  36
ATOM     36  C   UNL     1      -0.331   1.304   0.000  0.00  0.00    +0.000 C 
BRANCH  36  37
ATOM     37  O   UNL     1      -1.156   1.304   0.000  0.00  0.00    +0.000 OA
ATOM     38  C   UNL     1      -1.569   2.018   0.000  0.00  0.00    +0.000 C 
ENDBRANCH  36  37
ENDBRANCH  25  36
ENDBRANCH   3  25
TORSDOF 7
