REMARK  Name = 
REMARK  17 active torsions:
REMARK  status: ('A' for Active; 'I' for Inactive)
REMARK    1  A    between atoms: C_13  and  C_14
REMARK    2  A    between atoms: C_13  and  C_22
REMARK    3  A    between atoms: C_14  and  C_23
REMARK    4  A    between atoms: C_15  and  C_20
REMARK    5  A    between atoms: C_15  and  C_21
REMARK    6  A    between atoms: C_16  and  C_24
REMARK    7  A    between atoms: C_17  and  C_25
REMARK    8  A    between atoms: C_18  and  C_26
REMARK    9  A    between atoms: C_19  and  C_27
REMARK   10  A    between atoms: C_19  and  N_31
REMARK   11  A    between atoms: C_21  and  C_22
REMARK   12  A    between atoms: C_21  and  N_32
REMARK   13  A    between atoms: C_24  and  C_28
REMARK   14  A    between atoms: C_24  and  N_33
REMARK   15  A    between atoms: C_25  and  C_29
REMARK   16  A    between atoms: C_25  and  N_34
REMARK   17  A    between atoms: C_29  and  O_41
REMARK                            x       y       z     vdW  Elec       q    Type
REMARK                         _______ _______ _______ _____ _____    ______ ____
ROOT
ATOM      1  C   UNL     1       1.429   2.475   0.000  0.00  0.00    +0.000 C 
ATOM      2  O   UNL     1       1.429   3.300   0.000  0.00  0.00    +0.000 OA
ENDROOT
BRANCH   1   3
ATOM      3  C   UNL     1       0.715   2.062   0.000  0.00  0.00    +0.000 C 
BRANCH   3   4
ATOM      4  C   UNL     1       0.000   2.475   0.000  0.00  0.00    +0.000 C 
BRANCH   4   5
ATOM      5  C   UNL     1      -0.715   2.062   0.000  0.00  0.00    +0.000 C 
ATOM      6  N   UNL     1      -1.429   2.475   0.000  0.00  0.00    +0.000 NA
ATOM      7  O   UNL     1      -0.715   1.238   0.000  0.00  0.00    +0.000 OA
BRANCH   6   8
ATOM      8  C   UNL     1      -2.143   2.062   0.000  0.00  0.00    +0.000 C 
BRANCH   8   9
ATOM      9  C   UNL     1      -2.858   2.475   0.000  0.00  0.00    +0.000 C 
ATOM     10  N   UNL     1      -3.572   2.062   0.000  0.00  0.00    +0.000 NA
ATOM     11  O   UNL     1      -2.858   3.300   0.000  0.00  0.00    +0.000 OA
BRANCH  10  12
ATOM     12  C   UNL     1      -4.287   2.475   0.000  0.00  0.00    +0.000 C 
BRANCH  12  15
ATOM     13  C   UNL     1      -3.572   3.712   0.000  0.00  0.00    +0.000 C 
ATOM     14  C   UNL     1      -5.001   3.712   0.000  0.00  0.00    +0.000 C 
ATOM     15  C   UNL     1      -4.287   3.300   0.000  0.00  0.00    +0.000 C 
ENDBRANCH  12  15
BRANCH  12  16
ATOM     16  C   UNL     1      -5.001   2.062   0.000  0.00  0.00    +0.000 C 
ATOM     17  O   UNL     1      -5.001   1.238   0.000  0.00  0.00    +0.000 OA
BRANCH  16  19
ATOM     18  C   UNL     1      -6.430   2.062   0.000  0.00  0.00    +0.000 C 
ATOM     19  O   UNL     1      -5.716   2.475   0.000  0.00  0.00    +0.000 OA
ENDBRANCH  16  19
ENDBRANCH  12  16
ENDBRANCH  10  12
ENDBRANCH   8   9
BRANCH   8  22
ATOM     20  C   UNL     1      -1.429   0.825   0.000  0.00  0.00    +0.000 C 
ATOM     21  C   UNL     1      -2.858   0.825   0.000  0.00  0.00    +0.000 C 
ATOM     22  C   UNL     1      -2.143   1.238   0.000  0.00  0.00    +0.000 C 
ENDBRANCH   8  22
ENDBRANCH   6   8
ENDBRANCH   4   5
ENDBRANCH   3   4
ENDBRANCH   1   3
BRANCH   1  23
ATOM     23  C   UNL     1       2.143   2.062   0.000  0.00  0.00    +0.000 C 
BRANCH  23  25
ATOM     24  C   UNL     1       3.572   2.062   0.000  0.00  0.00    +0.000 C 
ATOM     25  N   UNL     1       2.858   2.475   0.000  0.00  0.00    +0.000 NA
ATOM     26  O   UNL     1       3.572   1.238   0.000  0.00  0.00    +0.000 OA
BRANCH  24  28
ATOM     27  C   UNL     1       4.287   3.300   0.000  0.00  0.00    +0.000 C 
ATOM     28  C   UNL     1       4.287   2.475   0.000  0.00  0.00    +0.000 C 
BRANCH  28  30
ATOM     29  C   UNL     1       5.716   2.475   0.000  0.00  0.00    +0.000 C 
ATOM     30  N   UNL     1       5.001   2.062   0.000  0.00  0.00    +0.000 NA
ATOM     31  O   UNL     1       5.716   3.300   0.000  0.00  0.00    +0.000 OA
BRANCH  29  33
ATOM     32  C   UNL     1       7.145   2.475   0.000  0.00  0.00    +0.000 C 
ATOM     33  C   UNL     1       6.430   2.062   0.000  0.00  0.00    +0.000 C 
ATOM     34  N   UNL     1       6.430   1.238   0.000  0.00  0.00    +0.000 NA
ENDBRANCH  29  33
ENDBRANCH  28  30
ENDBRANCH  24  28
ENDBRANCH  23  25
BRANCH  23  35
ATOM     35  C   UNL     1       2.143   1.238   0.000  0.00  0.00    +0.000 C 
BRANCH  35  41
ATOM     36  C   UNL     1       0.000   0.000   0.000  0.00  0.00    +0.000 A 
ATOM     37  C   UNL     1       0.715  -0.412   0.000  0.00  0.00    +0.000 A 
ATOM     38  C   UNL     1       0.000   0.825   0.000  0.00  0.00    +0.000 A 
ATOM     39  C   UNL     1       1.429   0.000   0.000  0.00  0.00    +0.000 A 
ATOM     40  C   UNL     1       0.715   1.238   0.000  0.00  0.00    +0.000 A 
ATOM     41  C   UNL     1       1.429   0.825   0.000  0.00  0.00    +0.000 A 
ENDBRANCH  35  41
ENDBRANCH  23  35
ENDBRANCH   1  23
TORSDOF 17
