REMARK  Name = 
REMARK  4 active torsions:
REMARK  status: ('A' for Active; 'I' for Inactive)
REMARK    1  A    between atoms: O_1  and  C_2
REMARK    2  A    between atoms: O_1  and  P_8
REMARK    3  A    between atoms: C_2  and  C_3
REMARK    4  A    between atoms: C_3  and  C_4
REMARK                            x       y       z     vdW  Elec       q    Type
REMARK                         _______ _______ _______ _____ _____    ______ ____
ROOT
ATOM      1  C   UNL     1       8.058  -3.935   0.000  0.00  0.00    +0.000 C 
ENDROOT
BRANCH   1   2
ATOM      2  C   UNL     1       7.345  -4.349   0.000  0.00  0.00    +0.000 C 
ATOM      3  O   UNL     1       7.345  -5.177   0.000  0.00  0.00    +0.000 OA
BRANCH   2   4
ATOM      4  C   UNL     1       6.631  -3.935   0.000  0.00  0.00    +0.000 C 
ATOM      5  O   UNL     1       5.914  -4.349   0.000  0.00  0.00    +0.000 OA
ATOM      6  O   UNL     1       6.631  -3.110   0.000  0.00  0.00    +0.000 OA
ENDBRANCH   2   4
ENDBRANCH   1   2
BRANCH   1   7
ATOM      7  O   UNL     1       8.775  -4.349   0.000  0.00  0.00    +0.000 OA
BRANCH   7   8
ATOM      8  P   UNL     1       9.490  -3.937   0.000  0.00  0.00    +0.000 P 
ATOM      9  O   UNL     1      10.204  -4.349   0.000  0.00  0.00    +0.000 OA
ATOM     10  O   UNL     1       9.490  -3.111   0.000  0.00  0.00    +0.000 OA
ATOM     11  O   UNL     1       9.490  -4.761   0.000  0.00  0.00    +0.000 OA
ENDBRANCH   7   8
ENDBRANCH   1   7
TORSDOF 4
