REMARK  Name = 
REMARK  4 active torsions:
REMARK  status: ('A' for Active; 'I' for Inactive)
REMARK    1  A    between atoms: C_3  and  O_10
REMARK    2  A    between atoms: O_8  and  P_11
REMARK    3  A    between atoms: O_9  and  P_11
REMARK    4  A    between atoms: O_10  and  P_11
REMARK                            x       y       z     vdW  Elec       q    Type
REMARK                         _______ _______ _______ _____ _____    ______ ____
ROOT
ATOM      1  O   UNL     1       2.254   0.825   0.000  0.00  0.00    +0.000 OA
ATOM      2  P   UNL     1       1.540   0.412   0.000  0.00  0.00    +0.000 P 
ENDROOT
BRANCH   2   4
ATOM      3  C   UNL     1       2.777  -0.302   0.000  0.00  0.00    +0.000 C 
ATOM      4  O   UNL     1       1.952  -0.302   0.000  0.00  0.00    +0.000 OA
ENDBRANCH   2   4
BRANCH   2   6
ATOM      5  C   UNL     1       0.111   0.412   0.000  0.00  0.00    +0.000 C 
ATOM      6  O   UNL     1       0.825   0.000   0.000  0.00  0.00    +0.000 OA
ENDBRANCH   2   6
BRANCH   2   7
ATOM      7  O   UNL     1       1.127   1.127   0.000  0.00  0.00    +0.000 OA
BRANCH   7   8
ATOM      8  C   UNL     1       0.302   1.127   0.000  0.00  0.00    +0.000 C 
ATOM      9  C   UNL     1      -0.111   1.841   0.000  0.00  0.00    +0.000 C 
ATOM     10 CL   UNL     1      -0.935   1.841   0.000  0.00  0.00    +0.000 Cl
ATOM     11 CL   UNL     1       0.302   2.556   0.000  0.00  0.00    +0.000 Cl
ENDBRANCH   7   8
ENDBRANCH   2   7
TORSDOF 4
