REMARK  Name = 
REMARK  7 active torsions:
REMARK  status: ('A' for Active; 'I' for Inactive)
REMARK    1  A    between atoms: N_2  and  C_3
REMARK    2  A    between atoms: N_2  and  C_6
REMARK    3  A    between atoms: C_3  and  C_4
REMARK    4  A    between atoms: C_6  and  C_7
REMARK    5  A    between atoms: C_10  and  C_13
REMARK    6  A    between atoms: C_16  and  C_19
REMARK    7  A    between atoms: C_19  and  C_21
REMARK                            x       y       z     vdW  Elec       q    Type
REMARK                         _______ _______ _______ _____ _____    ______ ____
ROOT
ATOM      1  C   UNL     1      -0.715  -7.013   0.000  0.00  0.00    +0.000 A 
ATOM      2  C   UNL     1       0.000  -6.600   0.000  0.00  0.00    +0.000 A 
ATOM      3  C   UNL     1       0.715  -7.013   0.000  0.00  0.00    +0.000 A 
ATOM      4  C   UNL     1       0.715  -7.838   0.000  0.00  0.00    +0.000 A 
ATOM      5  C   UNL     1       0.000  -8.250   0.000  0.00  0.00    +0.000 A 
ATOM      6  C   UNL     1      -0.715  -7.838   0.000  0.00  0.00    +0.000 A 
ENDROOT
BRANCH   1  10
ATOM      7  C   UNL     1      -2.858  -5.775   0.000  0.00  0.00    +0.000 A 
ATOM      8  C   UNL     1      -2.143  -5.362   0.000  0.00  0.00    +0.000 A 
ATOM      9  C   UNL     1      -1.429  -5.775   0.000  0.00  0.00    +0.000 A 
ATOM     10  C   UNL     1      -1.429  -6.600   0.000  0.00  0.00    +0.000 A 
ATOM     11  C   UNL     1      -2.143  -7.013   0.000  0.00  0.00    +0.000 A 
ATOM     12  C   UNL     1      -2.858  -6.600   0.000  0.00  0.00    +0.000 A 
BRANCH   7  13
ATOM     13  C   UNL     1      -3.572  -5.362   0.000  0.00  0.00    +0.000 C 
BRANCH  13  15
ATOM     14  C   UNL     1      -4.287  -6.600   0.000  0.00  0.00    +0.000 C 
ATOM     15  N   UNL     1      -4.287  -5.775   0.000  0.00  0.00    +0.000 NA
BRANCH  15  16
ATOM     16  C   UNL     1      -5.001  -5.362   0.000  0.00  0.00    +0.000 C 
BRANCH  16  17
ATOM     17  C   UNL     1      -5.716  -5.775   0.000  0.00  0.00    +0.000 C 
ATOM     18  C   UNL     1      -6.430  -5.362   0.000  0.00  0.00    +0.000 C 
ENDBRANCH  16  17
ENDBRANCH  15  16
ENDBRANCH  13  15
ENDBRANCH   7  13
ENDBRANCH   1  10
BRANCH   4  19
ATOM     19  C   UNL     1       1.429  -8.250   0.000  0.00  0.00    +0.000 C 
ATOM     20  O   UNL     1       1.429  -9.075   0.000  0.00  0.00    +0.000 OA
BRANCH  19  21
ATOM     21  C   UNL     1       2.143  -7.838   0.000  0.00  0.00    +0.000 A 
ATOM     22  C   UNL     1       2.143  -7.013   0.000  0.00  0.00    +0.000 A 
ATOM     23  C   UNL     1       2.858  -6.600   0.000  0.00  0.00    +0.000 A 
ATOM     24  C   UNL     1       3.572  -7.013   0.000  0.00  0.00    +0.000 A 
ATOM     25 BR   UNL     1       4.287  -6.600   0.000  0.00  0.00    +0.000 Br
ATOM     26  C   UNL     1       3.572  -7.838   0.000  0.00  0.00    +0.000 A 
ATOM     27  C   UNL     1       2.858  -8.250   0.000  0.00  0.00    +0.000 A 
ENDBRANCH  19  21
ENDBRANCH   4  19
TORSDOF 7
