REMARK  Name = 
REMARK  3 active torsions:
REMARK  status: ('A' for Active; 'I' for Inactive)
REMARK    1  A    between atoms: N_2  and  C_4
REMARK    2  A    between atoms: C_7  and  C_10
REMARK    3  A    between atoms: C_10  and  C_11
REMARK                            x       y       z     vdW  Elec       q    Type
REMARK                         _______ _______ _______ _____ _____    ______ ____
ROOT
ATOM      1  C   UNL     1       2.143  -3.712   0.000  0.00  0.00    +0.000 C 
ATOM      2  C   UNL     1       1.429  -4.125   0.000  0.00  0.00    +0.000 C 
ATOM      3  C   UNL     1       1.429  -4.950   0.000  0.00  0.00    +0.000 C 
ATOM      4  C   UNL     1       0.715  -5.362   0.000  0.00  0.00    +0.000 C 
ATOM      5  C   UNL     1       0.000  -4.950   0.000  0.00  0.00    +0.000 C 
ATOM      6  C   UNL     1       0.000  -4.125   0.000  0.00  0.00    +0.000 C 
ATOM      7  C   UNL     1       0.715  -3.712   0.000  0.00  0.00    +0.000 C 
ATOM      8  N   UNL     1      -0.715  -5.362   0.000  0.00  0.00    +0.000 N 
ATOM      9  C   UNL     1      -1.429  -4.950   0.000  0.00  0.00    +0.000 C 
ATOM     10  C   UNL     1      -0.715  -6.188   0.000  0.00  0.00    +0.000 C 
ENDROOT
BRANCH   1  14
ATOM     11  C   UNL     1       2.143  -1.238   0.000  0.00  0.00    +0.000 A 
ATOM     12  C   UNL     1       2.858  -1.650   0.000  0.00  0.00    +0.000 A 
ATOM     13  C   UNL     1       2.858  -2.475   0.000  0.00  0.00    +0.000 A 
ATOM     14  C   UNL     1       2.143  -2.888   0.000  0.00  0.00    +0.000 A 
ATOM     15  C   UNL     1       1.429  -2.475   0.000  0.00  0.00    +0.000 A 
ATOM     16  C   UNL     1       1.429  -1.650   0.000  0.00  0.00    +0.000 A 
BRANCH  11  18
ATOM     17  C   UNL     1       1.429   0.000   0.000  0.00  0.00    +0.000 C 
ATOM     18  N   UNL     1       2.143  -0.412   0.000  0.00  0.00    +0.000 N 
ATOM     19  C   UNL     1       2.858   0.000   0.000  0.00  0.00    +0.000 C 
ENDBRANCH  11  18
ENDBRANCH   1  14
BRANCH   1  20
ATOM     20  C   UNL     1       2.858  -4.125   0.000  0.00  0.00    +0.000 A 
ATOM     21  C   UNL     1       3.572  -3.712   0.000  0.00  0.00    +0.000 A 
ATOM     22  C   UNL     1       4.287  -4.125   0.000  0.00  0.00    +0.000 A 
ATOM     23  C   UNL     1       4.287  -4.950   0.000  0.00  0.00    +0.000 A 
ATOM     24  C   UNL     1       3.572  -5.362   0.000  0.00  0.00    +0.000 A 
ATOM     25  C   UNL     1       2.858  -4.950   0.000  0.00  0.00    +0.000 A 
ENDBRANCH   1  20
TORSDOF 3
