REMARK  Name = 
REMARK  1 active torsions:
REMARK  status: ('A' for Active; 'I' for Inactive)
REMARK    1  A    between atoms: C_2  and  SI_3
REMARK                            x       y       z     vdW  Elec       q    Type
REMARK                         _______ _______ _______ _____ _____    ______ ____
ROOT
ATOM      1 SI   UNL     1       0.825   0.000   0.000  0.00  0.00    +0.000 Si
ATOM      2  C   UNL     1       0.825   0.825   0.000  0.00  0.00    +0.000 C 
ATOM      3  C   UNL     1       1.650   0.000   0.000  0.00  0.00    +0.000 C 
ATOM      4  C   UNL     1       0.000   0.000   0.000  0.00  0.00    +0.000 C 
ENDROOT
BRANCH   1   6
ATOM      5  C   UNL     1       0.111  -1.238   0.000  0.00  0.00    +0.000 C 
ATOM      6  C   UNL     1       0.825  -0.825   0.000  0.00  0.00    +0.000 C 
ENDBRANCH   1   6
TORSDOF 1
