REMARK  Name = 
REMARK  3 active torsions:
REMARK  status: ('A' for Active; 'I' for Inactive)
REMARK    1  A    between atoms: N_5  and  C_6
REMARK    2  A    between atoms: C_6  and  C_7
REMARK    3  A    between atoms: C_7  and  C_8
REMARK                            x       y       z     vdW  Elec       q    Type
REMARK                         _______ _______ _______ _____ _____    ______ ____
ROOT
ATOM      1  N   UNL     1       1.238  -0.715   0.000  0.00  0.00    +0.000 NA
ATOM      2  C   UNL     1       0.825   0.000   0.000  0.00  0.00    +0.000 C 
ATOM      3  N   UNL     1       1.238   0.715   0.000  0.00  0.00    +0.000 NA
ATOM      4  O   UNL     1       2.062   0.715   0.000  0.00  0.00    +0.000 OA
ATOM      5  N   UNL     1       0.000   0.000   0.000  0.00  0.00    +0.000 NA
ENDROOT
BRANCH   5   6
ATOM      6  C   UNL     1      -0.412  -0.715   0.000  0.00  0.00    +0.000 C 
BRANCH   6   7
ATOM      7  C   UNL     1       0.000  -1.429   0.000  0.00  0.00    +0.000 C 
BRANCH   7   8
ATOM      8  C   UNL     1      -0.412  -2.143   0.000  0.00  0.00    +0.000 C 
ATOM      9  N   UNL     1       0.000  -2.858   0.000  0.00  0.00    +0.000 NA
ENDBRANCH   7   8
ENDBRANCH   6   7
ENDBRANCH   5   6
TORSDOF 3
