REMARK  Name = 
REMARK  2 active torsions:
REMARK  status: ('A' for Active; 'I' for Inactive)
REMARK    1  A    between atoms: C_2  and  C_7
REMARK    2  A    between atoms: C_4  and  C_11
REMARK                            x       y       z     vdW  Elec       q    Type
REMARK                         _______ _______ _______ _____ _____    ______ ____
ROOT
ATOM      1  C   UNL     1       0.715  -0.412   0.000  0.00  0.00    +0.000 A 
ATOM      2  C   UNL     1       0.715   0.412   0.000  0.00  0.00    +0.000 A 
ATOM      3  N   UNL     1       0.000  -0.825   0.000  0.00  0.00    +0.000 NA
ATOM      4  C   UNL     1       0.000   0.825   0.000  0.00  0.00    +0.000 A 
ATOM      5  C   UNL     1      -0.715   0.412   0.000  0.00  0.00    +0.000 A 
ATOM      6  C   UNL     1      -0.715  -0.412   0.000  0.00  0.00    +0.000 A 
ATOM      7  C   UNL     1      -1.429  -0.825   0.000  0.00  0.00    +0.000 C 
ATOM      8  O   UNL     1      -1.429   0.825   0.000  0.00  0.00    +0.000 OA
ENDROOT
BRANCH   2   9
ATOM      9  C   UNL     1       1.429   0.825   0.000  0.00  0.00    +0.000 C 
ATOM     10  O   UNL     1       2.143   0.412   0.000  0.00  0.00    +0.000 OA
ENDBRANCH   2   9
BRANCH   4  11
ATOM     11  C   UNL     1       0.000   1.650   0.000  0.00  0.00    +0.000 C 
ATOM     12  O   UNL     1      -0.715   2.062   0.000  0.00  0.00    +0.000 OA
ENDBRANCH   4  11
TORSDOF 2
