REMARK  Name = 
REMARK  4 active torsions:
REMARK  status: ('A' for Active; 'I' for Inactive)
REMARK    1  A    between atoms: C_3  and  S_18
REMARK    2  A    between atoms: C_5  and  N_9
REMARK    3  A    between atoms: C_12  and  N_14
REMARK    4  A    between atoms: N_14  and  C_15
REMARK                            x       y       z     vdW  Elec       q    Type
REMARK                         _______ _______ _______ _____ _____    ______ ____
ROOT
ATOM      1  N   UNL     1       6.690 -20.549   0.000  0.00  0.00    +0.000 NA
ATOM      2  C   UNL     1       6.690 -21.374   0.000  0.00  0.00    +0.000 A 
ATOM      3  N   UNL     1       5.976 -21.787   0.000  0.00  0.00    +0.000 NA
ATOM      4  C   UNL     1       7.405 -20.137   0.000  0.00  0.00    +0.000 A 
ATOM      5  C   UNL     1       8.119 -20.549   0.000  0.00  0.00    +0.000 A 
ATOM      6  C   UNL     1       8.119 -21.374   0.000  0.00  0.00    +0.000 A 
ATOM      7  N   UNL     1       7.405 -21.787   0.000  0.00  0.00    +0.000 NA
ENDROOT
BRANCH   3  12
ATOM      8  C   UNL     1       4.547 -20.137   0.000  0.00  0.00    +0.000 A 
ATOM      9  C   UNL     1       3.833 -20.549   0.000  0.00  0.00    +0.000 A 
ATOM     10  C   UNL     1       3.833 -21.374   0.000  0.00  0.00    +0.000 A 
ATOM     11  C   UNL     1       4.547 -21.787   0.000  0.00  0.00    +0.000 A 
ATOM     12  C   UNL     1       5.261 -21.374   0.000  0.00  0.00    +0.000 A 
ATOM     13  C   UNL     1       5.261 -20.549   0.000  0.00  0.00    +0.000 A 
ATOM     14  C   UNL     1       3.118 -20.137   0.000  0.00  0.00    +0.000 C 
BRANCH  10  15
ATOM     15  S   UNL     1       3.118 -21.787   0.000  0.00  0.00    +0.000 S 
ATOM     16  N   UNL     1       2.398 -21.365   0.000  0.00  0.00    +0.000 NA
ATOM     17  O   UNL     1       2.703 -22.500   0.000  0.00  0.00    +0.000 OA
ATOM     18  O   UNL     1       3.528 -22.502   0.000  0.00  0.00    +0.000 OA
ENDBRANCH  10  15
ENDBRANCH   3  12
BRANCH   6  19
ATOM     19  N   UNL     1       8.836 -21.788   0.000  0.00  0.00    +0.000 N 
ATOM     20  C   UNL     1       9.549 -21.376   0.000  0.00  0.00    +0.000 C 
BRANCH  19  21
ATOM     21  C   UNL     1       8.836 -22.603   0.000  0.00  0.00    +0.000 A 
ATOM     22  C   UNL     1       8.117 -23.019   0.000  0.00  0.00    +0.000 A 
ATOM     23  C   UNL     1       8.117 -23.844   0.000  0.00  0.00    +0.000 A 
ATOM     24  C   UNL     1       8.831 -24.256   0.000  0.00  0.00    +0.000 A 
ATOM     25  C   UNL     1       9.551 -23.840   0.000  0.00  0.00    +0.000 A 
ATOM     26  C   UNL     1       9.551 -23.015   0.000  0.00  0.00    +0.000 A 
ATOM     27  C   UNL     1       9.004 -25.069   0.000  0.00  0.00    +0.000 A 
ATOM     28  N   UNL     1       9.831 -25.156   0.000  0.00  0.00    +0.000 N 
ATOM     29  N   UNL     1      10.169 -24.396   0.000  0.00  0.00    +0.000 NA
ATOM     30  C   UNL     1      10.242 -25.868   0.000  0.00  0.00    +0.000 C 
ATOM     31  C   UNL     1       8.460 -25.674   0.000  0.00  0.00    +0.000 C 
ENDBRANCH  19  21
ENDBRANCH   6  19
TORSDOF 4
