REMARK  Name = 
REMARK  23 active torsions:
REMARK  status: ('A' for Active; 'I' for Inactive)
REMARK    1  A    between atoms: O_2  and  C_3
REMARK    2  A    between atoms: C_5  and  C_6
REMARK    3  A    between atoms: C_7  and  C_8
REMARK    4  A    between atoms: C_8  and  S_10
REMARK    5  A    between atoms: S_10  and  C_11
REMARK    6  A    between atoms: C_11  and  C_12
REMARK    7  A    between atoms: C_12  and  N_13
REMARK    8  A    between atoms: C_14  and  C_16
REMARK    9  A    between atoms: C_16  and  C_17
REMARK   10  A    between atoms: C_17  and  N_18
REMARK   11  A    between atoms: C_19  and  C_21
REMARK   12  A    between atoms: C_21  and  C_23
REMARK   13  A    between atoms: C_23  and  C_26
REMARK   14  A    between atoms: C_26  and  O_27
REMARK   15  A    between atoms: O_27  and  P_28
REMARK   16  A    between atoms: P_28  and  O_31
REMARK   17  A    between atoms: O_31  and  P_32
REMARK   18  A    between atoms: P_32  and  O_35
REMARK   19  A    between atoms: O_35  and  C_36
REMARK   20  A    between atoms: C_36  and  C_37
REMARK   21  A    between atoms: C_39  and  N_48
REMARK   22  A    between atoms: C_42  and  O_43
REMARK   23  A    between atoms: O_43  and  P_44
REMARK                            x       y       z     vdW  Elec       q    Type
REMARK                         _______ _______ _______ _____ _____    ______ ____
ROOT
ATOM      1  C   UNL     1      26.243   1.584   0.000  0.00  0.00    +0.000 C 
ENDROOT
BRANCH   1   2
ATOM      2  C   UNL     1      25.503   1.218   0.000  0.00  0.00    +0.000 C 
ATOM      3  C   UNL     1      25.869   0.478   0.000  0.00  0.00    +0.000 C 
ATOM      4  C   UNL     1      25.138   1.957   0.000  0.00  0.00    +0.000 C 
BRANCH   2   5
ATOM      5  C   UNL     1      24.764   0.852   0.000  0.00  0.00    +0.000 C 
ATOM      6  O   UNL     1      24.711   0.029   0.000  0.00  0.00    +0.000 OA
BRANCH   5   8
ATOM      7  N   UNL     1      23.338   0.943   0.000  0.00  0.00    +0.000 NA
ATOM      8  C   UNL     1      24.078   1.309   0.000  0.00  0.00    +0.000 C 
ATOM      9  O   UNL     1      24.130   2.132   0.000  0.00  0.00    +0.000 OA
BRANCH   7  10
ATOM     10  C   UNL     1      22.651   1.401   0.000  0.00  0.00    +0.000 C 
BRANCH  10  11
ATOM     11  C   UNL     1      21.912   1.035   0.000  0.00  0.00    +0.000 C 
BRANCH  11  13
ATOM     12  N   UNL     1      20.486   1.126   0.000  0.00  0.00    +0.000 NA
ATOM     13  C   UNL     1      21.226   1.492   0.000  0.00  0.00    +0.000 C 
ATOM     14  O   UNL     1      21.278   2.315   0.000  0.00  0.00    +0.000 OA
BRANCH  12  15
ATOM     15  C   UNL     1      19.799   1.584   0.000  0.00  0.00    +0.000 C 
BRANCH  15  16
ATOM     16  C   UNL     1      19.060   1.218   0.000  0.00  0.00    +0.000 C 
BRANCH  16  17
ATOM     17  S   UNL     1      18.373   1.675   0.000  0.00  0.00    +0.000 S 
BRANCH  17  18
ATOM     18  C   UNL     1      17.634   1.309   0.000  0.00  0.00    +0.000 C 
ATOM     19  O   UNL     1      17.581   0.486   0.000  0.00  0.00    +0.000 OA
BRANCH  18  21
ATOM     20  C   UNL     1      17.000   2.590   0.000  0.00  0.00    +0.000 C 
ATOM     21  C   UNL     1      16.947   1.767   0.000  0.00  0.00    +0.000 C 
BRANCH  20  24
ATOM     22  C   UNL     1      15.680   4.328   0.000  0.00  0.00    +0.000 A 
ATOM     23  C   UNL     1      16.366   3.871   0.000  0.00  0.00    +0.000 A 
ATOM     24  C   UNL     1      16.314   3.047   0.000  0.00  0.00    +0.000 A 
ATOM     25  C   UNL     1      15.574   2.681   0.000  0.00  0.00    +0.000 A 
ATOM     26  C   UNL     1      14.888   3.139   0.000  0.00  0.00    +0.000 A 
ATOM     27  O   UNL     1      14.148   2.773   0.000  0.00  0.00    +0.000 OA
ATOM     28  C   UNL     1      14.941   3.962   0.000  0.00  0.00    +0.000 A 
ATOM     29  O   UNL     1      14.254   4.419   0.000  0.00  0.00    +0.000 OA
BRANCH  22  31
ATOM     30  C   UNL     1      15.046   5.609   0.000  0.00  0.00    +0.000 C 
ATOM     31  O   UNL     1      15.733   5.151   0.000  0.00  0.00    +0.000 OA
ENDBRANCH  22  31
ENDBRANCH  20  24
ENDBRANCH  18  21
ENDBRANCH  17  18
ENDBRANCH  16  17
ENDBRANCH  15  16
ENDBRANCH  12  15
ENDBRANCH  11  13
ENDBRANCH  10  11
ENDBRANCH   7  10
ENDBRANCH   5   8
ENDBRANCH   2   5
ENDBRANCH   1   2
BRANCH   1  32
ATOM     32  O   UNL     1      26.930   1.126   0.000  0.00  0.00    +0.000 OA
BRANCH  32  33
ATOM     33  P   UNL     1      27.669   1.492   0.000  0.00  0.00    +0.000 P 
ATOM     34  O   UNL     1      28.035   0.753   0.000  0.00  0.00    +0.000 OA
ATOM     35  O   UNL     1      27.303   2.232   0.000  0.00  0.00    +0.000 OA
BRANCH  33  36
ATOM     36  O   UNL     1      28.408   1.858   0.000  0.00  0.00    +0.000 OA
BRANCH  36  37
ATOM     37  P   UNL     1      29.095   1.401   0.000  0.00  0.00    +0.000 P 
ATOM     38  O   UNL     1      28.637   0.714   0.000  0.00  0.00    +0.000 OA
ATOM     39  O   UNL     1      29.552   2.087   0.000  0.00  0.00    +0.000 OA
BRANCH  37  40
ATOM     40  O   UNL     1      29.782   0.943   0.000  0.00  0.00    +0.000 OA
BRANCH  40  41
ATOM     41  C   UNL     1      30.521   1.309   0.000  0.00  0.00    +0.000 C 
BRANCH  41  42
ATOM     42  C   UNL     1      31.207   0.852   0.000  0.00  0.00    +0.000 C 
ATOM     43  O   UNL     1      31.981   1.138   0.000  0.00  0.00    +0.000 OA
ATOM     44  C   UNL     1      32.493   0.491   0.000  0.00  0.00    +0.000 C 
ATOM     45  C   UNL     1      32.035  -0.195   0.000  0.00  0.00    +0.000 C 
ATOM     46  O   UNL     1      32.322  -0.969   0.000  0.00  0.00    +0.000 OA
ATOM     47  C   UNL     1      31.241   0.028   0.000  0.00  0.00    +0.000 C 
BRANCH  44  48
ATOM     48  N   UNL     1      33.317   0.525   0.000  0.00  0.00    +0.000 N 
ATOM     49  C   UNL     1      33.775   1.211   0.000  0.00  0.00    +0.000 A 
ATOM     50  N   UNL     1      34.569   0.989   0.000  0.00  0.00    +0.000 NA
ATOM     51  C   UNL     1      34.602   0.164   0.000  0.00  0.00    +0.000 A 
ATOM     52  C   UNL     1      35.237  -0.362   0.000  0.00  0.00    +0.000 A 
ATOM     53  N   UNL     1      36.011  -0.076   0.000  0.00  0.00    +0.000 NA
ATOM     54  N   UNL     1      35.099  -1.176   0.000  0.00  0.00    +0.000 NA
ATOM     55  C   UNL     1      34.325  -1.462   0.000  0.00  0.00    +0.000 A 
ATOM     56  N   UNL     1      33.690  -0.936   0.000  0.00  0.00    +0.000 NA
ATOM     57  C   UNL     1      33.829  -0.122   0.000  0.00  0.00    +0.000 A 
ENDBRANCH  44  48
BRANCH  47  58
ATOM     58  O   UNL     1      30.594  -0.484   0.000  0.00  0.00    +0.000 OA
BRANCH  58  59
ATOM     59  P   UNL     1      29.827  -0.179   0.000  0.00  0.00    +0.000 P 
ATOM     60  O   UNL     1      30.132   0.587   0.000  0.00  0.00    +0.000 OA
ATOM     61  O   UNL     1      29.523  -0.946   0.000  0.00  0.00    +0.000 OA
ATOM     62  O   UNL     1      29.061   0.125   0.000  0.00  0.00    +0.000 OA
ENDBRANCH  58  59
ENDBRANCH  47  58
ENDBRANCH  41  42
ENDBRANCH  40  41
ENDBRANCH  37  40
ENDBRANCH  36  37
ENDBRANCH  33  36
ENDBRANCH  32  33
ENDBRANCH   1  32
TORSDOF 23
