REMARK  Name = 
REMARK  6 active torsions:
REMARK  status: ('A' for Active; 'I' for Inactive)
REMARK    1  A    between atoms: CA_2  and  C_3
REMARK    2  A    between atoms: CA_2  and  C_11
REMARK    3  A    between atoms: C_3  and  C_4
REMARK    4  A    between atoms: C_4  and  O_6
REMARK    5  A    between atoms: O_6  and  C_7
REMARK    6  A    between atoms: C_7  and  C_8
REMARK                            x       y       z     vdW  Elec       q    Type
REMARK                         _______ _______ _______ _____ _____    ______ ____
ROOT
ATOM      1  C   UNL     1       5.856   2.556   0.000  0.00  0.00    +0.000 C 
ATOM      2  O   UNL     1       5.856   3.381   0.000  0.00  0.00    +0.000 OA
ENDROOT
BRANCH   1   3
ATOM      3  C   UNL     1       6.570   2.143   0.000  0.00  0.00    +0.000 C 
BRANCH   3   5
ATOM      4  N   UNL     1       7.285   3.381   0.000  0.00  0.00    +0.000 NA
ATOM      5  CA  UNL     1       7.285   2.556   0.000  0.00  0.00    +0.000 C 
BRANCH   5   6
ATOM      6  C   UNL     1       7.999   2.143   0.000  0.00  0.00    +0.000 C 
ATOM      7  O   UNL     1       8.714   2.556   0.000  0.00  0.00    +0.000 OA
ATOM      8  OXT UNL     1       7.999   1.318   0.000  0.00  0.00    +0.000 OA
ENDBRANCH   5   6
ENDBRANCH   3   5
ENDBRANCH   1   3
BRANCH   1   9
ATOM      9  O   UNL     1       5.141   2.143   0.000  0.00  0.00    +0.000 OA
BRANCH   9  10
ATOM     10  C   UNL     1       4.427   2.556   0.000  0.00  0.00    +0.000 C 
BRANCH  10  11
ATOM     11  C   UNL     1       3.712   2.143   0.000  0.00  0.00    +0.000 C 
ATOM     12  O   UNL     1       2.998   2.556   0.000  0.00  0.00    +0.000 OA
ATOM     13  O   UNL     1       3.712   1.318   0.000  0.00  0.00    +0.000 OA
ENDBRANCH  10  11
ENDBRANCH   9  10
ENDBRANCH   1   9
TORSDOF 6
