REMARK  Name = 
REMARK  11 active torsions:
REMARK  status: ('A' for Active; 'I' for Inactive)
REMARK    1  A    between atoms: C_1  and  C_2
REMARK    2  A    between atoms: C_1  and  O_3
REMARK    3  A    between atoms: C_1  and  C_6
REMARK    4  A    between atoms: C_2  and  O_4
REMARK    5  A    between atoms: C_2  and  C_5
REMARK    6  A    between atoms: O_3  and  N_15
REMARK    7  A    between atoms: O_4  and  N_12
REMARK    8  A    between atoms: C_5  and  O_8
REMARK    9  A    between atoms: C_6  and  O_7
REMARK   10  A    between atoms: O_7  and  N_18
REMARK   11  A    between atoms: O_8  and  N_9
REMARK                            x       y       z     vdW  Elec       q    Type
REMARK                         _______ _______ _______ _____ _____    ______ ____
ROOT
ATOM      1  C   UNL     1       8.904 -16.842   0.000  0.00  0.00    +0.000 C 
ENDROOT
BRANCH   1   2
ATOM      2  C   UNL     1       9.647 -17.262   0.000  0.00  0.00    +0.000 C 
BRANCH   2   3
ATOM      3  O   UNL     1      10.357 -16.842   0.000  0.00  0.00    +0.000 OA
BRANCH   3   4
ATOM      4  N   UNL     1      11.067 -17.262   0.000  0.00  0.00    +0.000 N 
ATOM      5  O   UNL     1      11.802 -16.857   0.000  0.00  0.00    +0.000 OA
ATOM      6  O   UNL     1      11.042 -18.086   0.000  0.00  0.00    +0.000 OA
ENDBRANCH   3   4
ENDBRANCH   2   3
ENDBRANCH   1   2
BRANCH   1   7
ATOM      7  O   UNL     1       8.904 -16.035   0.000  0.00  0.00    +0.000 OA
BRANCH   7   8
ATOM      8  N   UNL     1       9.647 -15.615   0.000  0.00  0.00    +0.000 N 
ATOM      9  O   UNL     1      10.357 -16.035   0.000  0.00  0.00    +0.000 OA
ATOM     10  O   UNL     1       9.647 -14.776   0.000  0.00  0.00    +0.000 OA
ENDBRANCH   7   8
ENDBRANCH   1   7
BRANCH   1  11
ATOM     11  C   UNL     1       8.194 -17.262   0.000  0.00  0.00    +0.000 C 
BRANCH  11  12
ATOM     12  C   UNL     1       7.484 -16.842   0.000  0.00  0.00    +0.000 C 
BRANCH  12  13
ATOM     13  O   UNL     1       6.773 -17.262   0.000  0.00  0.00    +0.000 OA
BRANCH  13  14
ATOM     14  N   UNL     1       6.031 -16.842   0.000  0.00  0.00    +0.000 N 
ATOM     15  O   UNL     1       5.339 -17.258   0.000  0.00  0.00    +0.000 OA
ATOM     16  O   UNL     1       6.024 -16.017   0.000  0.00  0.00    +0.000 OA
ENDBRANCH  13  14
ENDBRANCH  12  13
ENDBRANCH  11  12
BRANCH  11  17
ATOM     17  O   UNL     1       8.194 -18.101   0.000  0.00  0.00    +0.000 OA
BRANCH  17  18
ATOM     18  N   UNL     1       7.484 -18.520   0.000  0.00  0.00    +0.000 N 
ATOM     19  O   UNL     1       6.773 -18.101   0.000  0.00  0.00    +0.000 OA
ATOM     20  O   UNL     1       7.484 -19.328   0.000  0.00  0.00    +0.000 OA
ENDBRANCH  17  18
ENDBRANCH  11  17
ENDBRANCH   1  11
TORSDOF 11
