REMARK  Name = 
REMARK  4 active torsions:
REMARK  status: ('A' for Active; 'I' for Inactive)
REMARK    1  A    between atoms: N_4  and  C_5
REMARK    2  A    between atoms: C_9  and  C_10
REMARK    3  A    between atoms: C_10  and  O_11
REMARK    4  A    between atoms: O_11  and  P_12
REMARK                            x       y       z     vdW  Elec       q    Type
REMARK                         _______ _______ _______ _____ _____    ______ ____
ROOT
ATOM      1  C   UNL     1      -1.322   2.290   0.000  0.00  0.00    +0.000 C 
ATOM      2  C   UNL     1      -0.655   1.805   0.000  0.00  0.00    +0.000 C 
ATOM      3  C   UNL     1      -0.910   1.021   0.000  0.00  0.00    +0.000 C 
ATOM      4  O   UNL     1      -0.425   0.353   0.000  0.00  0.00    +0.000 OA
ATOM      5  C   UNL     1      -1.735   1.021   0.000  0.00  0.00    +0.000 C 
ATOM      6  O   UNL     1      -1.990   1.805   0.000  0.00  0.00    +0.000 OA
ENDROOT
BRANCH   1  10
ATOM      7  C   UNL     1       0.107   4.765   0.000  0.00  0.00    +0.000 C 
ATOM      8  C   UNL     1      -0.608   4.353   0.000  0.00  0.00    +0.000 A 
ATOM      9  C   UNL     1      -0.608   3.528   0.000  0.00  0.00    +0.000 A 
ATOM     10  N   UNL     1      -1.322   3.115   0.000  0.00  0.00    +0.000 N 
ATOM     11  C   UNL     1      -2.037   3.528   0.000  0.00  0.00    +0.000 A 
ATOM     12  O   UNL     1      -2.751   3.115   0.000  0.00  0.00    +0.000 OA
ATOM     13  N   UNL     1      -2.037   4.353   0.000  0.00  0.00    +0.000 NA
ATOM     14  C   UNL     1      -1.322   4.765   0.000  0.00  0.00    +0.000 A 
ATOM     15  O   UNL     1      -1.322   5.590   0.000  0.00  0.00    +0.000 OA
ENDBRANCH   1  10
BRANCH   5  16
ATOM     16  C   UNL     1      -2.220   0.353   0.000  0.00  0.00    +0.000 C 
BRANCH  16  17
ATOM     17  O   UNL     1      -1.884  -0.401   0.000  0.00  0.00    +0.000 OA
BRANCH  17  18
ATOM     18  P   UNL     1      -2.369  -1.068   0.000  0.00  0.00    +0.000 P 
ATOM     19  O   UNL     1      -2.854  -1.735   0.000  0.00  0.00    +0.000 OA
ATOM     20  O   UNL     1      -1.702  -1.553   0.000  0.00  0.00    +0.000 OA
ATOM     21  O   UNL     1      -3.037  -0.583   0.000  0.00  0.00    +0.000 OA
ENDBRANCH  17  18
ENDBRANCH  16  17
ENDBRANCH   5  16
TORSDOF 4
