REMARK  Name = 
REMARK  4 active torsions:
REMARK  status: ('A' for Active; 'I' for Inactive)
REMARK    1  A    between atoms: C_3  and  C_5
REMARK    2  A    between atoms: C_5  and  C_6
REMARK    3  A    between atoms: C_6  and  C_7
REMARK    4  A    between atoms: C_7  and  C_9
REMARK                            x       y       z     vdW  Elec       q    Type
REMARK                         _______ _______ _______ _____ _____    ______ ____
ROOT
ATOM      1  C   UNK     1       3.904   1.429   0.000  0.00  0.00    +0.000 C 
ENDROOT
BRANCH   1   2
ATOM      2  C   UNK     1       4.618   1.841   0.000  0.00  0.00    +0.000 C 
ATOM      3  N   UNK     1       4.618   2.666   0.000  0.00  0.00    +0.000 NA
BRANCH   2   4
ATOM      4  C   UNK     1       5.333   1.429   0.000  0.00  0.00    +0.000 C 
ATOM      5  O   UNK     1       6.047   1.841   0.000  0.00  0.00    +0.000 OA
ATOM      6  O   UNK     1       5.333   0.604   0.000  0.00  0.00    +0.000 OA
ENDBRANCH   2   4
ENDBRANCH   1   2
BRANCH   1   7
ATOM      7  C   UNK     1       3.189   1.841   0.000  0.00  0.00    +0.000 C 
BRANCH   7  10
ATOM      8  C   UNK     1       1.046   1.429   0.000  0.00  0.00    +0.000 C 
ATOM      9  N   UNK     1       1.760   1.841   0.000  0.00  0.00    +0.000 NA
ATOM     10  C   UNK     1       2.475   1.429   0.000  0.00  0.00    +0.000 C 
ATOM     11  O   UNK     1       2.475   0.604   0.000  0.00  0.00    +0.000 OA
ENDBRANCH   7  10
ENDBRANCH   1   7
TORSDOF 4
