REMARK  Name = 
REMARK  5 active torsions:
REMARK  status: ('A' for Active; 'I' for Inactive)
REMARK    1  A    between atoms: C_2  and  O_10
REMARK    2  A    between atoms: O_10  and  C_11
REMARK    3  A    between atoms: C_11  and  C_12
REMARK    4  A    between atoms: C_12  and  C_15
REMARK    5  A    between atoms: C_12  and  C_16
REMARK                            x       y       z     vdW  Elec       q    Type
REMARK                         _______ _______ _______ _____ _____    ______ ____
ROOT
ATOM      1  C   UNL     1       6.980  -2.926   0.000  0.00  0.00    +0.000 C 
ATOM      2  O   UNL     1       7.696  -3.336   0.000  0.00  0.00    +0.000 OA
ENDROOT
BRANCH   1   3
ATOM      3  C   UNL     1       6.397  -2.342   0.000  0.00  0.00    +0.000 A 
ATOM      4  C   UNL     1       5.600  -2.556   0.000  0.00  0.00    +0.000 A 
ATOM      5  C   UNL     1       5.016  -1.972   0.000  0.00  0.00    +0.000 A 
ATOM      6  C   UNL     1       5.230  -1.175   0.000  0.00  0.00    +0.000 A 
ATOM      7  C   UNL     1       6.610  -1.545   0.000  0.00  0.00    +0.000 A 
ATOM      8  C   UNL     1       6.027  -0.962   0.000  0.00  0.00    +0.000 A 
ENDBRANCH   1   3
BRANCH   1   9
ATOM      9  C   UNL     1       7.563  -2.342   0.000  0.00  0.00    +0.000 A 
ATOM     10  C   UNL     1       8.360  -2.556   0.000  0.00  0.00    +0.000 A 
ATOM     11  C   UNL     1       8.944  -1.972   0.000  0.00  0.00    +0.000 A 
ATOM     12  C   UNL     1       7.350  -1.545   0.000  0.00  0.00    +0.000 A 
ATOM     13  C   UNL     1       8.730  -1.175   0.000  0.00  0.00    +0.000 A 
ATOM     14  C   UNL     1       7.933  -0.962   0.000  0.00  0.00    +0.000 A 
ENDBRANCH   1   9
BRANCH   1  15
ATOM     15  C   UNL     1       6.267  -3.340   0.000  0.00  0.00    +0.000 C 
ATOM     16  O   UNL     1       6.269  -4.165   0.000  0.00  0.00    +0.000 OA
BRANCH  15  17
ATOM     17  O   UNL     1       5.551  -2.930   0.000  0.00  0.00    +0.000 OA
BRANCH  17  19
ATOM     18  N   UNL     1       4.121  -4.581   0.000  0.00  0.00    +0.000 N 
ATOM     19  C   UNL     1       4.838  -3.345   0.000  0.00  0.00    +0.000 C 
ATOM     20  C   UNL     1       4.838  -4.173   0.000  0.00  0.00    +0.000 C 
ATOM     21  C   UNL     1       4.121  -2.937   0.000  0.00  0.00    +0.000 C 
ATOM     22  C   UNL     1       3.412  -4.173   0.000  0.00  0.00    +0.000 C 
ATOM     23  C   UNL     1       3.750  -3.876   0.000  0.00  0.00    +0.000 C 
ATOM     24  C   UNL     1       3.412  -3.345   0.000  0.00  0.00    +0.000 C 
ATOM     25  C   UNL     1       4.450  -3.679   0.000  0.00  0.00    +0.000 C 
ATOM     26  C   UNL     1       4.121  -5.335   0.000  0.00  0.00    +0.000 C 
ENDBRANCH  17  19
ENDBRANCH  15  17
ENDBRANCH   1  15
TORSDOF 5
