REMARK  Name = 
REMARK  8 active torsions:
REMARK  status: ('A' for Active; 'I' for Inactive)
REMARK    1  A    between atoms: N_1  and  C_3
REMARK    2  A    between atoms: C_12  and  C_18
REMARK    3  A    between atoms: C_18  and  O_20
REMARK    4  A    between atoms: O_20  and  P_21
REMARK    5  A    between atoms: P_21  and  O_22
REMARK    6  A    between atoms: O_22  and  P_25
REMARK    7  A    between atoms: P_25  and  O_26
REMARK    8  A    between atoms: O_26  and  P_29
REMARK                            x       y       z     vdW  Elec       q    Type
REMARK                         _______ _______ _______ _____ _____    ______ ____
ROOT
ATOM      1  C   UNL     1       1.618   0.288   0.000  0.00  0.00    +0.000 C 
ATOM      2  O   UNL     1       0.942   0.797   0.000  0.00  0.00    +0.000 OA
ATOM      3  C   UNL     1       1.361  -0.454   0.000  0.00  0.00    +0.000 C 
ATOM      4  C   UNL     1       0.288   0.322   0.000  0.00  0.00    +0.000 C 
ATOM      5  C   UNL     1       0.544  -0.454   0.000  0.00  0.00    +0.000 C 
ATOM      6  O   UNL     1       1.839  -1.122   0.000  0.00  0.00    +0.000 OA
ATOM      7  O   UNL     1       0.277  -1.233   0.000  0.00  0.00    +0.000 OA
ENDROOT
BRANCH   1   8
ATOM      8  N   UNL     1       2.383   0.540   0.000  0.00  0.00    +0.000 N 
ATOM      9  C   UNL     1       3.010   0.097   0.000  0.00  0.00    +0.000 A 
ATOM     10  C   UNL     1       2.661   1.365   0.000  0.00  0.00    +0.000 A 
ATOM     11  C   UNL     1       3.741   0.641   0.000  0.00  0.00    +0.000 A 
ATOM     12  N   UNL     1       3.090  -0.745   0.000  0.00  0.00    +0.000 NA
ATOM     13  N   UNL     1       3.520   1.361   0.000  0.00  0.00    +0.000 NA
ATOM     14  C   UNL     1       4.483   0.308   0.000  0.00  0.00    +0.000 A 
ATOM     15  C   UNL     1       3.877  -1.088   0.000  0.00  0.00    +0.000 A 
ATOM     16  N   UNL     1       4.580  -0.572   0.000  0.00  0.00    +0.000 NA
ATOM     17  O   UNL     1       5.138   0.800   0.000  0.00  0.00    +0.000 OA
ATOM     18  N   UNL     1       3.967  -1.909   0.000  0.00  0.00    +0.000 NA
ENDBRANCH   1   8
BRANCH   4  19
ATOM     19  C   UNL     1      -0.495   0.582   0.000  0.00  0.00    +0.000 C 
BRANCH  19  20
ATOM     20  O   UNL     1      -1.112   0.031   0.000  0.00  0.00    +0.000 OA
BRANCH  20  21
ATOM     21  P   UNL     1      -1.940   0.031   0.000  0.00  0.00    +0.000 P 
ATOM     22  O   UNL     1      -1.947  -0.797   0.000  0.00  0.00    +0.000 OA
ATOM     23  O   UNL     1      -1.947   0.859   0.000  0.00  0.00    +0.000 OA
BRANCH  21  24
ATOM     24  O   UNL     1      -2.771   0.031   0.000  0.00  0.00    +0.000 OA
BRANCH  24  25
ATOM     25  P   UNL     1      -3.599   0.035   0.000  0.00  0.00    +0.000 P 
ATOM     26  O   UNL     1      -3.603  -0.793   0.000  0.00  0.00    +0.000 OA
ATOM     27  O   UNL     1      -3.603   0.866   0.000  0.00  0.00    +0.000 OA
BRANCH  25  28
ATOM     28  O   UNL     1      -4.427   0.035   0.000  0.00  0.00    +0.000 OA
BRANCH  28  29
ATOM     29  P   UNL     1      -5.255   0.042   0.000  0.00  0.00    +0.000 P 
ATOM     30  O   UNL     1      -5.262  -0.790   0.000  0.00  0.00    +0.000 OA
ATOM     31  O   UNL     1      -6.087   0.045   0.000  0.00  0.00    +0.000 OA
ATOM     32  O   UNL     1      -5.262   0.870   0.000  0.00  0.00    +0.000 OA
ENDBRANCH  28  29
ENDBRANCH  25  28
ENDBRANCH  24  25
ENDBRANCH  21  24
ENDBRANCH  20  21
ENDBRANCH  19  20
ENDBRANCH   4  19
TORSDOF 8
