REMARK  Name = 
REMARK  3 active torsions:
REMARK  status: ('A' for Active; 'I' for Inactive)
REMARK    1  A    between atoms: C_4  and  C_6
REMARK    2  A    between atoms: C_7  and  C_9
REMARK    3  A    between atoms: C_8  and  C_10
REMARK                            x       y       z     vdW  Elec       q    Type
REMARK                         _______ _______ _______ _____ _____    ______ ____
ROOT
ATOM      1  C   UNK A   0       1.474   1.165   0.000  0.00  0.00    +0.000 C 
ATOM      2  C   UNK A   1       3.328   1.165   0.000  0.00  0.00    +0.000 C 
ATOM      3  C   UNK A   0       1.658   0.360   0.000  0.00  0.00    +0.000 C 
ATOM      4  C   UNK A   1       2.814   1.810   0.000  0.00  0.00    +0.000 C 
ATOM      5  C   UNK A   1       2.401   0.002   0.000  0.00  0.00    +0.000 C 
ATOM      6  N   UNK A   1       1.989   1.810   0.000  0.00  0.00    +0.000 NA
ATOM      7  S   UNK A   1       3.145   0.360   0.000  0.00  0.00    +0.000 S 
ENDROOT
BRANCH   5  10
ATOM      8  C   UNK A   1       3.299  -2.760   0.000  0.00  0.00    +0.000 C 
ATOM      9  C   UNK A   1       3.069  -1.308   0.000  0.00  0.00    +0.000 A 
ATOM     10  C   UNK A   1       2.401  -0.823   0.000  0.00  0.00    +0.000 A 
ATOM     11  N   UNK A   1       1.734  -1.308   0.000  0.00  0.00    +0.000 NA
ATOM     12  N   UNK A   1       1.989  -2.092   0.000  0.00  0.00    +0.000 NA
ATOM     13  N   UNK A   1       2.814  -2.092   0.000  0.00  0.00    +0.000 N 
ENDBRANCH   5  10
BRANCH   4  14
ATOM     14  C   UNK A   1       3.172   2.553   0.000  0.00  0.00    +0.000 C 
ATOM     15  O   UNK A   1       2.707   3.235   0.000  0.00  0.00    +0.000 OA
ATOM     16  O   UNK A   1       3.994   2.615   0.000  0.00  0.00    +0.000 OA
ENDBRANCH   4  14
BRANCH   3  17
ATOM     17  C   UNK A   0       1.013  -0.154   0.000  0.00  0.00    +0.000 C 
ATOM     18  O   UNK A   0       1.136  -0.970   0.000  0.00  0.00    +0.000 OA
ENDBRANCH   3  17
TORSDOF 3
