REMARK  Name = 
REMARK  9 active torsions:
REMARK  status: ('A' for Active; 'I' for Inactive)
REMARK    1  A    between atoms: C_3  and  C_7
REMARK    2  A    between atoms: C_4  and  C_9
REMARK    3  A    between atoms: C_5  and  C_10
REMARK    4  A    between atoms: C_5  and  O_40
REMARK    5  A    between atoms: C_8  and  N_26
REMARK    6  A    between atoms: C_11  and  N_26
REMARK    7  A    between atoms: C_22  and  O_44
REMARK    8  A    between atoms: C_24  and  O_40
REMARK    9  A    between atoms: C_25  and  O_44
REMARK                            x       y       z     vdW  Elec       q    Type
REMARK                         _______ _______ _______ _____ _____    ______ ____
ROOT
ATOM      1  C   UNL     1      -5.716  -9.075   0.000  0.00  0.00    +0.000 C 
ATOM      2  C   UNL     1      -6.430 -10.312   0.000  0.00  0.00    +0.000 C 
ATOM      3  C   UNL     1      -7.145  -9.900   0.000  0.00  0.00    +0.000 C 
ATOM      4  C   UNL     1      -5.716  -9.900   0.000  0.00  0.00    +0.000 C 
ATOM      5  C   UNL     1      -7.145  -9.075   0.000  0.00  0.00    +0.000 C 
ATOM      6  O   UNL     1      -6.430 -11.137   0.000  0.00  0.00    +0.000 OA
ATOM      7  O   UNL     1      -7.859 -10.312   0.000  0.00  0.00    +0.000 OA
ATOM      8  O   UNL     1      -6.430  -8.662   0.000  0.00  0.00    +0.000 OA
ENDROOT
BRANCH   1   9
ATOM      9  C   UNL     1      -5.001  -8.662   0.000  0.00  0.00    +0.000 C 
ATOM     10  O   UNL     1      -5.001  -7.838   0.000  0.00  0.00    +0.000 OA
ENDBRANCH   1   9
BRANCH   5  11
ATOM     11  O   UNL     1      -7.859  -8.662   0.000  0.00  0.00    +0.000 OA
BRANCH  11  12
ATOM     12  C   UNL     1      -8.574  -9.075   0.000  0.00  0.00    +0.000 C 
BRANCH  12  13
ATOM     13  C   UNL     1      -9.288  -8.662   0.000  0.00  0.00    +0.000 C 
ATOM     14  C   UNL     1      -9.288  -7.838   0.000  0.00  0.00    +0.000 C 
ATOM     15  C   UNL     1     -10.003  -7.425   0.000  0.00  0.00    +0.000 C 
ATOM     16  C   UNL     1     -10.717  -7.838   0.000  0.00  0.00    +0.000 C 
ATOM     17  C   UNL     1     -10.717  -8.662   0.000  0.00  0.00    +0.000 C 
ATOM     18  O   UNL     1      -8.574  -7.425   0.000  0.00  0.00    +0.000 OA
ATOM     19  O   UNL     1     -10.003  -6.600   0.000  0.00  0.00    +0.000 OA
ATOM     20  O   UNL     1     -11.431  -7.425   0.000  0.00  0.00    +0.000 OA
ATOM     21  O   UNL     1     -11.431  -9.075   0.000  0.00  0.00    +0.000 OA
ATOM     22  O   UNL     1     -10.003  -9.075   0.000  0.00  0.00    +0.000 OA
ENDBRANCH  12  13
ENDBRANCH  11  12
ENDBRANCH   5  11
BRANCH   4  23
ATOM     23  O   UNL     1      -5.001 -10.312   0.000  0.00  0.00    +0.000 OA
BRANCH  23  29
ATOM     24  C   UNL     1      -3.572  -7.838   0.000  0.00  0.00    +0.000 C 
ATOM     25  C   UNL     1      -3.572  -8.662   0.000  0.00  0.00    +0.000 C 
ATOM     26  C   UNL     1      -2.858  -9.075   0.000  0.00  0.00    +0.000 C 
ATOM     27  C   UNL     1      -2.858  -9.900   0.000  0.00  0.00    +0.000 C 
ATOM     28  C   UNL     1      -3.572 -10.312   0.000  0.00  0.00    +0.000 C 
ATOM     29  C   UNL     1      -4.287  -9.900   0.000  0.00  0.00    +0.000 C 
ATOM     30  O   UNL     1      -2.143 -10.312   0.000  0.00  0.00    +0.000 OA
ATOM     31  O   UNL     1      -3.572 -11.137   0.000  0.00  0.00    +0.000 OA
ATOM     32  O   UNL     1      -4.287  -9.075   0.000  0.00  0.00    +0.000 OA
BRANCH  26  33
ATOM     33  N   UNL     1      -2.143  -8.662   0.000  0.00  0.00    +0.000 NA
BRANCH  33  36
ATOM     34  C   UNL     1      -2.858  -7.425   0.000  0.00  0.00    +0.000 C 
ATOM     35  C   UNL     1      -2.858  -6.600   0.000  0.00  0.00    +0.000 C 
ATOM     36  C   UNL     1      -2.143  -7.838   0.000  0.00  0.00    +0.000 C 
ATOM     37  C   UNL     1      -2.143  -6.188   0.000  0.00  0.00    +0.000 C 
ATOM     38  C   UNL     1      -1.429  -7.425   0.000  0.00  0.00    +0.000 C 
ATOM     39  C   UNL     1      -1.429  -6.600   0.000  0.00  0.00    +0.000 C 
ATOM     40  O   UNL     1      -2.143  -5.362   0.000  0.00  0.00    +0.000 OA
ATOM     41  O   UNL     1      -0.715  -7.838   0.000  0.00  0.00    +0.000 OA
ATOM     42  O   UNL     1      -0.715  -6.188   0.000  0.00  0.00    +0.000 OA
BRANCH  35  43
ATOM     43  C   UNL     1      -3.572  -6.188   0.000  0.00  0.00    +0.000 C 
ATOM     44  O   UNL     1      -3.572  -5.362   0.000  0.00  0.00    +0.000 OA
ENDBRANCH  35  43
ENDBRANCH  33  36
ENDBRANCH  26  33
ENDBRANCH  23  29
ENDBRANCH   4  23
TORSDOF 9
