REMARK  Name = 
REMARK  1 active torsions:
REMARK  status: ('A' for Active; 'I' for Inactive)
REMARK    1  A    between atoms: C_2  and  C_3
REMARK                            x       y       z     vdW  Elec       q    Type
REMARK                         _______ _______ _______ _____ _____    ______ ____
ROOT
ATOM      1  N   UNL     1      10.682  -8.113   0.000  0.00  0.00    +0.000 NA
ATOM      2  C   UNL     1      10.007  -8.584   0.000  0.00  0.00    +0.000 C 
ATOM      3  C   UNL     1      11.350  -8.577   0.000  0.00  0.00    +0.000 C 
ATOM      4  C   UNL     1      10.682  -7.272   0.000  0.00  0.00    +0.000 C 
ATOM      5  C   UNL     1      10.274  -9.369   0.000  0.00  0.00    +0.000 C 
ATOM      6  C   UNL     1      11.108  -9.369   0.000  0.00  0.00    +0.000 C 
ENDROOT
BRANCH   2   7
ATOM      7  C   UNL     1       9.254  -8.246   0.000  0.00  0.00    +0.000 A 
ATOM      8  N   UNL     1       8.547  -7.012   0.000  0.00  0.00    +0.000 NA
ATOM      9  C   UNL     1       9.254  -7.431   0.000  0.00  0.00    +0.000 A 
ATOM     10  C   UNL     1       8.547  -8.655   0.000  0.00  0.00    +0.000 A 
ATOM     11  C   UNL     1       7.833  -7.420   0.000  0.00  0.00    +0.000 A 
ATOM     12  C   UNL     1       7.833  -8.246   0.000  0.00  0.00    +0.000 A 
ENDBRANCH   2   7
TORSDOF 1
