REMARK  Name = 
REMARK  3 active torsions:
REMARK  status: ('A' for Active; 'I' for Inactive)
REMARK    1  A    between atoms: S_2  and  N_5
REMARK    2  A    between atoms: S_2  and  C_9
REMARK    3  A    between atoms: N_5  and  C_15
REMARK                            x       y       z     vdW  Elec       q    Type
REMARK                         _______ _______ _______ _____ _____    ______ ____
ROOT
ATOM      1 AG   UNL     1       1.761   1.778   0.000  0.00  0.00    +0.000 Ag
ENDROOT
TORSDOF 0
REMARK  Name = 
REMARK  3 active torsions:
REMARK  status: ('A' for Active; 'I' for Inactive)
REMARK    1  A    between atoms: S_2  and  N_5
REMARK    2  A    between atoms: S_2  and  C_9
REMARK    3  A    between atoms: N_5  and  C_15
REMARK                            x       y       z     vdW  Elec       q    Type
REMARK                         _______ _______ _______ _____ _____    ______ ____
ROOT
ATOM      1  S   UNL     1       2.475   0.540   0.000  0.00  0.00    +0.000 S 
ATOM      2  O   UNL     1       1.650   0.540   0.000  0.00  0.00    +0.000 OA
ATOM      3  O   UNL     1       3.300   0.540   0.000  0.00  0.00    +0.000 OA
ENDROOT
BRANCH   1   5
ATOM      4  N   UNL     1       2.475  -2.760   0.000  0.00  0.00    +0.000 NA
ATOM      5  C   UNL     1       2.475  -0.285   0.000  0.00  0.00    +0.000 A 
ATOM      6  C   UNL     1       1.761  -0.697   0.000  0.00  0.00    +0.000 A 
ATOM      7  C   UNL     1       3.189  -0.697   0.000  0.00  0.00    +0.000 A 
ATOM      8  C   UNL     1       2.475  -1.935   0.000  0.00  0.00    +0.000 A 
ATOM      9  C   UNL     1       1.761  -1.522   0.000  0.00  0.00    +0.000 A 
ATOM     10  C   UNL     1       3.189  -1.522   0.000  0.00  0.00    +0.000 A 
ENDBRANCH   1   5
BRANCH   1  11
ATOM     11  N   UNL     1       2.475   1.365   0.000  0.00  0.00    +0.000 NA
BRANCH  11  14
ATOM     12  N   UNL     1       3.189   2.603   0.000  0.00  0.00    +0.000 NA
ATOM     13  N   UNL     1       3.904   1.365   0.000  0.00  0.00    +0.000 NA
ATOM     14  C   UNL     1       3.189   1.778   0.000  0.00  0.00    +0.000 A 
ATOM     15  C   UNL     1       3.904   3.015   0.000  0.00  0.00    +0.000 A 
ATOM     16  C   UNL     1       4.619   1.778   0.000  0.00  0.00    +0.000 A 
ATOM     17  C   UNL     1       4.619   2.603   0.000  0.00  0.00    +0.000 A 
ENDBRANCH  11  14
ENDBRANCH   1  11
TORSDOF 3
