REMARK  Name = 
REMARK  3 active torsions:
REMARK  status: ('A' for Active; 'I' for Inactive)
REMARK    1  A    between atoms: C_4  and  C_6
REMARK    2  A    between atoms: C_4  and  C_7
REMARK    3  A    between atoms: C_5  and  C_6
REMARK                            x       y       z     vdW  Elec       q    Type
REMARK                         _______ _______ _______ _____ _____    ______ ____
ROOT
ATOM      1  C   UNL     1       0.238   1.714   0.000  0.00  0.00    +0.000 C 
ENDROOT
BRANCH   1   4
ATOM      2  C   UNL     1      -0.174   0.174   0.000  0.00  0.00    +0.000 C 
ATOM      3  C   UNL     1       0.651   0.174   0.000  0.00  0.00    +0.000 C 
ATOM      4  C   UNL     1       0.238   0.889   0.000  0.00  0.00    +0.000 C 
ENDBRANCH   1   4
BRANCH   1   6
ATOM      5  C   UNL     1      -1.191   1.714   0.000  0.00  0.00    +0.000 C 
ATOM      6  C   UNL     1      -0.476   2.126   0.000  0.00  0.00    +0.000 C 
BRANCH   6   7
ATOM      7  C   UNL     1      -0.476   2.951   0.000  0.00  0.00    +0.000 C 
ATOM      8  O   UNL     1      -1.191   3.364   0.000  0.00  0.00    +0.000 OA
ENDBRANCH   6   7
ENDBRANCH   1   6
TORSDOF 3
