REMARK  Name = 
REMARK  6 active torsions:
REMARK  status: ('A' for Active; 'I' for Inactive)
REMARK    1  A    between atoms: C_2  and  O_5
REMARK    2  A    between atoms: O_5  and  C_6
REMARK    3  A    between atoms: C_6  and  C_8
REMARK    4  A    between atoms: C_8  and  C_10
REMARK    5  A    between atoms: C_10  and  C_11
REMARK    6  A    between atoms: C_11  and  C_12
REMARK                            x       y       z     vdW  Elec       q    Type
REMARK                         _______ _______ _______ _____ _____    ______ ____
ROOT
ATOM      1  C   UNL     1       5.141   2.143   0.000  0.00  0.00    +0.000 C 
ATOM      2  O   UNL     1       5.141   1.318   0.000  0.00  0.00    +0.000 OA
ENDROOT
BRANCH   1   3
ATOM      3  C   UNL     1       5.856   2.556   0.000  0.00  0.00    +0.000 C 
ATOM      4  N   UNL     1       5.856   3.381   0.000  0.00  0.00    +0.000 NA
BRANCH   3   5
ATOM      5  C   UNL     1       6.570   2.143   0.000  0.00  0.00    +0.000 C 
BRANCH   5   6
ATOM      6  C   UNL     1       7.285   2.556   0.000  0.00  0.00    +0.000 C 
BRANCH   6   7
ATOM      7  C   UNL     1       7.999   2.143   0.000  0.00  0.00    +0.000 C 
ATOM      8  N   UNL     1       8.714   2.556   0.000  0.00  0.00    +0.000 NA
ATOM      9  O   UNL     1       7.999   1.318   0.000  0.00  0.00    +0.000 OA
ENDBRANCH   6   7
ENDBRANCH   5   6
ENDBRANCH   3   5
ENDBRANCH   1   3
BRANCH   1  10
ATOM     10  O   UNL     1       4.427   2.556   0.000  0.00  0.00    +0.000 OA
BRANCH  10  12
ATOM     11  C   UNL     1       2.998   1.731   0.000  0.00  0.00    +0.000 C 
ATOM     12  C   UNL     1       3.712   2.143   0.000  0.00  0.00    +0.000 C 
ATOM     13  C   UNL     1       4.125   1.429   0.000  0.00  0.00    +0.000 C 
ATOM     14  C   UNL     1       3.300   2.858   0.000  0.00  0.00    +0.000 C 
ENDBRANCH  10  12
ENDBRANCH   1  10
TORSDOF 6
