REMARK  Name = 
REMARK  12 active torsions:
REMARK  status: ('A' for Active; 'I' for Inactive)
REMARK    1  A    between atoms: C_2  and  C_4
REMARK    2  A    between atoms: C_4  and  C_5
REMARK    3  A    between atoms: C_5  and  N_6
REMARK    4  A    between atoms: C_5  and  C_10
REMARK    5  A    between atoms: N_12  and  C_13
REMARK    6  A    between atoms: C_13  and  C_14
REMARK    7  A    between atoms: C_19  and  C_22
REMARK    8  A    between atoms: C_24  and  C_28
REMARK    9  A    between atoms: C_33  and  O_34
REMARK   10  A    between atoms: O_34  and  C_35
REMARK   11  A    between atoms: C_35  and  C_36
REMARK   12  A    between atoms: C_39  and  N_40
REMARK                            x       y       z     vdW  Elec       q    Type
REMARK                         _______ _______ _______ _____ _____    ______ ____
ROOT
ATOM      1  C   UNL     1       5.773 -14.803   0.000  0.00  0.00    +0.000 A 
ATOM      2  C   UNL     1       6.527 -14.467   0.000  0.00  0.00    +0.000 A 
ATOM      3  C   UNL     1       7.079 -15.080   0.000  0.00  0.00    +0.000 A 
ATOM      4  N   UNL     1       6.667 -15.795   0.000  0.00  0.00    +0.000 NA
ATOM      5  N   UNL     1       5.860 -15.623   0.000  0.00  0.00    +0.000 N 
ATOM      6  C   UNL     1       5.247 -16.175   0.000  0.00  0.00    +0.000 C 
ENDROOT
BRANCH   1  12
ATOM      7  C   UNL     1       2.916 -13.153   0.000  0.00  0.00    +0.000 C 
ATOM      8  O   UNL     1       2.916 -12.328   0.000  0.00  0.00    +0.000 OA
ATOM      9  N   UNL     1       3.630 -13.565   0.000  0.00  0.00    +0.000 N 
ATOM     10  C   UNL     1       4.344 -13.153   0.000  0.00  0.00    +0.000 C 
ATOM     11  C   UNL     1       5.059 -13.565   0.000  0.00  0.00    +0.000 C 
ATOM     12  C   UNL     1       5.059 -14.390   0.000  0.00  0.00    +0.000 C 
ATOM     13  C   UNL     1       4.344 -14.803   0.000  0.00  0.00    +0.000 C 
ATOM     14  C   UNL     1       3.630 -14.390   0.000  0.00  0.00    +0.000 C 
BRANCH   7  15
ATOM     15  C   UNL     1       2.201 -13.565   0.000  0.00  0.00    +0.000 C 
BRANCH  15  18
ATOM     16  C   UNL     1       0.772 -13.565   0.000  0.00  0.00    +0.000 C 
ATOM     17  O   UNL     1       0.772 -14.390   0.000  0.00  0.00    +0.000 OA
ATOM     18  N   UNL     1       1.486 -13.153   0.000  0.00  0.00    +0.000 NA
BRANCH  16  19
ATOM     19  C   UNL     1       0.058 -13.153   0.000  0.00  0.00    +0.000 C 
BRANCH  19  20
ATOM     20  N   UNL     1       0.058 -12.328   0.000  0.00  0.00    +0.000 NA
ATOM     21  C   UNL     1       0.772 -11.915   0.000  0.00  0.00    +0.000 C 
ATOM     22  N   UNL     1       1.486 -12.328   0.000  0.00  0.00    +0.000 NA
ATOM     23  N   UNL     1       0.772 -11.090   0.000  0.00  0.00    +0.000 NA
ENDBRANCH  19  20
BRANCH  19  24
ATOM     24  C   UNL     1      -0.657 -13.565   0.000  0.00  0.00    +0.000 C 
BRANCH  24  26
ATOM     25  C   UNL     1      -2.086 -13.565   0.000  0.00  0.00    +0.000 C 
ATOM     26  C   UNL     1      -1.371 -13.153   0.000  0.00  0.00    +0.000 C 
ATOM     27  C   UNL     1      -1.371 -12.328   0.000  0.00  0.00    +0.000 C 
ENDBRANCH  24  26
ENDBRANCH  19  24
ENDBRANCH  16  19
ENDBRANCH  15  18
ENDBRANCH   7  15
ENDBRANCH   1  12
BRANCH   3  28
ATOM     28  C   UNL     1       7.900 -14.994   0.000  0.00  0.00    +0.000 A 
ATOM     29  C   UNL     1       8.235 -14.240   0.000  0.00  0.00    +0.000 A 
ATOM     30 CL   UNL     1       7.750 -13.573   0.000  0.00  0.00    +0.000 Cl
ATOM     31  C   UNL     1       9.056 -14.154   0.000  0.00  0.00    +0.000 A 
ATOM     32 CL   UNL     1       9.391 -13.400   0.000  0.00  0.00    +0.000 Cl
ATOM     33  C   UNL     1       9.540 -14.822   0.000  0.00  0.00    +0.000 A 
ATOM     34  C   UNL     1       9.205 -15.575   0.000  0.00  0.00    +0.000 A 
ATOM     35  C   UNL     1       8.384 -15.661   0.000  0.00  0.00    +0.000 A 
BRANCH  33  36
ATOM     36  O   UNL     1      10.361 -14.735   0.000  0.00  0.00    +0.000 OA
BRANCH  36  37
ATOM     37  C   UNL     1      10.697 -13.982   0.000  0.00  0.00    +0.000 C 
BRANCH  37  38
ATOM     38  C   UNL     1      11.517 -13.895   0.000  0.00  0.00    +0.000 A 
ATOM     39  C   UNL     1      11.853 -13.142   0.000  0.00  0.00    +0.000 A 
ATOM     40  C   UNL     1      12.673 -13.055   0.000  0.00  0.00    +0.000 A 
ATOM     41  C   UNL     1      13.158 -13.723   0.000  0.00  0.00    +0.000 A 
ATOM     42  C   UNL     1      12.822 -14.476   0.000  0.00  0.00    +0.000 A 
ATOM     43  C   UNL     1      12.002 -14.563   0.000  0.00  0.00    +0.000 A 
BRANCH  41  44
ATOM     44  N   UNL     1      13.979 -13.637   0.000  0.00  0.00    +0.000 NA
ATOM     45  C   UNL     1      14.463 -14.304   0.000  0.00  0.00    +0.000 C 
ATOM     46  C   UNL     1      15.284 -14.218   0.000  0.00  0.00    +0.000 C 
ATOM     47  O   UNL     1      14.128 -15.058   0.000  0.00  0.00    +0.000 OA
ENDBRANCH  41  44
ENDBRANCH  37  38
ENDBRANCH  36  37
ENDBRANCH  33  36
ENDBRANCH   3  28
TORSDOF 12
