REMARK  Name = 
REMARK  13 active torsions:
REMARK  status: ('A' for Active; 'I' for Inactive)
REMARK    1  A    between atoms: C_2  and  C_3
REMARK    2  A    between atoms: C_2  and  C_4
REMARK    3  A    between atoms: C_3  and  C_5
REMARK    4  A    between atoms: C_4  and  C_6
REMARK    5  A    between atoms: C_5  and  C_7
REMARK    6  A    between atoms: C_6  and  C_8
REMARK    7  A    between atoms: C_7  and  C_9
REMARK    8  A    between atoms: C_8  and  C_22
REMARK    9  A    between atoms: C_9  and  C_29
REMARK   10  A    between atoms: C_18  and  C_28
REMARK   11  A    between atoms: C_18  and  O_48
REMARK   12  A    between atoms: C_29  and  O_48
REMARK   13  A    between atoms: C_36  and  N_42
REMARK                            x       y       z     vdW  Elec       q    Type
REMARK                         _______ _______ _______ _____ _____    ______ ____
ROOT
ATOM      1  C   UNL     1      13.998  -3.160   0.000  0.00  0.00    +0.000 C 
ENDROOT
BRANCH   1   2
ATOM      2  C   UNL     1      13.283  -2.747   0.000  0.00  0.00    +0.000 C 
BRANCH   2   3
ATOM      3  C   UNL     1      12.569  -3.160   0.000  0.00  0.00    +0.000 C 
BRANCH   3   4
ATOM      4  C   UNL     1      11.854  -2.747   0.000  0.00  0.00    +0.000 C 
BRANCH   4   5
ATOM      5  C   UNL     1      11.140  -3.160   0.000  0.00  0.00    +0.000 C 
ATOM      6  O   UNL     1      11.140  -3.985   0.000  0.00  0.00    +0.000 OA
BRANCH   5   7
ATOM      7  O   UNL     1      10.425  -2.747   0.000  0.00  0.00    +0.000 OA
BRANCH   7   8
ATOM      8  C   UNL     1       9.711  -3.160   0.000  0.00  0.00    +0.000 C 
BRANCH   8   9
ATOM      9  C   UNL     1       8.996  -2.747   0.000  0.00  0.00    +0.000 C 
ATOM     10  C   UNL     1       8.910  -1.927   0.000  0.00  0.00    +0.000 C 
ATOM     11  C   UNL     1       8.103  -1.755   0.000  0.00  0.00    +0.000 C 
ATOM     12  C   UNL     1       7.691  -2.470   0.000  0.00  0.00    +0.000 C 
ATOM     13  O   UNL     1       9.523  -1.375   0.000  0.00  0.00    +0.000 OA
ATOM     14  O   UNL     1       7.768  -1.002   0.000  0.00  0.00    +0.000 OA
ATOM     15  O   UNL     1       8.243  -3.083   0.000  0.00  0.00    +0.000 OA
BRANCH  12  25
ATOM     16  C   UNL     1       5.737  -0.638   0.000  0.00  0.00    +0.000 A 
ATOM     17  C   UNL     1       6.458  -3.271   0.000  0.00  0.00    +0.000 A 
ATOM     18  C   UNL     1       5.565  -2.279   0.000  0.00  0.00    +0.000 A 
ATOM     19  C   UNL     1       4.897  -1.794   0.000  0.00  0.00    +0.000 A 
ATOM     20  C   UNL     1       6.318  -1.943   0.000  0.00  0.00    +0.000 A 
ATOM     21  N   UNL     1       4.144  -2.129   0.000  0.00  0.00    +0.000 NA
ATOM     22  N   UNL     1       4.983  -0.973   0.000  0.00  0.00    +0.000 NA
ATOM     23  N   UNL     1       6.404  -1.123   0.000  0.00  0.00    +0.000 NA
ATOM     24  N   UNL     1       5.651  -3.099   0.000  0.00  0.00    +0.000 NA
ATOM     25  N   UNL     1       6.870  -2.556   0.000  0.00  0.00    +0.000 N 
ENDBRANCH  12  25
ENDBRANCH   8   9
ENDBRANCH   7   8
ENDBRANCH   5   7
ENDBRANCH   4   5
ENDBRANCH   3   4
ENDBRANCH   2   3
ENDBRANCH   1   2
BRANCH   1  26
ATOM     26  C   UNL     1      14.712  -2.747   0.000  0.00  0.00    +0.000 C 
BRANCH  26  27
ATOM     27  C   UNL     1      15.427  -3.160   0.000  0.00  0.00    +0.000 C 
BRANCH  27  28
ATOM     28  C   UNL     1      16.141  -2.747   0.000  0.00  0.00    +0.000 C 
BRANCH  28  29
ATOM     29  C   UNL     1      16.856  -3.160   0.000  0.00  0.00    +0.000 C 
BRANCH  29  40
ATOM     30  C   UNL     1      17.979  -1.088   0.000  0.00  0.00    +0.000 C 
ATOM     31  C   UNL     1      20.938  -3.184   0.000  0.00  0.00    +0.000 C 
ATOM     32  C   UNL     1      22.176  -1.041   0.000  0.00  0.00    +0.000 A 
ATOM     33  C   UNL     1      20.113  -3.184   0.000  0.00  0.00    +0.000 C 
ATOM     34  C   UNL     1      21.351  -1.041   0.000  0.00  0.00    +0.000 A 
ATOM     35  C   UNL     1      19.701  -1.041   0.000  0.00  0.00    +0.000 C 
ATOM     36  C   UNL     1      18.876  -1.041   0.000  0.00  0.00    +0.000 C 
ATOM     37  C   UNL     1      22.176  -2.470   0.000  0.00  0.00    +0.000 A 
ATOM     38  C   UNL     1      18.324  -3.083   0.000  0.00  0.00    +0.000 C 
ATOM     39  C   UNL     1      21.351  -2.470   0.000  0.00  0.00    +0.000 A 
ATOM     40  C   UNL     1      17.570  -2.747   0.000  0.00  0.00    +0.000 C 
ATOM     41  C   UNL     1      22.588  -1.755   0.000  0.00  0.00    +0.000 A 
ATOM     42  C   UNL     1      20.938  -1.755   0.000  0.00  0.00    +0.000 A 
ATOM     43  C   UNL     1      20.113  -1.755   0.000  0.00  0.00    +0.000 C 
ATOM     44  C   UNL     1      19.701  -2.470   0.000  0.00  0.00    +0.000 C 
ATOM     45  C   UNL     1      18.876  -2.470   0.000  0.00  0.00    +0.000 C 
ATOM     46  C   UNL     1      17.656  -1.927   0.000  0.00  0.00    +0.000 C 
ATOM     47  C   UNL     1      18.463  -1.755   0.000  0.00  0.00    +0.000 C 
ATOM     48  O   UNL     1      23.413  -1.755   0.000  0.00  0.00    +0.000 OA
ATOM     49  O   UNL     1      17.043  -1.375   0.000  0.00  0.00    +0.000 OA
ENDBRANCH  29  40
ENDBRANCH  28  29
ENDBRANCH  27  28
ENDBRANCH  26  27
ENDBRANCH   1  26
TORSDOF 13
