REMARK  Name = 
REMARK  2 active torsions:
REMARK  status: ('A' for Active; 'I' for Inactive)
REMARK    1  A    between atoms: C_7  and  C_14
REMARK    2  A    between atoms: C_8  and  C_15
REMARK                            x       y       z     vdW  Elec       q    Type
REMARK                         _______ _______ _______ _____ _____    ______ ____
ROOT
ATOM      1  C   UNL     1       5.182   3.552   0.000  0.00  0.00    +0.000 A 
ATOM      2  C   UNL     1      -0.128   3.552   0.000  0.00  0.00    +0.000 A 
ATOM      3  C   UNL     1       4.362   3.466   0.000  0.00  0.00    +0.000 A 
ATOM      4  C   UNL     1       0.692   3.466   0.000  0.00  0.00    +0.000 A 
ATOM      5  C   UNL     1       5.332   2.131   0.000  0.00  0.00    +0.000 A 
ATOM      6  C   UNL     1      -0.278   2.131   0.000  0.00  0.00    +0.000 A 
ATOM      7  C   UNL     1       5.667   2.884   0.000  0.00  0.00    +0.000 A 
ATOM      8  C   UNL     1      -0.613   2.884   0.000  0.00  0.00    +0.000 A 
ATOM      9  C   UNL     1       4.511   2.045   0.000  0.00  0.00    +0.000 A 
ATOM     10  C   UNL     1       0.543   2.045   0.000  0.00  0.00    +0.000 A 
ATOM     11  C   UNL     1       4.026   2.712   0.000  0.00  0.00    +0.000 A 
ATOM     12  C   UNL     1       1.028   2.712   0.000  0.00  0.00    +0.000 A 
ATOM     13  C   UNL     1       2.527   1.220   0.000  0.00  0.00    +0.000 C 
ATOM     14  C   UNL     1       3.241   1.632   0.000  0.00  0.00    +0.000 A 
ATOM     15  C   UNL     1       1.812   1.632   0.000  0.00  0.00    +0.000 A 
ATOM     16  N   UNL     1       4.026   1.377   0.000  0.00  0.00    +0.000 NA
ATOM     17  N   UNL     1       1.028   1.377   0.000  0.00  0.00    +0.000 NA
ATOM     18  N   UNL     1       3.241   2.457   0.000  0.00  0.00    +0.000 N 
ATOM     19  N   UNL     1       1.812   2.457   0.000  0.00  0.00    +0.000 N 
ATOM     20  O   UNL     1       2.527   0.395   0.000  0.00  0.00    +0.000 OA
ATOM     21 ZN   UNL     1       2.527   2.869   0.000  0.00  0.00    +0.000 Zn
ENDROOT
BRANCH   7  22
ATOM     22  C   UNL     1       6.487   2.971   0.000  0.00  0.00    +0.000 C 
ATOM     23  N   UNL     1       6.823   3.724   0.000  0.00  0.00    +0.000 NA
ATOM     24  N   UNL     1       6.972   2.303   0.000  0.00  0.00    +0.000 NA
ENDBRANCH   7  22
BRANCH   8  25
ATOM     25  C   UNL     1      -1.434   2.971   0.000  0.00  0.00    +0.000 C 
ATOM     26  N   UNL     1      -1.919   2.303   0.000  0.00  0.00    +0.000 NA
ATOM     27  N   UNL     1      -1.769   3.724   0.000  0.00  0.00    +0.000 NA
ENDBRANCH   8  25
TORSDOF 2
