REMARK  Name = 
REMARK  6 active torsions:
REMARK  status: ('A' for Active; 'I' for Inactive)
REMARK    1  A    between atoms: C_5  and  C_8
REMARK    2  A    between atoms: C_8  and  S_10
REMARK    3  A    between atoms: S_10  and  C_11
REMARK    4  A    between atoms: C_11  and  C_12
REMARK    5  A    between atoms: C_12  and  C_13
REMARK    6  A    between atoms: C_13  and  C_14
REMARK                            x       y       z     vdW  Elec       q    Type
REMARK                         _______ _______ _______ _____ _____    ______ ____
ROOT
ATOM      1  C   UNK     1      16.217 -11.558   0.000  0.00  0.00    +0.000 C 
ENDROOT
BRANCH   1   6
ATOM      2  O   UNK     1      19.084 -11.589   0.000  0.00  0.00    +0.000 OA
ATOM      3  C   UNK     1      18.314 -11.832   0.000  0.00  0.00    +0.000 C 
ATOM      4  O   UNK     1      17.640 -11.331   0.000  0.00  0.00    +0.000 OA
ATOM      5  C   UNK     1      18.059 -12.575   0.000  0.00  0.00    +0.000 C 
ATOM      6  C   UNK     1      16.987 -11.798   0.000  0.00  0.00    +0.000 C 
ATOM      7  C   UNK     1      17.241 -12.575   0.000  0.00  0.00    +0.000 C 
ATOM      8  O   UNK     1      18.303 -13.366   0.000  0.00  0.00    +0.000 OA
ATOM      9  O   UNK     1      16.977 -13.362   0.000  0.00  0.00    +0.000 OA
ENDBRANCH   1   6
BRANCH   1  10
ATOM     10  S   UNK     1      15.557 -12.053   0.000  0.00  0.00    +0.000 S 
BRANCH  10  11
ATOM     11  C   UNK     1      14.839 -11.637   0.000  0.00  0.00    +0.000 C 
BRANCH  11  12
ATOM     12  C   UNK     1      14.120 -12.050   0.000  0.00  0.00    +0.000 C 
BRANCH  12  13
ATOM     13  C   UNK     1      13.405 -11.637   0.000  0.00  0.00    +0.000 C 
ATOM     14  N   UNK     1      13.405 -10.805   0.000  0.00  0.00    +0.000 NA
BRANCH  13  15
ATOM     15  C   UNK     1      12.687 -12.050   0.000  0.00  0.00    +0.000 C 
ATOM     16  O   UNK     1      11.972 -11.637   0.000  0.00  0.00    +0.000 OA
ATOM     17  O   UNK     1      12.687 -12.878   0.000  0.00  0.00    +0.000 OA
ENDBRANCH  13  15
ENDBRANCH  12  13
ENDBRANCH  11  12
ENDBRANCH  10  11
ENDBRANCH   1  10
TORSDOF 6
