REMARK  Name = 
REMARK  12 active torsions:
REMARK  status: ('A' for Active; 'I' for Inactive)
REMARK    1  A    between atoms: C_2  and  C_3
REMARK    2  A    between atoms: C_3  and  C_4
REMARK    3  A    between atoms: C_3  and  C_6
REMARK    4  A    between atoms: C_3  and  N_8
REMARK    5  A    between atoms: N_8  and  C_9
REMARK    6  A    between atoms: C_9  and  C_10
REMARK    7  A    between atoms: C_10  and  C_11
REMARK    8  A    between atoms: C_11  and  N_12
REMARK    9  A    between atoms: N_12  and  C_13
REMARK   10  A    between atoms: C_13  and  C_14
REMARK   11  A    between atoms: C_13  and  C_16
REMARK   12  A    between atoms: C_13  and  C_18
REMARK                            x       y       z     vdW  Elec       q    Type
REMARK                         _______ _______ _______ _____ _____    ______ ____
ROOT
ATOM      1  C   UNL     1       5.112  -4.729   0.000  0.00  0.00    +0.000 C 
ENDROOT
BRANCH   1   2
ATOM      2  C   UNL     1       4.397  -5.141   0.000  0.00  0.00    +0.000 C 
BRANCH   2   3
ATOM      3  N   UNL     1       3.683  -4.729   0.000  0.00  0.00    +0.000 NA
BRANCH   3   4
ATOM      4  C   UNL     1       2.968  -5.141   0.000  0.00  0.00    +0.000 C 
BRANCH   4   6
ATOM      5  O   UNL     1       1.540  -5.141   0.000  0.00  0.00    +0.000 OA
ATOM      6  C   UNL     1       2.254  -5.554   0.000  0.00  0.00    +0.000 C 
ENDBRANCH   4   6
BRANCH   4   7
ATOM      7  C   UNL     1       3.381  -5.856   0.000  0.00  0.00    +0.000 C 
ATOM      8  O   UNL     1       4.206  -5.856   0.000  0.00  0.00    +0.000 OA
ENDBRANCH   4   7
BRANCH   4   9
ATOM      9  C   UNL     1       2.556  -4.427   0.000  0.00  0.00    +0.000 C 
ATOM     10  O   UNL     1       1.731  -4.427   0.000  0.00  0.00    +0.000 OA
ENDBRANCH   4   9
ENDBRANCH   3   4
ENDBRANCH   2   3
ENDBRANCH   1   2
BRANCH   1  11
ATOM     11  C   UNL     1       5.826  -5.141   0.000  0.00  0.00    +0.000 C 
BRANCH  11  12
ATOM     12  N   UNL     1       6.541  -4.729   0.000  0.00  0.00    +0.000 NA
BRANCH  12  13
ATOM     13  C   UNL     1       7.255  -5.141   0.000  0.00  0.00    +0.000 C 
BRANCH  13  14
ATOM     14  C   UNL     1       6.843  -5.856   0.000  0.00  0.00    +0.000 C 
ATOM     15  O   UNL     1       7.255  -6.570   0.000  0.00  0.00    +0.000 OA
ENDBRANCH  13  14
BRANCH  13  16
ATOM     16  C   UNL     1       7.970  -5.554   0.000  0.00  0.00    +0.000 C 
ATOM     17  O   UNL     1       8.684  -5.141   0.000  0.00  0.00    +0.000 OA
ENDBRANCH  13  16
BRANCH  13  18
ATOM     18  C   UNL     1       7.668  -4.427   0.000  0.00  0.00    +0.000 C 
ATOM     19  O   UNL     1       8.493  -4.427   0.000  0.00  0.00    +0.000 OA
ENDBRANCH  13  18
ENDBRANCH  12  13
ENDBRANCH  11  12
ENDBRANCH   1  11
TORSDOF 12
