REMARK  Name = 
REMARK  3 active torsions:
REMARK  status: ('A' for Active; 'I' for Inactive)
REMARK    1  A    between atoms: C_3  and  C_5
REMARK    2  A    between atoms: C_4  and  O_16
REMARK    3  A    between atoms: O_16  and  S_17
REMARK                            x       y       z     vdW  Elec       q    Type
REMARK                         _______ _______ _______ _____ _____    ______ ____
ROOT
ATOM      1  C   UNL     1       1.429   0.825   0.000  0.00  0.00    +0.000 C 
ATOM      2  C   UNL     1       0.715   1.238   0.000  0.00  0.00    +0.000 C 
ATOM      3  C   UNL     1       1.429   0.000   0.000  0.00  0.00    +0.000 C 
ATOM      4  C   UNL     1       0.000   0.825   0.000  0.00  0.00    +0.000 C 
ATOM      5  C   UNL     1       0.000   0.000   0.000  0.00  0.00    +0.000 C 
ATOM      6  O   UNL     1       2.143   1.238   0.000  0.00  0.00    +0.000 OA
ATOM      7  O   UNL     1       0.715   2.062   0.000  0.00  0.00    +0.000 OA
ATOM      8  O   UNL     1      -0.715  -0.412   0.000  0.00  0.00    +0.000 OA
ATOM      9  O   UNL     1       0.715  -0.412   0.000  0.00  0.00    +0.000 OA
ENDROOT
BRANCH   3  10
ATOM     10  C   UNL     1       2.143  -0.412   0.000  0.00  0.00    +0.000 C 
ATOM     11  O   UNL     1       2.143  -1.238   0.000  0.00  0.00    +0.000 OA
ATOM     12  O   UNL     1       2.858   0.000   0.000  0.00  0.00    +0.000 OA
ENDBRANCH   3  10
BRANCH   4  13
ATOM     13  O   UNL     1      -0.715   1.238   0.000  0.00  0.00    +0.000 OA
BRANCH  13  17
ATOM     14  O   UNL     1      -2.143   0.412   0.000  0.00  0.00    +0.000 OA
ATOM     15  O   UNL     1      -1.841   1.540   0.000  0.00  0.00    +0.000 OA
ATOM     16  O   UNL     1      -1.016   0.111   0.000  0.00  0.00    +0.000 OA
ATOM     17  S   UNL     1      -1.429   0.825   0.000  0.00  0.00    +0.000 S 
ENDBRANCH  13  17
ENDBRANCH   4  13
TORSDOF 3
