REMARK  Name = 
REMARK  6 active torsions:
REMARK  status: ('A' for Active; 'I' for Inactive)
REMARK    1  A    between atoms: C_1  and  C_4
REMARK    2  A    between atoms: C_1  and  O_23
REMARK    3  A    between atoms: C_10  and  N_15
REMARK    4  A    between atoms: O_23  and  P_26
REMARK    5  A    between atoms: O_25  and  P_26
REMARK    6  A    between atoms: O_25  and  S_27
REMARK                            x       y       z     vdW  Elec       q    Type
REMARK                         _______ _______ _______ _____ _____    ______ ____
ROOT
ATOM      1  C   UNL     1      11.182 -16.223   0.000  0.00  0.00    +0.000 C 
ATOM      2  C   UNL     1      10.947 -17.014   0.000  0.00  0.00    +0.000 C 
ATOM      3  C   UNL     1      10.123 -17.035   0.000  0.00  0.00    +0.000 C 
ATOM      4  C   UNL     1       9.848 -16.258   0.000  0.00  0.00    +0.000 C 
ATOM      5  O   UNL     1      11.450 -17.669   0.000  0.00  0.00    +0.000 OA
ATOM      6  O   UNL     1       9.655 -17.715   0.000  0.00  0.00    +0.000 OA
ATOM      7  O   UNL     1      10.502 -15.756   0.000  0.00  0.00    +0.000 OA
ENDROOT
BRANCH   4  17
ATOM      8  C   UNL     1       7.592 -17.703   0.000  0.00  0.00    +0.000 A 
ATOM      9  C   UNL     1       8.781 -15.246   0.000  0.00  0.00    +0.000 A 
ATOM     10  C   UNL     1       7.722 -16.058   0.000  0.00  0.00    +0.000 A 
ATOM     11  C   UNL     1       6.977 -16.413   0.000  0.00  0.00    +0.000 A 
ATOM     12  C   UNL     1       8.402 -16.526   0.000  0.00  0.00    +0.000 A 
ATOM     13  N   UNL     1       6.298 -15.946   0.000  0.00  0.00    +0.000 NA
ATOM     14  N   UNL     1       6.913 -17.236   0.000  0.00  0.00    +0.000 NA
ATOM     15  N   UNL     1       8.337 -17.348   0.000  0.00  0.00    +0.000 NA
ATOM     16  N   UNL     1       7.957 -15.267   0.000  0.00  0.00    +0.000 NA
ATOM     17  N   UNL     1       9.056 -16.023   0.000  0.00  0.00    +0.000 N 
ENDBRANCH   4  17
BRANCH   1  18
ATOM     18  C   UNL     1      11.960 -15.948   0.000  0.00  0.00    +0.000 C 
BRANCH  18  19
ATOM     19  O   UNL     1      12.587 -16.483   0.000  0.00  0.00    +0.000 OA
BRANCH  19  22
ATOM     20  O   UNL     1      13.640 -16.986   0.000  0.00  0.00    +0.000 OA
ATOM     21  O   UNL     1      13.089 -15.431   0.000  0.00  0.00    +0.000 OA
ATOM     22  P   UNL     1      13.365 -16.208   0.000  0.00  0.00    +0.000 P 
BRANCH  22  23
ATOM     23  O   UNL     1      14.142 -15.933   0.000  0.00  0.00    +0.000 OA
BRANCH  23  27
ATOM     24  O   UNL     1      15.104 -15.272   0.000  0.00  0.00    +0.000 OA
ATOM     25  O   UNL     1      13.482 -14.971   0.000  0.00  0.00    +0.000 OA
ATOM     26  O   UNL     1      14.443 -14.311   0.000  0.00  0.00    +0.000 OA
ATOM     27  S   UNL     1      14.293 -15.122   0.000  0.00  0.00    +0.000 S 
ENDBRANCH  23  27
ENDBRANCH  22  23
ENDBRANCH  19  22
ENDBRANCH  18  19
ENDBRANCH   1  18
TORSDOF 6
