REMARK  Name = 
REMARK  3 active torsions:
REMARK  status: ('A' for Active; 'I' for Inactive)
REMARK    1  A    between atoms: S_2  and  C_3
REMARK    2  A    between atoms: C_7  and  N_8
REMARK    3  A    between atoms: C_14  and  C_21
REMARK                            x       y       z     vdW  Elec       q    Type
REMARK                         _______ _______ _______ _____ _____    ______ ____
ROOT
ATOM      1  N   UNL     1       0.000  -1.650   0.000  0.00  0.00    +0.000 NA
ATOM      2  C   UNL     1       0.715  -1.238   0.000  0.00  0.00    +0.000 A 
ATOM      3  N   UNL     1       0.715  -0.412   0.000  0.00  0.00    +0.000 NA
ATOM      4  C   UNL     1       1.429   0.000   0.000  0.00  0.00    +0.000 A 
ATOM      5  C   UNL     1       2.143  -0.412   0.000  0.00  0.00    +0.000 A 
ATOM      6  C   UNL     1       2.858   0.000   0.000  0.00  0.00    +0.000 A 
ATOM      7  C   UNL     1       3.572  -0.412   0.000  0.00  0.00    +0.000 A 
ATOM      8  C   UNL     1       3.572  -1.238   0.000  0.00  0.00    +0.000 A 
ATOM      9  O   UNL     1       4.287  -1.650   0.000  0.00  0.00    +0.000 OA
ATOM     10  N   UNL     1       2.858  -1.650   0.000  0.00  0.00    +0.000 N 
ATOM     11  C   UNL     1       2.858  -2.475   0.000  0.00  0.00    +0.000 C 
ATOM     12  C   UNL     1       2.143  -1.238   0.000  0.00  0.00    +0.000 A 
ATOM     13  N   UNL     1       1.429  -1.650   0.000  0.00  0.00    +0.000 NA
ENDROOT
BRANCH   7  14
ATOM     14  C   UNL     1       4.287   0.000   0.000  0.00  0.00    +0.000 A 
ATOM     15  C   UNL     1       4.287   0.825   0.000  0.00  0.00    +0.000 A 
ATOM     16 CL   UNL     1       3.572   1.238   0.000  0.00  0.00    +0.000 Cl
ATOM     17  C   UNL     1       5.001   1.238   0.000  0.00  0.00    +0.000 A 
ATOM     18  C   UNL     1       5.716   0.825   0.000  0.00  0.00    +0.000 A 
ATOM     19  C   UNL     1       5.716   0.000   0.000  0.00  0.00    +0.000 A 
ATOM     20  C   UNL     1       5.001  -0.412   0.000  0.00  0.00    +0.000 A 
ATOM     21 CL   UNL     1       5.001  -1.238   0.000  0.00  0.00    +0.000 Cl
ENDBRANCH   7  14
BRANCH   1  26
ATOM     22  C   UNL     1       0.715  -3.712   0.000  0.00  0.00    +0.000 A 
ATOM     23  C   UNL     1       0.000  -4.125   0.000  0.00  0.00    +0.000 A 
ATOM     24  C   UNL     1      -0.715  -3.712   0.000  0.00  0.00    +0.000 A 
ATOM     25  C   UNL     1      -0.715  -2.888   0.000  0.00  0.00    +0.000 A 
ATOM     26  C   UNL     1       0.000  -2.475   0.000  0.00  0.00    +0.000 A 
ATOM     27  C   UNL     1       0.715  -2.888   0.000  0.00  0.00    +0.000 A 
BRANCH  22  29
ATOM     28  C   UNL     1       1.429  -4.950   0.000  0.00  0.00    +0.000 C 
ATOM     29  S   UNL     1       1.429  -4.125   0.000  0.00  0.00    +0.000 S 
ENDBRANCH  22  29
ENDBRANCH   1  26
TORSDOF 3
