REMARK  Name = 
REMARK  3 active torsions:
REMARK  status: ('A' for Active; 'I' for Inactive)
REMARK    1  A    between atoms: C5*_1  and  C4*_4
REMARK    2  A    between atoms: C_9  and  S_19
REMARK    3  A    between atoms: C1*_10  and  N_14
REMARK                            x       y       z     vdW  Elec       q    Type
REMARK                         _______ _______ _______ _____ _____    ______ ____
ROOT
ATOM      1  C   UNL     1       3.993   0.825   0.000  0.00  0.00    +0.000 A 
ATOM      2  C   UNL     1       1.295   0.412   0.000  0.00  0.00    +0.000 A 
ATOM      3  C   UNL     1       2.564   0.000   0.000  0.00  0.00    +0.000 A 
ATOM      4  C   UNL     1       2.564   0.825   0.000  0.00  0.00    +0.000 A 
ATOM      5  C   UNL     1       3.279  -0.412   0.000  0.00  0.00    +0.000 A 
ATOM      6  N   UNL     1       3.279   1.237   0.000  0.00  0.00    +0.000 NA
ATOM      7  N   UNL     1       3.993   0.000   0.000  0.00  0.00    +0.000 NA
ATOM      8  N   UNL     1       1.780  -0.255   0.000  0.00  0.00    +0.000 NA
ATOM      9  N   UNL     1       1.780   1.080   0.000  0.00  0.00    +0.000 N 
ENDROOT
BRANCH   9  13
ATOM     10  C4* UNL     1       1.525   3.199   0.000  0.00  0.00    +0.000 C 
ATOM     11  C3* UNL     1       0.740   2.945   0.000  0.00  0.00    +0.000 C 
ATOM     12  C2* UNL     1       0.740   2.119   0.000  0.00  0.00    +0.000 C 
ATOM     13  C1* UNL     1       1.525   1.865   0.000  0.00  0.00    +0.000 C 
ATOM     14  O3* UNL     1       0.073   3.429   0.000  0.00  0.00    +0.000 OA
ATOM     15  O2* UNL     1       0.073   1.635   0.000  0.00  0.00    +0.000 OA
ATOM     16  O4* UNL     1       2.010   2.532   0.000  0.00  0.00    +0.000 OA
BRANCH  10  17
ATOM     17  C5* UNL     1       1.780   3.984   0.000  0.00  0.00    +0.000 C 
ATOM     18  O5* UNL     1       2.587   4.156   0.000  0.00  0.00    +0.000 OA
ENDBRANCH  10  17
ENDBRANCH   9  13
BRANCH   5  19
ATOM     19  S   UNL     1       3.279  -1.237   0.000  0.00  0.00    +0.000 S 
ATOM     20  C   UNL     1       2.525  -1.573   0.000  0.00  0.00    +0.000 C 
ENDBRANCH   5  19
TORSDOF 3
