REMARK  Name = 
REMARK  4 active torsions:
REMARK  status: ('A' for Active; 'I' for Inactive)
REMARK    1  A    between atoms: CA_3  and  C_15
REMARK    2  A    between atoms: CA_7  and  N_9
REMARK    3  A    between atoms: C_10  and  CA_13
REMARK    4  A    between atoms: CA_13  and  C_18
REMARK                            x       y       z     vdW  Elec       q    Type
REMARK                         _______ _______ _______ _____ _____    ______ ____
ROOT
ATOM      1  C   UNL     1      15.126  -5.268   0.000  0.00  0.00    +0.000 C 
ATOM      2  N   UNL     1      15.126  -6.093   0.000  0.00  0.00    +0.000 N 
ATOM      3  CA  UNL     1      15.840  -6.506   0.000  0.00  0.00    +0.000 C 
ATOM      4  C   UNL     1      16.555  -6.093   0.000  0.00  0.00    +0.000 C 
ATOM      5  C   UNL     1      16.555  -5.268   0.000  0.00  0.00    +0.000 C 
ATOM      6  S   UNL     1      15.840  -4.856   0.000  0.00  0.00    +0.000 S 
ATOM      7  CA  UNL     1      14.301  -5.268   0.000  0.00  0.00    +0.000 C 
ATOM      8  C   UNL     1      14.301  -6.093   0.000  0.00  0.00    +0.000 C 
ATOM      9  O   UNL     1      13.586  -6.506   0.000  0.00  0.00    +0.000 OA
ATOM     10 CL   UNL     1      17.280  -6.512   0.000  0.00  0.00    +0.000 Cl
ENDROOT
BRANCH   7  11
ATOM     11  N   UNL     1      13.586  -4.856   0.000  0.00  0.00    +0.000 NA
ATOM     12  C   UNL     1      12.872  -5.268   0.000  0.00  0.00    +0.000 C 
ATOM     13  O   UNL     1      12.872  -6.093   0.000  0.00  0.00    +0.000 OA
BRANCH  12  14
ATOM     14  CA  UNL     1      12.157  -4.856   0.000  0.00  0.00    +0.000 C 
ATOM     15  N   UNL     1      12.157  -4.028   0.000  0.00  0.00    +0.000 NA
BRANCH  14  16
ATOM     16  C   UNL     1      11.431  -5.275   0.000  0.00  0.00    +0.000 A 
ATOM     17  C   UNL     1      10.718  -4.863   0.000  0.00  0.00    +0.000 A 
ATOM     18  C   UNL     1      10.004  -5.275   0.000  0.00  0.00    +0.000 A 
ATOM     19  C   UNL     1      10.004  -6.099   0.000  0.00  0.00    +0.000 A 
ATOM     20  C   UNL     1      10.718  -6.511   0.000  0.00  0.00    +0.000 A 
ATOM     21  C   UNL     1      11.431  -6.099   0.000  0.00  0.00    +0.000 A 
ENDBRANCH  14  16
ENDBRANCH  12  14
ENDBRANCH   7  11
BRANCH   3  22
ATOM     22  C   UNL     1      15.840  -7.330   0.000  0.00  0.00    +0.000 C 
ATOM     23  O   UNL     1      15.116  -7.749   0.000  0.00  0.00    +0.000 OA
ATOM     24  OXT UNL     1      16.545  -7.737   0.000  0.00  0.00    +0.000 OA
ENDBRANCH   3  22
TORSDOF 4
