REMARK  Name = 
REMARK  10 active torsions:
REMARK  status: ('A' for Active; 'I' for Inactive)
REMARK    1  A    between atoms: O_2  and  C_3
REMARK    2  A    between atoms: C_3  and  C_5
REMARK    3  A    between atoms: C_5  and  C_6
REMARK    4  A    between atoms: C_6  and  C_7
REMARK    5  A    between atoms: C_13  and  C_14
REMARK    6  A    between atoms: C_27  and  C_28
REMARK    7  A    between atoms: C_28  and  C_29
REMARK    8  A    between atoms: C_29  and  C_30
REMARK    9  A    between atoms: C_30  and  O_32
REMARK   10  A    between atoms: C_43  and  C_44
REMARK                            x       y       z     vdW  Elec       q    Type
REMARK                         _______ _______ _______ _____ _____    ______ ____
ROOT
ATOM      1  C   UNL     1      -2.768  -0.375   0.000  0.00  0.00    +0.000 A 
ATOM      2  C   UNL     1      -2.715   0.449   0.000  0.00  0.00    +0.000 A 
ATOM      3  C   UNL     1      -3.349   0.976   0.000  0.00  0.00    +0.000 C 
ATOM      4  C   UNL     1      -1.915   0.652   0.000  0.00  0.00    +0.000 A 
ATOM      5  C   UNL     1      -1.395   1.589   0.000  0.00  0.00    +0.000 C 
ATOM      6  C   UNL     1      -0.680   2.002   0.000  0.00  0.00    +0.000 A 
ATOM      7  C   UNL     1      -0.375   2.768   0.000  0.00  0.00    +0.000 A 
ATOM      8  C   UNL     1       0.449   2.715   0.000  0.00  0.00    +0.000 A 
ATOM      9  C   UNL     1       0.976   3.349   0.000  0.00  0.00    +0.000 C 
ATOM     10  C   UNL     1       0.652   1.915   0.000  0.00  0.00    +0.000 A 
ATOM     11  C   UNL     1       1.589   1.395   0.000  0.00  0.00    +0.000 C 
ATOM     12  C   UNL     1       2.002   0.680   0.000  0.00  0.00    +0.000 A 
ATOM     13  N   UNL     1       1.475   0.046   0.000  0.00  0.00    +0.000 N 
ATOM     14  C   UNL     1       1.915  -0.652   0.000  0.00  0.00    +0.000 A 
ATOM     15  C   UNL     1       1.395  -1.589   0.000  0.00  0.00    +0.000 C 
ATOM     16  C   UNL     1       0.680  -2.002   0.000  0.00  0.00    +0.000 A 
ATOM     17  C   UNL     1       0.375  -2.768   0.000  0.00  0.00    +0.000 A 
ATOM     18  C   UNL     1       0.815  -3.466   0.000  0.00  0.00    +0.000 C 
ATOM     19  C   UNL     1      -0.449  -2.715   0.000  0.00  0.00    +0.000 A 
ATOM     20  C   UNL     1      -0.652  -1.915   0.000  0.00  0.00    +0.000 A 
ATOM     21  C   UNL     1      -1.589  -1.395   0.000  0.00  0.00    +0.000 C 
ATOM     22  C   UNL     1      -2.002  -0.680   0.000  0.00  0.00    +0.000 A 
ATOM     23  N   UNL     1      -1.475  -0.046   0.000  0.00  0.00    +0.000 N 
ATOM     24 FE   UNL     1       0.000   0.000   0.000  0.00  0.00    +0.000 Fe
ATOM     25  N   UNL     1       0.046  -1.475   0.000  0.00  0.00    +0.000 N 
ATOM     26  N   UNL     1      -0.046   1.475   0.000  0.00  0.00    +0.000 N 
ATOM     27  C   UNL     1       2.715  -0.449   0.000  0.00  0.00    +0.000 A 
ATOM     28  C   UNL     1       3.349  -0.976   0.000  0.00  0.00    +0.000 C 
ATOM     29  C   UNL     1       2.768   0.375   0.000  0.00  0.00    +0.000 A 
ENDROOT
BRANCH  29  30
ATOM     30  C   UNL     1       3.466   0.815   0.000  0.00  0.00    +0.000 C 
ATOM     31  C   UNL     1       3.433   1.639   0.000  0.00  0.00    +0.000 C 
ENDBRANCH  29  30
BRANCH   7  32
ATOM     32  C   UNL     1      -0.815   3.466   0.000  0.00  0.00    +0.000 C 
ATOM     33  C   UNL     1      -0.431   4.196   0.000  0.00  0.00    +0.000 C 
ENDBRANCH   7  32
BRANCH   1  34
ATOM     34  C   UNL     1      -3.466  -0.815   0.000  0.00  0.00    +0.000 C 
BRANCH  34  35
ATOM     35  C   UNL     1      -4.196  -0.431   0.000  0.00  0.00    +0.000 C 
BRANCH  35  36
ATOM     36  C   UNL     1      -4.894  -0.872   0.000  0.00  0.00    +0.000 C 
ATOM     37  O   UNL     1      -4.861  -1.696   0.000  0.00  0.00    +0.000 OA
BRANCH  36  39
ATOM     38  C   UNL     1      -6.322  -0.928   0.000  0.00  0.00    +0.000 C 
ATOM     39  O   UNL     1      -5.624  -0.487   0.000  0.00  0.00    +0.000 OA
ENDBRANCH  36  39
ENDBRANCH  35  36
ENDBRANCH  34  35
ENDBRANCH   1  34
BRANCH  19  40
ATOM     40  C   UNL     1      -0.976  -3.349   0.000  0.00  0.00    +0.000 C 
BRANCH  40  41
ATOM     41  C   UNL     1      -1.789  -3.209   0.000  0.00  0.00    +0.000 C 
BRANCH  41  42
ATOM     42  C   UNL     1      -2.317  -3.844   0.000  0.00  0.00    +0.000 C 
ATOM     43  O   UNL     1      -3.130  -3.704   0.000  0.00  0.00    +0.000 OA
BRANCH  42  44
ATOM     44  O   UNL     1      -2.031  -4.618   0.000  0.00  0.00    +0.000 OA
ATOM     45  C   UNL     1      -1.218  -4.757   0.000  0.00  0.00    +0.000 C 
ENDBRANCH  42  44
ENDBRANCH  41  42
ENDBRANCH  40  41
ENDBRANCH  19  40
TORSDOF 10
