REMARK  Name = 
REMARK  8 active torsions:
REMARK  status: ('A' for Active; 'I' for Inactive)
REMARK    1  A    between atoms: C_6  and  C_7
REMARK    2  A    between atoms: C_7  and  N_8
REMARK    3  A    between atoms: C_11  and  C_12
REMARK    4  A    between atoms: C_12  and  C_13
REMARK    5  A    between atoms: C_13  and  O_14
REMARK    6  A    between atoms: O_14  and  P_15
REMARK    7  A    between atoms: P_15  and  O_18
REMARK    8  A    between atoms: O_18  and  P_19
REMARK                            x       y       z     vdW  Elec       q    Type
REMARK                         _______ _______ _______ _____ _____    ______ ____
ROOT
ATOM      1  N   UNL     1      -3.066   3.896   0.000  0.00  0.00    +0.000 N 
ATOM      2  C   UNL     1      -3.478   4.611   0.000  0.00  0.00    +0.000 A 
ATOM      3  S   UNL     1      -2.926   5.224   0.000  0.00  0.00    +0.000 S 
ATOM      4  C   UNL     1      -2.173   4.888   0.000  0.00  0.00    +0.000 A 
ATOM      5  C   UNL     1      -2.259   4.068   0.000  0.00  0.00    +0.000 A 
ATOM      6  C   UNL     1      -1.646   3.516   0.000  0.00  0.00    +0.000 C 
ENDROOT
BRANCH   4   7
ATOM      7  C   UNL     1      -1.458   5.301   0.000  0.00  0.00    +0.000 C 
BRANCH   7   8
ATOM      8  C   UNL     1      -0.744   4.888   0.000  0.00  0.00    +0.000 C 
BRANCH   8   9
ATOM      9  O   UNL     1      -0.029   5.301   0.000  0.00  0.00    +0.000 OA
BRANCH   9  10
ATOM     10  P   UNL     1       0.685   4.888   0.000  0.00  0.00    +0.000 P 
ATOM     11  O   UNL     1       0.273   4.174   0.000  0.00  0.00    +0.000 OA
ATOM     12  O   UNL     1       1.098   5.603   0.000  0.00  0.00    +0.000 OA
BRANCH  10  13
ATOM     13  O   UNL     1       1.400   4.476   0.000  0.00  0.00    +0.000 OA
BRANCH  13  14
ATOM     14  P   UNL     1       2.114   4.888   0.000  0.00  0.00    +0.000 P 
ATOM     15  O   UNL     1       2.829   5.301   0.000  0.00  0.00    +0.000 OA
ATOM     16  O   UNL     1       2.526   4.174   0.000  0.00  0.00    +0.000 OA
ATOM     17  O   UNL     1       1.702   5.603   0.000  0.00  0.00    +0.000 OA
ENDBRANCH  13  14
ENDBRANCH  10  13
ENDBRANCH   9  10
ENDBRANCH   8   9
ENDBRANCH   7   8
ENDBRANCH   4   7
BRANCH   1  18
ATOM     18  C   UNL     1      -3.402   3.142   0.000  0.00  0.00    +0.000 C 
BRANCH  18  24
ATOM     19  C   UNL     1      -6.684   2.797   0.000  0.00  0.00    +0.000 C 
ATOM     20  C   UNL     1      -5.863   2.884   0.000  0.00  0.00    +0.000 A 
ATOM     21  C   UNL     1      -5.527   3.637   0.000  0.00  0.00    +0.000 A 
ATOM     22  C   UNL     1      -4.707   3.724   0.000  0.00  0.00    +0.000 A 
ATOM     23  N   UNL     1      -4.371   4.477   0.000  0.00  0.00    +0.000 NA
ATOM     24  C   UNL     1      -4.222   3.056   0.000  0.00  0.00    +0.000 A 
ATOM     25  C   UNL     1      -4.558   2.303   0.000  0.00  0.00    +0.000 A 
ATOM     26  N   UNL     1      -5.378   2.216   0.000  0.00  0.00    +0.000 NA
ENDBRANCH  18  24
ENDBRANCH   1  18
TORSDOF 8
