REMARK  Name = 
REMARK  0 active torsions:
REMARK  status: ('A' for Active; 'I' for Inactive)
REMARK                            x       y       z     vdW  Elec       q    Type
REMARK                         _______ _______ _______ _____ _____    ______ ____
ROOT
ATOM      1  C   UNL     1       0.077   0.590   0.000  0.00  0.00    +0.000 C 
ATOM      2  N   UNL     1       0.499  -0.117   0.000  0.00  0.00    +0.000 NA
ATOM      3  C   UNL     1       1.058  -0.556   0.000  0.00  0.00    +0.000 C 
ATOM      4  C   UNL     1       0.738  -1.263   0.000  0.00  0.00    +0.000 C 
ATOM      5  C   UNL     1       0.119  -1.639   0.000  0.00  0.00    +0.000 C 
ATOM      6  C   UNL     1       0.638  -0.928   0.000  0.00  0.00    +0.000 C 
ATOM      7  C   UNL     1       1.607  -0.928   0.000  0.00  0.00    +0.000 C 
ATOM      8  C   UNL     1       2.122  -1.356   0.000  0.00  0.00    +0.000 C 
ATOM      9  O   UNL     1       2.533  -2.069   0.000  0.00  0.00    +0.000 OA
ATOM     10  C   UNL     1       1.984  -0.540   0.000  0.00  0.00    +0.000 C 
ENDROOT
TORSDOF 0
