REMARK  Name = 
REMARK  6 active torsions:
REMARK  status: ('A' for Active; 'I' for Inactive)
REMARK    1  A    between atoms: C_13  and  C_16
REMARK    2  A    between atoms: C_13  and  C_21
REMARK    3  A    between atoms: C_14  and  C_17
REMARK    4  A    between atoms: C_14  and  C_25
REMARK    5  A    between atoms: C_18  and  C_22
REMARK    6  A    between atoms: C_25  and  O_33
REMARK                            x       y       z     vdW  Elec       q    Type
REMARK                         _______ _______ _______ _____ _____    ______ ____
ROOT
ATOM      1  C   UNL     1       1.356   0.698   0.000  0.00  0.00    +0.000 C 
ATOM      2  C   UNL     1       1.356   2.348   0.000  0.00  0.00    +0.000 C 
ATOM      3  C   UNL     1       2.070   1.110   0.000  0.00  0.00    +0.000 C 
ATOM      4  C   UNL     1       0.641   1.935   0.000  0.00  0.00    +0.000 C 
ATOM      5  C   UNL     1      -0.143   0.856   0.000  0.00  0.00    +0.000 C 
ATOM      6  C   UNL     1      -0.628   1.523   0.000  0.00  0.00    +0.000 C 
ATOM      7  N   UNL     1       2.070   1.935   0.000  0.00  0.00    +0.000 NA
ATOM      8  N   UNL     1      -0.143   2.190   0.000  0.00  0.00    +0.000 NA
ATOM      9  N   UNL     1       0.641   1.110   0.000  0.00  0.00    +0.000 N 
ATOM     10  O   UNL     1      -0.398   0.071   0.000  0.00  0.00    +0.000 OA
ENDROOT
BRANCH   3  15
ATOM     11  C   UNL     1       2.784  -0.127   0.000  0.00  0.00    +0.000 A 
ATOM     12  C   UNL     1       3.499   1.110   0.000  0.00  0.00    +0.000 A 
ATOM     13  C   UNL     1       3.499  -0.540   0.000  0.00  0.00    +0.000 A 
ATOM     14  C   UNL     1       4.213   0.698   0.000  0.00  0.00    +0.000 A 
ATOM     15  C   UNL     1       2.784   0.698   0.000  0.00  0.00    +0.000 A 
ATOM     16  C   UNL     1       4.213  -0.127   0.000  0.00  0.00    +0.000 A 
ATOM     17  O   UNL     1       4.928  -0.540   0.000  0.00  0.00    +0.000 OA
ENDBRANCH   3  15
BRANCH   6  19
ATOM     18  O   UNL     1      -1.070   0.164   0.000  0.00  0.00    +0.000 OA
ATOM     19  O   UNL     1      -1.242   0.971   0.000  0.00  0.00    +0.000 OA
ENDBRANCH   6  19
BRANCH   6  20
ATOM     20  C   UNL     1      -1.242   2.075   0.000  0.00  0.00    +0.000 C 
BRANCH  20  25
ATOM     21  C   UNL     1      -2.639   2.372   0.000  0.00  0.00    +0.000 A 
ATOM     22  C   UNL     1      -2.198   1.013   0.000  0.00  0.00    +0.000 A 
ATOM     23  C   UNL     1      -3.424   2.117   0.000  0.00  0.00    +0.000 A 
ATOM     24  C   UNL     1      -2.982   0.758   0.000  0.00  0.00    +0.000 A 
ATOM     25  C   UNL     1      -2.026   1.820   0.000  0.00  0.00    +0.000 A 
ATOM     26  C   UNL     1      -3.595   1.310   0.000  0.00  0.00    +0.000 A 
ATOM     27  O   UNL     1      -4.380   1.055   0.000  0.00  0.00    +0.000 OA
ENDBRANCH  20  25
ENDBRANCH   6  20
BRANCH   2  28
ATOM     28  C   UNL     1       1.356   3.173   0.000  0.00  0.00    +0.000 C 
BRANCH  28  33
ATOM     29  C   UNL     1      -0.252   4.577   0.000  0.00  0.00    +0.000 C 
ATOM     30  C   UNL     1      -0.665   3.863   0.000  0.00  0.00    +0.000 C 
ATOM     31  C   UNL     1       0.555   4.406   0.000  0.00  0.00    +0.000 C 
ATOM     32  C   UNL     1      -0.113   3.250   0.000  0.00  0.00    +0.000 C 
ATOM     33  C   UNL     1       0.641   3.585   0.000  0.00  0.00    +0.000 C 
ENDBRANCH  28  33
ENDBRANCH   2  28
TORSDOF 6
