REMARK  Name = 
REMARK  2 active torsions:
REMARK  status: ('A' for Active; 'I' for Inactive)
REMARK    1  A    between atoms: C_3  and  C_9
REMARK    2  A    between atoms: C_6  and  C_17
REMARK                            x       y       z     vdW  Elec       q    Type
REMARK                         _______ _______ _______ _____ _____    ______ ____
ROOT
ATOM      1  O   UNL     1      25.230 -14.500   0.000  0.00  0.00    +0.000 OA
ATOM      2  O   UNL     1      20.254 -18.055   0.000  0.00  0.00    +0.000 OA
ATOM      3  C   UNL     1      24.703 -15.536   0.000  0.00  0.00    +0.000 C 
ATOM      4  C   UNL     1      24.703 -16.361   0.000  0.00  0.00    +0.000 C 
ATOM      5  C   UNL     1      23.989 -16.774   0.000  0.00  0.00    +0.000 C 
ATOM      6  C   UNL     1      25.484 -15.285   0.000  0.00  0.00    +0.000 C 
ATOM      7  C   UNL     1      25.484 -16.613   0.000  0.00  0.00    +0.000 C 
ATOM      8  C   UNL     1      25.966 -15.949   0.000  0.00  0.00    +0.000 C 
ATOM      9  C   UNL     1      23.274 -16.361   0.000  0.00  0.00    +0.000 C 
ATOM     10  C   UNL     1      23.989 -15.124   0.000  0.00  0.00    +0.000 C 
ATOM     11  C   UNL     1      24.002 -17.633   0.000  0.00  0.00    +0.000 C 
ATOM     12  C   UNL     1      23.274 -15.536   0.000  0.00  0.00    +0.000 C 
ATOM     13  C   UNL     1      22.524 -16.780   0.000  0.00  0.00    +0.000 C 
ATOM     14  C   UNL     1      23.261 -18.069   0.000  0.00  0.00    +0.000 C 
ATOM     15  C   UNL     1      22.517 -17.639   0.000  0.00  0.00    +0.000 C 
ATOM     16  C   UNL     1      21.759 -16.314   0.000  0.00  0.00    +0.000 C 
ATOM     17  C   UNL     1      21.745 -18.092   0.000  0.00  0.00    +0.000 C 
ATOM     18  C   UNL     1      20.977 -16.750   0.000  0.00  0.00    +0.000 C 
ATOM     19  C   UNL     1      20.970 -17.645   0.000  0.00  0.00    +0.000 C 
ENDROOT
BRANCH   3  20
ATOM     20  C   UNL     1      24.703 -14.711   0.000  0.00  0.00    +0.000 C 
ATOM     21  C   UNL     1      23.989 -14.299   0.000  0.00  0.00    +0.000 C 
ENDBRANCH   3  20
BRANCH   6  22
ATOM     22  C   UNL     1      26.152 -14.801   0.000  0.00  0.00    +0.000 C 
ATOM     23  C   UNL     1      26.821 -14.318   0.000  0.00  0.00    +0.000 C 
ENDBRANCH   6  22
TORSDOF 2
