REMARK  Name = 
REMARK  13 active torsions:
REMARK  status: ('A' for Active; 'I' for Inactive)
REMARK    1  A    between atoms: C_5  and  C_10
REMARK    2  A    between atoms: C_5  and  O_39
REMARK    3  A    between atoms: C_6  and  C_11
REMARK    4  A    between atoms: C_6  and  O_40
REMARK    5  A    between atoms: C_9  and  C_18
REMARK    6  A    between atoms: C_16  and  O_43
REMARK    7  A    between atoms: C_20  and  N_27
REMARK    8  A    between atoms: C_21  and  N_28
REMARK    9  A    between atoms: O_39  and  P_46
REMARK   10  A    between atoms: O_40  and  P_47
REMARK   11  A    between atoms: O_43  and  P_45
REMARK   12  A    between atoms: O_44  and  P_46
REMARK   13  A    between atoms: O_44  and  P_47
REMARK                            x       y       z     vdW  Elec       q    Type
REMARK                         _______ _______ _______ _____ _____    ______ ____
ROOT
ATOM      1  O   UNL     1      -2.474  -0.976   0.000  0.00  0.00    +0.000 OA
ATOM      2  O   UNL     1      -1.504  -2.311   0.000  0.00  0.00    +0.000 OA
ATOM      3  P   UNL     1      -1.989  -1.643   0.000  0.00  0.00    +0.000 P 
ENDROOT
BRANCH   3   4
ATOM      4  O   UNL     1      -1.322  -1.158   0.000  0.00  0.00    +0.000 OA
BRANCH   4   5
ATOM      5  C   UNL     1      -0.568  -1.494   0.000  0.00  0.00    +0.000 C 
BRANCH   5   6
ATOM      6  C   UNL     1       0.099  -1.009   0.000  0.00  0.00    +0.000 C 
ATOM      7  C   UNL     1       0.884  -1.264   0.000  0.00  0.00    +0.000 C 
ATOM      8  C   UNL     1       1.369  -0.597   0.000  0.00  0.00    +0.000 C 
ATOM      9  C   UNL     1       0.884   0.071   0.000  0.00  0.00    +0.000 C 
ATOM     10  O   UNL     1       1.139  -2.049   0.000  0.00  0.00    +0.000 OA
ATOM     11  O   UNL     1       0.099  -0.184   0.000  0.00  0.00    +0.000 OA
BRANCH   9  21
ATOM     12  C   UNL     1       3.352   1.110   0.000  0.00  0.00    +0.000 A 
ATOM     13  C   UNL     1       0.654   1.523   0.000  0.00  0.00    +0.000 A 
ATOM     14  C   UNL     1       1.923   1.935   0.000  0.00  0.00    +0.000 A 
ATOM     15  C   UNL     1       2.638   2.348   0.000  0.00  0.00    +0.000 A 
ATOM     16  C   UNL     1       1.923   1.110   0.000  0.00  0.00    +0.000 A 
ATOM     17  N   UNL     1       2.638   3.173   0.000  0.00  0.00    +0.000 NA
ATOM     18  N   UNL     1       3.352   1.935   0.000  0.00  0.00    +0.000 NA
ATOM     19  N   UNL     1       2.638   0.698   0.000  0.00  0.00    +0.000 NA
ATOM     20  N   UNL     1       1.139   2.190   0.000  0.00  0.00    +0.000 NA
ATOM     21  N   UNL     1       1.139   0.856   0.000  0.00  0.00    +0.000 N 
ENDBRANCH   9  21
BRANCH   8  22
ATOM     22  O   UNL     1       2.194  -0.597   0.000  0.00  0.00    +0.000 OA
BRANCH  22  26
ATOM     23  O   UNL     1       1.892  -1.724   0.000  0.00  0.00    +0.000 OA
ATOM     24  O   UNL     1       3.321  -0.898   0.000  0.00  0.00    +0.000 OA
ATOM     25  O   UNL     1       3.019  -2.026   0.000  0.00  0.00    +0.000 OA
ATOM     26  P   UNL     1       2.606  -1.311   0.000  0.00  0.00    +0.000 P 
ENDBRANCH  22  26
ENDBRANCH   8  22
ENDBRANCH   5   6
ENDBRANCH   4   5
ENDBRANCH   3   4
BRANCH   3  27
ATOM     27  O   UNL     1      -2.657  -2.128   0.000  0.00  0.00    +0.000 OA
BRANCH  27  30
ATOM     28  O   UNL     1      -3.075  -1.039   0.000  0.00  0.00    +0.000 OA
ATOM     29  O   UNL     1      -3.746  -2.546   0.000  0.00  0.00    +0.000 OA
ATOM     30  P   UNL     1      -3.410  -1.793   0.000  0.00  0.00    +0.000 P 
BRANCH  30  31
ATOM     31  O   UNL     1      -4.164  -1.457   0.000  0.00  0.00    +0.000 OA
BRANCH  31  32
ATOM     32  C   UNL     1      -4.832  -1.942   0.000  0.00  0.00    +0.000 C 
BRANCH  32  33
ATOM     33  C   UNL     1      -5.585  -1.607   0.000  0.00  0.00    +0.000 C 
ATOM     34  C   UNL     1      -5.757  -0.799   0.000  0.00  0.00    +0.000 C 
ATOM     35  C   UNL     1      -6.577  -0.713   0.000  0.00  0.00    +0.000 C 
ATOM     36  C   UNL     1      -6.913  -1.467   0.000  0.00  0.00    +0.000 C 
ATOM     37  O   UNL     1      -5.205  -0.186   0.000  0.00  0.00    +0.000 OA
ATOM     38  O   UNL     1      -6.990   0.001   0.000  0.00  0.00    +0.000 OA
ATOM     39  O   UNL     1      -6.300  -2.019   0.000  0.00  0.00    +0.000 OA
BRANCH  36  45
ATOM     40  C   UNL     1      -9.079  -1.197   0.000  0.00  0.00    +0.000 A 
ATOM     41  C   UNL     1      -9.334  -1.982   0.000  0.00  0.00    +0.000 A 
ATOM     42  C   UNL     1      -8.272  -1.025   0.000  0.00  0.00    +0.000 A 
ATOM     43  C   UNL     1      -7.975  -2.423   0.000  0.00  0.00    +0.000 A 
ATOM     44  C   UNL     1      -8.782  -2.595   0.000  0.00  0.00    +0.000 A 
ATOM     45  N   UNL     1      -7.720  -1.639   0.000  0.00  0.00    +0.000 N 
BRANCH  44  46
ATOM     46  C   UNL     1      -9.037  -3.379   0.000  0.00  0.00    +0.000 C 
ATOM     47  N   UNL     1      -9.844  -3.551   0.000  0.00  0.00    +0.000 NA
ATOM     48  S   UNL     1      -8.485  -3.992   0.000  0.00  0.00    +0.000 SA
ENDBRANCH  44  46
ENDBRANCH  36  45
ENDBRANCH  32  33
ENDBRANCH  31  32
ENDBRANCH  30  31
ENDBRANCH  27  30
ENDBRANCH   3  27
TORSDOF 13
