REMARK  Name = 
REMARK  5 active torsions:
REMARK  status: ('A' for Active; 'I' for Inactive)
REMARK    1  A    between atoms: C_1  and  CA_5
REMARK    2  A    between atoms: CG_3  and  CB_4
REMARK    3  A    between atoms: CG_3  and  CD_10
REMARK    4  A    between atoms: CB_4  and  CA_5
REMARK    5  A    between atoms: CA_5  and  N_6
REMARK                            x       y       z     vdW  Elec       q    Type
REMARK                         _______ _______ _______ _____ _____    ______ ____
ROOT
ATOM      1  CA  GLU A   1      -0.004   1.037   0.000  0.00  0.00    +0.000 C 
ENDROOT
BRANCH   1   2
ATOM      2  N   GLU A   1       0.711   1.450   0.000  0.00  0.00    +0.000 NA
ATOM      3  O   UNK A   0       1.425   0.212   0.000  0.00  0.00    +0.000 OA
ATOM      4  C   UNK A   0       1.425   1.037   0.000  0.00  0.00    +0.000 C 
ATOM      5  N   UNK A   0       2.139   1.450   0.000  0.00  0.00    +0.000 NA
ENDBRANCH   1   2
BRANCH   1   6
ATOM      6  C   GLU A   1      -0.718   1.450   0.000  0.00  0.00    +0.000 C 
ATOM      7  O   GLU A   1      -1.433   1.037   0.000  0.00  0.00    +0.000 OA
ATOM      8  OXT GLU A   1      -0.718   2.275   0.000  0.00  0.00    +0.000 OA
ENDBRANCH   1   6
BRANCH   1   9
ATOM      9  CB  GLU A   1      -0.004   0.212   0.000  0.00  0.00    +0.000 C 
BRANCH   9  10
ATOM     10  CG  GLU A   1      -0.718  -0.200   0.000  0.00  0.00    +0.000 C 
BRANCH  10  11
ATOM     11  CD  GLU A   1      -0.718  -1.025   0.000  0.00  0.00    +0.000 C 
ATOM     12  OE1 GLU A   1      -0.004  -1.438   0.000  0.00  0.00    +0.000 OA
ATOM     13  OE2 GLU A   1      -1.433  -1.438   0.000  0.00  0.00    +0.000 OA
ENDBRANCH  10  11
ENDBRANCH   9  10
ENDBRANCH   1   9
TORSDOF 5
