REMARK  Name = 
REMARK  5 active torsions:
REMARK  status: ('A' for Active; 'I' for Inactive)
REMARK    1  A    between atoms: C_6  and  C_9
REMARK    2  A    between atoms: C_7  and  C_12
REMARK    3  A    between atoms: C_7  and  N_18
REMARK    4  A    between atoms: C_8  and  C_13
REMARK    5  A    between atoms: C_13  and  C_14
REMARK                            x       y       z     vdW  Elec       q    Type
REMARK                         _______ _______ _______ _____ _____    ______ ____
ROOT
ATOM      1  C   UNL     1      -0.585   0.946   0.000  0.00  0.00    +0.000 C 
ATOM      2  C   UNL     1      -1.369   0.691   0.000  0.00  0.00    +0.000 C 
ATOM      3  C   UNL     1      -2.449  -0.094   0.000  0.00  0.00    +0.000 C 
ATOM      4  C   UNL     1      -2.037   1.176   0.000  0.00  0.00    +0.000 C 
ATOM      5  N   UNL     1      -1.624  -0.094   0.000  0.00  0.00    +0.000 NA
ATOM      6  N   UNL     1      -2.704   0.691   0.000  0.00  0.00    +0.000 N 
ATOM      7  O   UNL     1      -2.037   2.001   0.000  0.00  0.00    +0.000 OA
ENDROOT
BRANCH   1  12
ATOM      8  C   UNL     1      -0.143  -0.413   0.000  0.00  0.00    +0.000 A 
ATOM      9  C   UNL     1       0.813   0.649   0.000  0.00  0.00    +0.000 A 
ATOM     10  C   UNL     1       0.470  -0.965   0.000  0.00  0.00    +0.000 A 
ATOM     11  C   UNL     1       1.426   0.097   0.000  0.00  0.00    +0.000 A 
ATOM     12  C   UNL     1       0.028   0.394   0.000  0.00  0.00    +0.000 A 
ATOM     13  C   UNL     1       1.255  -0.710   0.000  0.00  0.00    +0.000 A 
ATOM     14  O   UNL     1       1.868  -1.262   0.000  0.00  0.00    +0.000 OA
ENDBRANCH   1  12
BRANCH   3  15
ATOM     15  C   UNL     1      -2.934  -0.761   0.000  0.00  0.00    +0.000 C 
ATOM     16  N   UNL     1      -3.755  -0.675   0.000  0.00  0.00    +0.000 NA
BRANCH  15  18
ATOM     17  C   UNL     1      -1.778  -1.601   0.000  0.00  0.00    +0.000 C 
ATOM     18  C   UNL     1      -2.599  -1.515   0.000  0.00  0.00    +0.000 C 
ATOM     19  O   UNL     1      -3.083  -2.182   0.000  0.00  0.00    +0.000 OA
ENDBRANCH  15  18
ENDBRANCH   3  15
BRANCH   6  20
ATOM     20  C   UNL     1      -3.489   0.946   0.000  0.00  0.00    +0.000 C 
BRANCH  20  21
ATOM     21  C   UNL     1      -3.660   1.753   0.000  0.00  0.00    +0.000 C 
ATOM     22  O   UNL     1      -4.445   2.008   0.000  0.00  0.00    +0.000 OA
ATOM     23  O   UNL     1      -3.047   2.305   0.000  0.00  0.00    +0.000 OA
ENDBRANCH  20  21
ENDBRANCH   6  20
TORSDOF 5
