REMARK  Name = 
REMARK  4 active torsions:
REMARK  status: ('A' for Active; 'I' for Inactive)
REMARK    1  A    between atoms: C_2  and  C_6
REMARK    2  A    between atoms: C_2  and  O_20
REMARK    3  A    between atoms: C_10  and  N_14
REMARK    4  A    between atoms: O_20  and  P_22
REMARK                            x       y       z     vdW  Elec       q    Type
REMARK                         _______ _______ _______ _____ _____    ______ ____
ROOT
ATOM      1  C   UNL     1       0.099  -3.230   0.000  0.00  0.00    +0.000 C 
ATOM      2  C   UNL     1       0.884  -3.485   0.000  0.00  0.00    +0.000 C 
ATOM      3  C   UNL     1       1.369  -2.817   0.000  0.00  0.00    +0.000 C 
ATOM      4  C   UNL     1       0.884  -2.150   0.000  0.00  0.00    +0.000 C 
ATOM      5  O   UNL     1       1.139  -4.269   0.000  0.00  0.00    +0.000 OA
ATOM      6  O   UNL     1       2.194  -2.817   0.000  0.00  0.00    +0.000 OA
ATOM      7  O   UNL     1       0.099  -2.405   0.000  0.00  0.00    +0.000 OA
ENDROOT
BRANCH   4  16
ATOM      8  C   UNL     1       2.638   0.127   0.000  0.00  0.00    +0.000 A 
ATOM      9  C   UNL     1       3.352  -1.110   0.000  0.00  0.00    +0.000 A 
ATOM     10  C   UNL     1       0.654  -0.698   0.000  0.00  0.00    +0.000 A 
ATOM     11  C   UNL     1       1.923  -0.285   0.000  0.00  0.00    +0.000 A 
ATOM     12  C   UNL     1       1.923  -1.110   0.000  0.00  0.00    +0.000 A 
ATOM     13  N   UNL     1       3.352  -0.285   0.000  0.00  0.00    +0.000 NA
ATOM     14  N   UNL     1       2.638  -1.523   0.000  0.00  0.00    +0.000 NA
ATOM     15  N   UNL     1       1.139  -0.030   0.000  0.00  0.00    +0.000 NA
ATOM     16  N   UNL     1       1.139  -1.365   0.000  0.00  0.00    +0.000 N 
ENDBRANCH   4  16
BRANCH   1  17
ATOM     17  C   UNL     1      -0.568  -3.715   0.000  0.00  0.00    +0.000 C 
BRANCH  17  18
ATOM     18  O   UNL     1      -1.322  -3.379   0.000  0.00  0.00    +0.000 OA
BRANCH  18  22
ATOM     19  O   UNL     1      -2.657  -4.349   0.000  0.00  0.00    +0.000 OA
ATOM     20  O   UNL     1      -2.474  -3.197   0.000  0.00  0.00    +0.000 OA
ATOM     21  O   UNL     1      -1.504  -4.532   0.000  0.00  0.00    +0.000 OA
ATOM     22  P   UNL     1      -1.989  -3.864   0.000  0.00  0.00    +0.000 P 
ENDBRANCH  18  22
ENDBRANCH  17  18
ENDBRANCH   1  17
TORSDOF 4
