REMARK  Name = 
REMARK  6 active torsions:
REMARK  status: ('A' for Active; 'I' for Inactive)
REMARK    1  A    between atoms: C_2  and  C_3
REMARK    2  A    between atoms: C_2  and  C_23
REMARK    3  A    between atoms: C_3  and  S_4
REMARK    4  A    between atoms: S_4  and  C_5
REMARK    5  A    between atoms: C_5  and  C_6
REMARK    6  A    between atoms: N_8  and  C_9
REMARK                            x       y       z     vdW  Elec       q    Type
REMARK                         _______ _______ _______ _____ _____    ______ ____
ROOT
ATOM      1  C   UNK     1      -2.143   0.412   0.000  0.00  0.00    +0.000 A 
ATOM      2  C   UNK     1      -2.143   1.238   0.000  0.00  0.00    +0.000 A 
ATOM      3  C   UNK     1      -2.858   1.650   0.000  0.00  0.00    +0.000 A 
ATOM      4  C   UNK     1      -3.572   1.238   0.000  0.00  0.00    +0.000 A 
ATOM      5  N   UNK     1      -4.287   1.650   0.000  0.00  0.00    +0.000 NA
ATOM      6  C   UNK     1      -4.287   2.475   0.000  0.00  0.00    +0.000 A 
ATOM      7  C   UNK     1      -3.572   2.888   0.000  0.00  0.00    +0.000 A 
ATOM      8  C   UNK     1      -2.858   2.475   0.000  0.00  0.00    +0.000 A 
ATOM      9  C   UNK     1      -3.572   0.412   0.000  0.00  0.00    +0.000 A 
ATOM     10  C   UNK     1      -2.858   0.000   0.000  0.00  0.00    +0.000 A 
ATOM     11  C   UNK     1      -2.858  -0.825   0.000  0.00  0.00    +0.000 A 
ATOM     12  C   UNK     1      -3.572  -1.238   0.000  0.00  0.00    +0.000 A 
ATOM     13  C   UNK     1      -4.287  -0.825   0.000  0.00  0.00    +0.000 A 
ATOM     14  N   UNK     1      -4.287   0.000   0.000  0.00  0.00    +0.000 NA
ENDROOT
BRANCH   1  17
ATOM     15  C   UNK     1      -0.715   0.412   0.000  0.00  0.00    +0.000 C 
ATOM     16  O   UNK     1      -0.715   1.238   0.000  0.00  0.00    +0.000 OA
ATOM     17  N   UNK     1      -1.429   0.000   0.000  0.00  0.00    +0.000 NA
BRANCH  15  18
ATOM     18  C   UNK     1       0.000   0.000   0.000  0.00  0.00    +0.000 C 
BRANCH  18  19
ATOM     19  S   UNK     1       0.715   0.412   0.000  0.00  0.00    +0.000 S 
BRANCH  19  20
ATOM     20  C   UNK     1       1.429   0.000   0.000  0.00  0.00    +0.000 C 
BRANCH  20  22
ATOM     21  N   UNK     1       2.143   1.238   0.000  0.00  0.00    +0.000 NA
ATOM     22  C   UNK     1       2.143   0.412   0.000  0.00  0.00    +0.000 C 
BRANCH  22  23
ATOM     23  C   UNK     1       2.858   0.000   0.000  0.00  0.00    +0.000 C 
ATOM     24  O   UNK     1       3.572   0.412   0.000  0.00  0.00    +0.000 OA
ATOM     25  O   UNK     1       2.858  -0.825   0.000  0.00  0.00    +0.000 OA
ENDBRANCH  22  23
ENDBRANCH  20  22
ENDBRANCH  19  20
ENDBRANCH  18  19
ENDBRANCH  15  18
ENDBRANCH   1  17
TORSDOF 6
