REMARK  Name = 
REMARK  14 active torsions:
REMARK  status: ('A' for Active; 'I' for Inactive)
REMARK    1  A    between atoms: O_4  and  C_20
REMARK    2  A    between atoms: N_8  and  C_10
REMARK    3  A    between atoms: N_8  and  C_13
REMARK    4  A    between atoms: N_9  and  C_11
REMARK    5  A    between atoms: C_10  and  C_12
REMARK    6  A    between atoms: C_11  and  C_14
REMARK    7  A    between atoms: C_11  and  C_15
REMARK    8  A    between atoms: C_12  and  C_16
REMARK    9  A    between atoms: C_13  and  C_17
REMARK   10  A    between atoms: C_15  and  C_19
REMARK   11  A    between atoms: C_16  and  C_18
REMARK   12  A    between atoms: C_17  and  C_20
REMARK   13  A    between atoms: C_19  and  C_23
REMARK   14  A    between atoms: C_22  and  C_24
REMARK                            x       y       z     vdW  Elec       q    Type
REMARK                         _______ _______ _______ _____ _____    ______ ____
ROOT
ATOM      1  C   UNL     1       3.793   0.206   0.000  0.00  0.00    +0.000 C 
ENDROOT
BRANCH   1   4
ATOM      2  O   UNL     1       5.222   0.206   0.000  0.00  0.00    +0.000 OA
ATOM      3  N   UNL     1       4.508   1.444   0.000  0.00  0.00    +0.000 N 
ATOM      4  C   UNL     1       4.508   0.619   0.000  0.00  0.00    +0.000 C 
BRANCH   3   5
ATOM      5  C   UNL     1       3.793   1.856   0.000  0.00  0.00    +0.000 C 
BRANCH   5   6
ATOM      6  C   UNL     1       3.793   2.681   0.000  0.00  0.00    +0.000 C 
BRANCH   6   7
ATOM      7  C   UNL     1       3.079   3.094   0.000  0.00  0.00    +0.000 C 
BRANCH   7   8
ATOM      8  O   UNL     1       3.079   3.919   0.000  0.00  0.00    +0.000 OA
ATOM      9  C   UNL     1       2.365   4.331   0.000  0.00  0.00    +0.000 C 
ENDBRANCH   7   8
ENDBRANCH   6   7
ENDBRANCH   5   6
ENDBRANCH   3   5
BRANCH   3  10
ATOM     10  C   UNL     1       5.222   1.856   0.000  0.00  0.00    +0.000 C 
BRANCH  10  11
ATOM     11  C   UNL     1       5.222   2.681   0.000  0.00  0.00    +0.000 C 
BRANCH  11  12
ATOM     12  C   UNL     1       5.937   3.094   0.000  0.00  0.00    +0.000 C 
BRANCH  12  13
ATOM     13  C   UNL     1       5.937   3.919   0.000  0.00  0.00    +0.000 C 
ATOM     14  C   UNL     1       6.652   4.331   0.000  0.00  0.00    +0.000 C 
ENDBRANCH  12  13
ENDBRANCH  11  12
ENDBRANCH  10  11
ENDBRANCH   3  10
ENDBRANCH   1   4
BRANCH   1  16
ATOM     15  O   UNL     1       2.365  -0.619   0.000  0.00  0.00    +0.000 OA
ATOM     16  N   UNL     1       3.793  -0.619   0.000  0.00  0.00    +0.000 NA
ATOM     17  C   UNL     1       3.079  -1.031   0.000  0.00  0.00    +0.000 C 
BRANCH  17  20
ATOM     18 CL   UNL     1       1.650  -3.506   0.000  0.00  0.00    +0.000 Cl
ATOM     19 CL   UNL     1       3.079  -4.331   0.000  0.00  0.00    +0.000 Cl
ATOM     20  C   UNL     1       3.079  -1.856   0.000  0.00  0.00    +0.000 A 
ATOM     21  C   UNL     1       2.365  -2.269   0.000  0.00  0.00    +0.000 A 
ATOM     22  C   UNL     1       3.793  -2.269   0.000  0.00  0.00    +0.000 A 
ATOM     23  C   UNL     1       2.365  -3.094   0.000  0.00  0.00    +0.000 A 
ATOM     24  C   UNL     1       3.793  -3.094   0.000  0.00  0.00    +0.000 A 
ATOM     25  C   UNL     1       3.079  -3.506   0.000  0.00  0.00    +0.000 A 
ENDBRANCH  17  20
ENDBRANCH   1  16
BRANCH   1  26
ATOM     26  C   UNL     1       3.079   0.619   0.000  0.00  0.00    +0.000 C 
BRANCH  26  27
ATOM     27  C   UNL     1       3.079   1.444   0.000  0.00  0.00    +0.000 C 
BRANCH  27  30
ATOM     28  O   UNL     1       2.365   2.681   0.000  0.00  0.00    +0.000 OA
ATOM     29  O   UNL     1       1.650   1.444   0.000  0.00  0.00    +0.000 OA
ATOM     30  C   UNL     1       2.365   1.856   0.000  0.00  0.00    +0.000 C 
ENDBRANCH  27  30
ENDBRANCH  26  27
ENDBRANCH   1  26
TORSDOF 14
