REMARK  Name = 
REMARK  5 active torsions:
REMARK  status: ('A' for Active; 'I' for Inactive)
REMARK    1  A    between atoms: C_8  and  C_11
REMARK    2  A    between atoms: C_11  and  C_12
REMARK    3  A    between atoms: C_11  and  C_20
REMARK    4  A    between atoms: C_17  and  N_24
REMARK    5  A    between atoms: C_20  and  C_21
REMARK                            x       y       z     vdW  Elec       q    Type
REMARK                         _______ _______ _______ _____ _____    ______ ____
ROOT
ATOM      1  C   UNL     1      13.019 -10.395   0.000  0.00  0.00    +0.000 C 
ENDROOT
BRANCH   1   9
ATOM      2  C   UNL     1       9.446  -9.158   0.000  0.00  0.00    +0.000 A 
ATOM      3  C   UNL     1       9.446  -9.982   0.000  0.00  0.00    +0.000 A 
ATOM      4  C   UNL     1      10.161 -10.395   0.000  0.00  0.00    +0.000 A 
ATOM      5  C   UNL     1      10.875  -9.982   0.000  0.00  0.00    +0.000 A 
ATOM      6  C   UNL     1      10.875  -9.158   0.000  0.00  0.00    +0.000 A 
ATOM      7  C   UNL     1      10.161  -8.745   0.000  0.00  0.00    +0.000 A 
ATOM      8  C   UNL     1      11.590 -10.395   0.000  0.00  0.00    +0.000 A 
ATOM      9  C   UNL     1      12.304  -9.982   0.000  0.00  0.00    +0.000 A 
ATOM     10  C   UNL     1      12.304  -9.158   0.000  0.00  0.00    +0.000 A 
ATOM     11  O   UNL     1      11.590  -8.745   0.000  0.00  0.00    +0.000 OA
ATOM     12  O   UNL     1      13.019  -8.745   0.000  0.00  0.00    +0.000 OA
ATOM     13  O   UNL     1      11.590 -11.220   0.000  0.00  0.00    +0.000 OA
ENDBRANCH   1   9
BRANCH   1  14
ATOM     14  C   UNL     1      13.733  -9.982   0.000  0.00  0.00    +0.000 A 
ATOM     15  C   UNL     1      13.733  -9.158   0.000  0.00  0.00    +0.000 A 
ATOM     16  C   UNL     1      14.447 -10.395   0.000  0.00  0.00    +0.000 A 
ATOM     17  C   UNL     1      15.162  -9.982   0.000  0.00  0.00    +0.000 A 
ATOM     18  C   UNL     1      15.162  -9.158   0.000  0.00  0.00    +0.000 A 
ATOM     19  C   UNL     1      14.447  -8.745   0.000  0.00  0.00    +0.000 A 
BRANCH  18  20
ATOM     20  N   UNL     1      15.890  -8.737   0.000  0.00  0.00    +0.000 N 
ATOM     21  O   UNL     1      16.601  -9.148   0.000  0.00  0.00    +0.000 OA
ATOM     22  O   UNL     1      15.890  -7.920   0.000  0.00  0.00    +0.000 OA
ENDBRANCH  18  20
ENDBRANCH   1  14
BRANCH   1  23
ATOM     23  C   UNL     1      13.019 -11.220   0.000  0.00  0.00    +0.000 C 
BRANCH  23  24
ATOM     24  C   UNL     1      13.745 -11.640   0.000  0.00  0.00    +0.000 C 
ATOM     25  C   UNL     1      14.456 -11.229   0.000  0.00  0.00    +0.000 C 
ATOM     26  O   UNL     1      13.745 -12.457   0.000  0.00  0.00    +0.000 OA
ENDBRANCH  23  24
ENDBRANCH   1  23
TORSDOF 5
