REMARK  Name = 
REMARK  5 active torsions:
REMARK  status: ('A' for Active; 'I' for Inactive)
REMARK    1  A    between atoms: N_4  and  C_57
REMARK    2  A    between atoms: C_15  and  O_44
REMARK    3  A    between atoms: C_31  and  O_39
REMARK    4  A    between atoms: O_44  and  C_46
REMARK    5  A    between atoms: C_57  and  C_58
REMARK                            x       y       z     vdW  Elec       q    Type
REMARK                         _______ _______ _______ _____ _____    ______ ____
ROOT
ATOM      1  C   UNL     1      15.406 -12.093   0.000  0.00  0.00    +0.000 C 
ATOM      2  C   UNL     1      15.402 -12.919   0.000  0.00  0.00    +0.000 C 
ATOM      3  C   UNL     1      16.112 -13.334   0.000  0.00  0.00    +0.000 C 
ATOM      4  N   UNL     1      16.831 -12.927   0.000  0.00  0.00    +0.000 NA
ATOM      5  C   UNL     1      16.836 -12.100   0.000  0.00  0.00    +0.000 C 
ATOM      6  C   UNL     1      16.121 -11.681   0.000  0.00  0.00    +0.000 C 
ATOM      7  C   UNL     1      13.268 -10.025   0.000  0.00  0.00    +0.000 A 
ATOM      8  C   UNL     1      13.265 -10.851   0.000  0.00  0.00    +0.000 A 
ATOM      9  C   UNL     1      12.554 -11.267   0.000  0.00  0.00    +0.000 A 
ATOM     10  C   UNL     1      12.554 -12.095   0.000  0.00  0.00    +0.000 C 
ATOM     11  C   UNL     1      11.834 -10.861   0.000  0.00  0.00    +0.000 A 
ATOM     12  C   UNL     1      11.126  -9.621   0.000  0.00  0.00    +0.000 C 
ATOM     13  C   UNL     1      11.836 -10.040   0.000  0.00  0.00    +0.000 A 
ATOM     14  C   UNL     1      12.549  -9.633   0.000  0.00  0.00    +0.000 A 
ATOM     15  C   UNL     1      11.132  -8.799   0.000  0.00  0.00    +0.000 C 
ATOM     16  C   UNL     1      11.850  -8.395   0.000  0.00  0.00    +0.000 C 
ATOM     17  C   UNL     1      12.570  -7.169   0.000  0.00  0.00    +0.000 C 
ATOM     18  C   UNL     1      11.858  -7.570   0.000  0.00  0.00    +0.000 C 
ATOM     19  C   UNL     1      13.278  -7.585   0.000  0.00  0.00    +0.000 C 
ATOM     20  O   UNL     1      13.269  -8.406   0.000  0.00  0.00    +0.000 OA
ATOM     21  C   UNL     1      13.992  -7.186   0.000  0.00  0.00    +0.000 C 
ATOM     22  C   UNL     1      14.697  -7.601   0.000  0.00  0.00    +0.000 C 
ATOM     23  C   UNL     1      16.099  -8.432   0.000  0.00  0.00    +0.000 C 
ATOM     24  C   UNL     1      16.105  -7.618   0.000  0.00  0.00    +0.000 C 
ATOM     25  C   UNL     1      15.408  -7.205   0.000  0.00  0.00    +0.000 C 
ATOM     26  C   UNL     1      15.388  -8.833   0.000  0.00  0.00    +0.000 C 
ATOM     27  C   UNL     1      13.968  -9.617   0.000  0.00  0.00    +0.000 C 
ATOM     28  C   UNL     1      14.663 -10.036   0.000  0.00  0.00    +0.000 C 
ATOM     29  N   UNL     1      15.373  -9.642   0.000  0.00  0.00    +0.000 NA
ATOM     30  O   UNL     1      13.142 -12.676   0.000  0.00  0.00    +0.000 OA
ATOM     31  C   UNL     1      10.406 -10.034   0.000  0.00  0.00    +0.000 C 
ATOM     32  C   UNL     1      10.404 -10.857   0.000  0.00  0.00    +0.000 C 
ATOM     33  C   UNL     1       9.689 -11.264   0.000  0.00  0.00    +0.000 C 
ATOM     34  O   UNL     1       9.683 -12.085   0.000  0.00  0.00    +0.000 OA
ATOM     35  C   UNL     1      11.108 -12.095   0.000  0.00  0.00    +0.000 C 
ATOM     36  O   UNL     1      11.114 -11.274   0.000  0.00  0.00    +0.000 OA
ATOM     37  C   UNL     1      11.103 -12.919   0.000  0.00  0.00    +0.000 C 
ATOM     38  C   UNL     1      16.807  -8.857   0.000  0.00  0.00    +0.000 C 
ATOM     39  C   UNL     1      10.405  -9.207   0.000  0.00  0.00    +0.000 C 
ATOM     40  C   UNL     1      12.579  -6.343   0.000  0.00  0.00    +0.000 C 
ATOM     41  C   UNL     1      14.002  -6.360   0.000  0.00  0.00    +0.000 C 
ATOM     42  O   UNL     1      11.146  -7.146   0.000  0.00  0.00    +0.000 OA
ATOM     43  O   UNL     1      13.974  -8.790   0.000  0.00  0.00    +0.000 OA
ATOM     44  O   UNL     1      12.541  -8.805   0.000  0.00  0.00    +0.000 OA
ATOM     45  C   UNL     1      11.128  -7.978   0.000  0.00  0.00    +0.000 C 
ATOM     46  O   UNL     1      14.677  -8.406   0.000  0.00  0.00    +0.000 OA
ATOM     47  C   UNL     1      14.699 -10.853   0.000  0.00  0.00    +0.000 C 
ATOM     48  C   UNL     1      13.981 -11.264   0.000  0.00  0.00    +0.000 C 
ATOM     49  N   UNL     1      13.977 -12.089   0.000  0.00  0.00    +0.000 NA
ATOM     50  N   UNL     1      15.413 -11.271   0.000  0.00  0.00    +0.000 NA
ATOM     51  C   UNL     1      11.831  -9.190   0.000  0.00  0.00    +0.000 C 
ENDROOT
BRANCH  31  52
ATOM     52  O   UNL     1       9.691  -9.616   0.000  0.00  0.00    +0.000 OA
ATOM     53  C   UNL     1       8.976 -10.028   0.000  0.00  0.00    +0.000 C 
ENDBRANCH  31  52
BRANCH  15  54
ATOM     54  O   UNL     1      10.419  -8.382   0.000  0.00  0.00    +0.000 OA
BRANCH  54  55
ATOM     55  C   UNL     1       9.698  -7.965   0.000  0.00  0.00    +0.000 C 
ATOM     56  C   UNL     1       8.982  -8.382   0.000  0.00  0.00    +0.000 C 
ATOM     57  O   UNL     1       9.697  -7.139   0.000  0.00  0.00    +0.000 OA
ENDBRANCH  54  55
ENDBRANCH  15  54
BRANCH   4  58
ATOM     58  C   UNL     1      17.547 -13.342   0.000  0.00  0.00    +0.000 C 
BRANCH  58  59
ATOM     59  C   UNL     1      18.266 -12.934   0.000  0.00  0.00    +0.000 C 
ATOM     60  C   UNL     1      18.981 -13.349   0.000  0.00  0.00    +0.000 C 
ATOM     61  C   UNL     1      18.270 -12.108   0.000  0.00  0.00    +0.000 C 
ENDBRANCH  58  59
ENDBRANCH   4  58
TORSDOF 5
