REMARK  Name = 
REMARK  2 active torsions:
REMARK  status: ('A' for Active; 'I' for Inactive)
REMARK    1  A    between atoms: C_3  and  C_4
REMARK    2  A    between atoms: C_4  and  C_5
REMARK                            x       y       z     vdW  Elec       q    Type
REMARK                         _______ _______ _______ _____ _____    ______ ____
ROOT
ATOM      1  C   UNL     1      -0.884   0.884   0.000  0.00  0.00    +0.000 C 
ATOM      2  C   UNL     1      -0.100   0.629   0.000  0.00  0.00    +0.000 A 
ATOM      3  C   UNL     1       0.568   1.114   0.000  0.00  0.00    +0.000 A 
ATOM      4  S   UNL     1       1.235   0.629   0.000  0.00  0.00    +0.000 S 
ATOM      5  C   UNL     1       0.980  -0.155   0.000  0.00  0.00    +0.000 A 
ATOM      6  N   UNL     1       0.155  -0.155   0.000  0.00  0.00    +0.000 NA
ENDROOT
BRANCH   3   7
ATOM      7  C   UNL     1       0.568   1.939   0.000  0.00  0.00    +0.000 C 
BRANCH   7   8
ATOM      8  C   UNL     1       1.282   2.352   0.000  0.00  0.00    +0.000 C 
ATOM      9  O   UNL     1       1.282   3.177   0.000  0.00  0.00    +0.000 OA
ENDBRANCH   7   8
ENDBRANCH   3   7
TORSDOF 2
