REMARK  Name = 
REMARK  3 active torsions:
REMARK  status: ('A' for Active; 'I' for Inactive)
REMARK    1  A    between atoms: C_12  and  O_21
REMARK    2  A    between atoms: C_13  and  C_16
REMARK    3  A    between atoms: C_14  and  O_21
REMARK                            x       y       z     vdW  Elec       q    Type
REMARK                         _______ _______ _______ _____ _____    ______ ____
ROOT
ATOM      1  C   UNL     1       0.715   2.062   0.000  0.00  0.00    +0.000 A 
ATOM      2  C   UNL     1       1.429   2.475   0.000  0.00  0.00    +0.000 A 
ATOM      3  C   UNL     1       1.429   0.825   0.000  0.00  0.00    +0.000 A 
ATOM      4  C   UNL     1       3.572   1.238   0.000  0.00  0.00    +0.000 A 
ATOM      5  C   UNL     1       0.715   1.238   0.000  0.00  0.00    +0.000 A 
ATOM      6  C   UNL     1       2.143   2.062   0.000  0.00  0.00    +0.000 A 
ATOM      7  C   UNL     1       3.572   2.062   0.000  0.00  0.00    +0.000 A 
ATOM      8  C   UNL     1       2.143   1.238   0.000  0.00  0.00    +0.000 A 
ATOM      9  C   UNL     1       2.858   2.475   0.000  0.00  0.00    +0.000 A 
ATOM     10  O   UNL     1       2.858   3.300   0.000  0.00  0.00    +0.000 OA
ATOM     11  O   UNL     1       2.858   0.825   0.000  0.00  0.00    +0.000 OA
ENDROOT
BRANCH   7  17
ATOM     12  C   UNL     1       5.716   3.300   0.000  0.00  0.00    +0.000 A 
ATOM     13  C   UNL     1       5.001   3.712   0.000  0.00  0.00    +0.000 A 
ATOM     14  C   UNL     1       5.716   2.475   0.000  0.00  0.00    +0.000 A 
ATOM     15  C   UNL     1       4.287   3.300   0.000  0.00  0.00    +0.000 A 
ATOM     16  C   UNL     1       5.001   2.062   0.000  0.00  0.00    +0.000 A 
ATOM     17  C   UNL     1       4.287   2.475   0.000  0.00  0.00    +0.000 A 
ENDBRANCH   7  17
BRANCH   5  18
ATOM     18  O   UNL     1       0.000   0.825   0.000  0.00  0.00    +0.000 OA
BRANCH  18  21
ATOM     19  C   UNL     1      -0.715  -0.412   0.000  0.00  0.00    +0.000 C 
ATOM     20  C   UNL     1       0.715  -0.412   0.000  0.00  0.00    +0.000 C 
ATOM     21  C   UNL     1       0.000   0.000   0.000  0.00  0.00    +0.000 C 
ENDBRANCH  18  21
ENDBRANCH   5  18
TORSDOF 3
