REMARK  Name = 
REMARK  9 active torsions:
REMARK  status: ('A' for Active; 'I' for Inactive)
REMARK    1  A    between atoms: C_3  and  C_7
REMARK    2  A    between atoms: C_3  and  O_29
REMARK    3  A    between atoms: C_4  and  C_16
REMARK    4  A    between atoms: C_11  and  C_15
REMARK    5  A    between atoms: C_11  and  C_16
REMARK    6  A    between atoms: C_14  and  N_21
REMARK    7  A    between atoms: C_15  and  O_31
REMARK    8  A    between atoms: O_29  and  P_32
REMARK    9  A    between atoms: O_31  and  P_32
REMARK                            x       y       z     vdW  Elec       q    Type
REMARK                         _______ _______ _______ _____ _____    ______ ____
ROOT
ATOM      1  C   UNL     1       0.099  -1.009   0.000  0.00  0.00    +0.000 C 
ATOM      2  C   UNL     1       0.884  -1.264   0.000  0.00  0.00    +0.000 C 
ATOM      3  C   UNL     1       1.369  -0.597   0.000  0.00  0.00    +0.000 C 
ATOM      4  C   UNL     1       0.884   0.071   0.000  0.00  0.00    +0.000 C 
ATOM      5  O   UNL     1       1.139  -2.049   0.000  0.00  0.00    +0.000 OA
ATOM      6  O   UNL     1       2.194  -0.597   0.000  0.00  0.00    +0.000 OA
ATOM      7  O   UNL     1       0.099  -0.184   0.000  0.00  0.00    +0.000 OA
ENDROOT
BRANCH   4  17
ATOM      8  C   UNL     1       3.352   1.110   0.000  0.00  0.00    +0.000 A 
ATOM      9  C   UNL     1       0.654   1.523   0.000  0.00  0.00    +0.000 A 
ATOM     10  C   UNL     1       1.923   1.935   0.000  0.00  0.00    +0.000 A 
ATOM     11  C   UNL     1       2.638   2.348   0.000  0.00  0.00    +0.000 A 
ATOM     12  C   UNL     1       1.923   1.110   0.000  0.00  0.00    +0.000 A 
ATOM     13  N   UNL     1       2.638   3.173   0.000  0.00  0.00    +0.000 NA
ATOM     14  N   UNL     1       3.352   1.935   0.000  0.00  0.00    +0.000 NA
ATOM     15  N   UNL     1       2.638   0.698   0.000  0.00  0.00    +0.000 NA
ATOM     16  N   UNL     1       1.139   2.190   0.000  0.00  0.00    +0.000 NA
ATOM     17  N   UNL     1       1.139   0.856   0.000  0.00  0.00    +0.000 N 
ENDBRANCH   4  17
BRANCH   1  18
ATOM     18  C   UNL     1      -0.568  -1.494   0.000  0.00  0.00    +0.000 C 
BRANCH  18  19
ATOM     19  O   UNL     1      -1.322  -1.158   0.000  0.00  0.00    +0.000 OA
BRANCH  19  22
ATOM     20  O   UNL     1      -2.474  -0.976   0.000  0.00  0.00    +0.000 OA
ATOM     21  O   UNL     1      -1.504  -2.311   0.000  0.00  0.00    +0.000 OA
ATOM     22  P   UNL     1      -1.989  -1.643   0.000  0.00  0.00    +0.000 P 
BRANCH  22  23
ATOM     23  O   UNL     1      -2.657  -2.128   0.000  0.00  0.00    +0.000 OA
BRANCH  23  24
ATOM     24  C   UNL     1      -3.410  -1.793   0.000  0.00  0.00    +0.000 C 
ATOM     25  O   UNL     1      -3.497  -0.972   0.000  0.00  0.00    +0.000 OA
BRANCH  24  26
ATOM     26  C   UNL     1      -4.078  -2.278   0.000  0.00  0.00    +0.000 C 
ATOM     27  O   UNL     1      -3.992  -3.098   0.000  0.00  0.00    +0.000 OA
BRANCH  26  30
ATOM     28  C   UNL     1      -4.496  -1.188   0.000  0.00  0.00    +0.000 C 
ATOM     29  C   UNL     1      -5.167  -2.696   0.000  0.00  0.00    +0.000 C 
ATOM     30  C   UNL     1      -4.832  -1.942   0.000  0.00  0.00    +0.000 C 
BRANCH  30  31
ATOM     31  C   UNL     1      -5.585  -1.607   0.000  0.00  0.00    +0.000 C 
ATOM     32  O   UNL     1      -6.253  -2.091   0.000  0.00  0.00    +0.000 OA
ENDBRANCH  30  31
ENDBRANCH  26  30
ENDBRANCH  24  26
ENDBRANCH  23  24
ENDBRANCH  22  23
ENDBRANCH  19  22
ENDBRANCH  18  19
ENDBRANCH   1  18
TORSDOF 9
