REMARK  Name = 
REMARK  8 active torsions:
REMARK  status: ('A' for Active; 'I' for Inactive)
REMARK    1  A    between atoms: C_7  and  C_20
REMARK    2  A    between atoms: C_8  and  C_21
REMARK    3  A    between atoms: C_9  and  C_11
REMARK    4  A    between atoms: C_9  and  C_22
REMARK    5  A    between atoms: C_10  and  C_12
REMARK    6  A    between atoms: C_10  and  C_23
REMARK    7  A    between atoms: C_11  and  C_30
REMARK    8  A    between atoms: C_12  and  C_31
REMARK                            x       y       z     vdW  Elec       q    Type
REMARK                         _______ _______ _______ _____ _____    ______ ____
ROOT
ATOM      1  C   UNL     1       0.774   0.524   0.000  0.00  0.00    +0.000 C 
ATOM      2  C   UNL     1      -3.335   1.105   0.000  0.00  0.00    +0.000 C 
ATOM      3  C   UNL     1       3.360  -0.908   0.000  0.00  0.00    +0.000 C 
ATOM      4  C   UNL     1       0.815  -3.403   0.000  0.00  0.00    +0.000 C 
ATOM      5  C   UNL     1      -1.389   1.679   0.000  0.00  0.00    +0.000 C 
ATOM      6  C   UNL     1       1.595   1.485   0.000  0.00  0.00    +0.000 C 
ATOM      7  C   UNL     1      -1.583  -1.304   0.000  0.00  0.00    +0.000 C 
ATOM      8  C   UNL     1       0.352   1.239   0.000  0.00  0.00    +0.000 A 
ATOM      9  C   UNL     1      -2.709   0.539   0.000  0.00  0.00    +0.000 A 
ATOM     10  C   UNL     1       2.720  -0.358   0.000  0.00  0.00    +0.000 A 
ATOM     11  C   UNL     1       0.381  -2.678   0.000  0.00  0.00    +0.000 A 
ATOM     12  C   UNL     1      -0.471   1.293   0.000  0.00  0.00    +0.000 A 
ATOM     13  C   UNL     1       2.774   0.465   0.000  0.00  0.00    +0.000 A 
ATOM     14  C   UNL     1      -2.763  -0.284   0.000  0.00  0.00    +0.000 A 
ATOM     15  C   UNL     1      -0.443  -2.624   0.000  0.00  0.00    +0.000 A 
ATOM     16  C   UNL     1       0.658   2.005   0.000  0.00  0.00    +0.000 A 
ATOM     17  C   UNL     1      -1.909   0.742   0.000  0.00  0.00    +0.000 A 
ATOM     18  C   UNL     1      -0.674   2.092   0.000  0.00  0.00    +0.000 A 
ATOM     19  C   UNL     1       2.008   0.770   0.000  0.00  0.00    +0.000 A 
ATOM     20  C   UNL     1      -1.996  -0.590   0.000  0.00  0.00    +0.000 A 
ATOM     21  C   UNL     1      -0.646  -1.825   0.000  0.00  0.00    +0.000 A 
ATOM     22  C   UNL     1       1.921  -0.562   0.000  0.00  0.00    +0.000 A 
ATOM     23  C   UNL     1       0.686  -1.912   0.000  0.00  0.00    +0.000 A 
ATOM     24  C   UNL     1       1.400  -1.499   0.000  0.00  0.00    +0.000 C 
ATOM     25  N   UNL     1       0.023   2.533   0.000  0.00  0.00    +0.000 N 
ATOM     26  N   UNL     1      -1.469   0.044   0.000  0.00  0.00    +0.000 N 
ATOM     27  N   UNL     1       1.480   0.136   0.000  0.00  0.00    +0.000 N 
ATOM     28  N   UNL     1       0.052  -1.385   0.000  0.00  0.00    +0.000 N 
ATOM     29  O   UNL     1       2.004  -2.090   0.000  0.00  0.00    +0.000 OA
ATOM     30 ZN   UNL     1       0.022   0.332   0.000  0.00  0.00    +0.000 Zn
ENDROOT
BRANCH  12  32
ATOM     31  C   UNL     1      -0.608  -0.299   0.000  0.00  0.00    +0.000 C 
ATOM     32  C   UNL     1      -0.668   0.501   0.000  0.00  0.00    +0.000 C 
ENDBRANCH  12  32
BRANCH  13  34
ATOM     33  C   UNL     1       4.333   0.730   0.000  0.00  0.00    +0.000 C 
ATOM     34  C   UNL     1       3.510   0.902   0.000  0.00  0.00    +0.000 C 
ENDBRANCH  13  34
BRANCH  14  35
ATOM     35  C   UNL     1      -3.502  -0.731   0.000  0.00  0.00    +0.000 C 
BRANCH  35  36
ATOM     36  C   UNL     1      -4.320  -0.513   0.000  0.00  0.00    +0.000 C 
BRANCH  36  37
ATOM     37  C   UNL     1      -4.902  -1.097   0.000  0.00  0.00    +0.000 C 
ATOM     38  O   UNL     1      -4.688  -1.894   0.000  0.00  0.00    +0.000 OA
ATOM     39  O   UNL     1      -5.700  -0.885   0.000  0.00  0.00    +0.000 OA
ENDBRANCH  36  37
ENDBRANCH  35  36
ENDBRANCH  14  35
BRANCH  15  40
ATOM     40  C   UNL     1      -0.956  -3.319   0.000  0.00  0.00    +0.000 C 
BRANCH  40  41
ATOM     41  C   UNL     1      -0.853  -4.158   0.000  0.00  0.00    +0.000 C 
BRANCH  41  42
ATOM     42  C   UNL     1      -1.512  -4.655   0.000  0.00  0.00    +0.000 C 
ATOM     43  O   UNL     1      -1.411  -5.474   0.000  0.00  0.00    +0.000 OA
ATOM     44  O   UNL     1      -2.271  -4.332   0.000  0.00  0.00    +0.000 OA
ENDBRANCH  41  42
ENDBRANCH  40  41
ENDBRANCH  15  40
TORSDOF 8
