REMARK  Name = 
REMARK  93 active torsions:
REMARK  status: ('A' for Active; 'I' for Inactive)
REMARK    1  A    between atoms: C_10  and  C_11
REMARK    2  A    between atoms: C_11  and  O_76
REMARK    3  A    between atoms: C_12  and  C_13
REMARK    4  A    between atoms: C_12  and  O_76
REMARK    5  A    between atoms: C_13  and  O_77
REMARK    6  A    between atoms: C_14  and  C_15
REMARK    7  A    between atoms: C_14  and  O_77
REMARK    8  A    between atoms: C_15  and  O_78
REMARK    9  A    between atoms: C_16  and  C_17
REMARK   10  A    between atoms: C_16  and  O_78
REMARK   11  A    between atoms: C_17  and  O_79
REMARK   12  A    between atoms: C_18  and  C_19
REMARK   13  A    between atoms: C_18  and  O_79
REMARK   14  A    between atoms: C_19  and  O_80
REMARK   15  A    between atoms: C_20  and  C_21
REMARK   16  A    between atoms: C_20  and  O_80
REMARK   17  A    between atoms: C_21  and  O_81
REMARK   18  A    between atoms: C_22  and  C_23
REMARK   19  A    between atoms: C_22  and  O_81
REMARK   20  A    between atoms: C_23  and  O_82
REMARK   21  A    between atoms: C_24  and  C_25
REMARK   22  A    between atoms: C_24  and  O_82
REMARK   23  A    between atoms: C_25  and  O_83
REMARK   24  A    between atoms: C_26  and  C_27
REMARK   25  A    between atoms: C_26  and  O_83
REMARK   26  A    between atoms: C_27  and  O_84
REMARK   27  A    between atoms: C_28  and  C_29
REMARK   28  A    between atoms: C_28  and  O_84
REMARK   29  A    between atoms: C_29  and  O_85
REMARK   30  A    between atoms: C_30  and  C_31
REMARK   31  A    between atoms: C_30  and  O_85
REMARK   32  A    between atoms: C_31  and  O_86
REMARK   33  A    between atoms: C_32  and  C_33
REMARK   34  A    between atoms: C_32  and  O_86
REMARK   35  A    between atoms: C_33  and  O_87
REMARK   36  A    between atoms: C_34  and  C_35
REMARK   37  A    between atoms: C_34  and  O_87
REMARK   38  A    between atoms: C_35  and  O_88
REMARK   39  A    between atoms: C_36  and  C_37
REMARK   40  A    between atoms: C_36  and  O_88
REMARK   41  A    between atoms: C_37  and  O_89
REMARK   42  A    between atoms: C_38  and  C_39
REMARK   43  A    between atoms: C_38  and  O_89
REMARK   44  A    between atoms: C_39  and  O_90
REMARK   45  A    between atoms: C_40  and  C_41
REMARK   46  A    between atoms: C_40  and  O_90
REMARK   47  A    between atoms: C_41  and  O_91
REMARK   48  A    between atoms: C_42  and  C_43
REMARK   49  A    between atoms: C_42  and  O_91
REMARK   50  A    between atoms: C_43  and  O_92
REMARK   51  A    between atoms: C_44  and  C_45
REMARK   52  A    between atoms: C_44  and  O_92
REMARK   53  A    between atoms: C_45  and  O_93
REMARK   54  A    between atoms: C_46  and  C_47
REMARK   55  A    between atoms: C_46  and  O_93
REMARK   56  A    between atoms: C_47  and  O_94
REMARK   57  A    between atoms: C_48  and  C_49
REMARK   58  A    between atoms: C_48  and  O_94
REMARK   59  A    between atoms: C_49  and  O_95
REMARK   60  A    between atoms: C_50  and  C_51
REMARK   61  A    between atoms: C_50  and  O_95
REMARK   62  A    between atoms: C_51  and  O_96
REMARK   63  A    between atoms: C_52  and  C_53
REMARK   64  A    between atoms: C_52  and  O_96
REMARK   65  A    between atoms: C_53  and  O_97
REMARK   66  A    between atoms: C_54  and  C_55
REMARK   67  A    between atoms: C_54  and  O_97
REMARK   68  A    between atoms: C_55  and  O_98
REMARK   69  A    between atoms: C_56  and  C_57
REMARK   70  A    between atoms: C_56  and  O_98
REMARK   71  A    between atoms: C_57  and  O_99
REMARK   72  A    between atoms: C_58  and  C_59
REMARK   73  A    between atoms: C_58  and  O_99
REMARK   74  A    between atoms: C_59  and  O_100
REMARK   75  A    between atoms: C_60  and  C_61
REMARK   76  A    between atoms: C_60  and  O_100
REMARK   77  A    between atoms: C_61  and  O_101
REMARK   78  A    between atoms: C_62  and  C_63
REMARK   79  A    between atoms: C_62  and  O_101
REMARK   80  A    between atoms: C_63  and  O_102
REMARK   81  A    between atoms: C_64  and  C_65
REMARK   82  A    between atoms: C_64  and  O_102
REMARK   83  A    between atoms: C_65  and  O_103
REMARK   84  A    between atoms: C_66  and  C_67
REMARK   85  A    between atoms: C_66  and  O_103
REMARK   86  A    between atoms: C_67  and  O_104
REMARK   87  A    between atoms: C_68  and  C_69
REMARK   88  A    between atoms: C_68  and  O_104
REMARK   89  A    between atoms: C_69  and  O_105
REMARK   90  A    between atoms: C_70  and  C_73
REMARK   91  A    between atoms: C_70  and  C_74
REMARK   92  A    between atoms: C_71  and  C_74
REMARK   93  A    between atoms: C_72  and  O_105
REMARK                            x       y       z     vdW  Elec       q    Type
REMARK                         _______ _______ _______ _____ _____    ______ ____
ROOT
ATOM      1  C   UNL     1      69.304 -54.862   0.000  0.00  0.00    +0.000 C 
ENDROOT
BRANCH   1   2
ATOM      2  C   UNL     1      70.018 -54.450   0.000  0.00  0.00    +0.000 C 
BRANCH   2   3
ATOM      3  O   UNL     1      70.733 -54.862   0.000  0.00  0.00    +0.000 OA
BRANCH   3   4
ATOM      4  C   UNL     1      71.447 -54.450   0.000  0.00  0.00    +0.000 C 
BRANCH   4   5
ATOM      5  C   UNL     1      72.162 -54.862   0.000  0.00  0.00    +0.000 C 
BRANCH   5   6
ATOM      6  O   UNL     1      72.876 -54.450   0.000  0.00  0.00    +0.000 OA
BRANCH   6   7
ATOM      7  C   UNL     1      73.591 -54.862   0.000  0.00  0.00    +0.000 C 
BRANCH   7   8
ATOM      8  C   UNL     1      74.305 -54.450   0.000  0.00  0.00    +0.000 C 
BRANCH   8   9
ATOM      9  O   UNL     1      75.019 -54.862   0.000  0.00  0.00    +0.000 OA
BRANCH   9  10
ATOM     10  C   UNL     1      75.734 -54.450   0.000  0.00  0.00    +0.000 C 
BRANCH  10  11
ATOM     11  C   UNL     1      76.448 -54.862   0.000  0.00  0.00    +0.000 C 
BRANCH  11  12
ATOM     12  O   UNL     1      77.163 -54.450   0.000  0.00  0.00    +0.000 OA
BRANCH  12  13
ATOM     13  C   UNL     1      77.877 -54.862   0.000  0.00  0.00    +0.000 C 
BRANCH  13  14
ATOM     14  C   UNL     1      78.592 -54.450   0.000  0.00  0.00    +0.000 C 
BRANCH  14  15
ATOM     15  O   UNL     1      79.306 -54.862   0.000  0.00  0.00    +0.000 OA
BRANCH  15  16
ATOM     16  C   UNL     1      80.021 -54.450   0.000  0.00  0.00    +0.000 C 
BRANCH  16  17
ATOM     17  C   UNL     1      80.735 -54.862   0.000  0.00  0.00    +0.000 C 
BRANCH  17  18
ATOM     18  O   UNL     1      81.450 -54.450   0.000  0.00  0.00    +0.000 OA
BRANCH  18  19
ATOM     19  C   UNL     1      82.164 -54.862   0.000  0.00  0.00    +0.000 C 
BRANCH  19  20
ATOM     20  C   UNL     1      82.879 -54.450   0.000  0.00  0.00    +0.000 C 
BRANCH  20  21
ATOM     21  O   UNL     1      83.593 -54.862   0.000  0.00  0.00    +0.000 OA
BRANCH  21  22
ATOM     22  C   UNL     1      84.308 -54.450   0.000  0.00  0.00    +0.000 C 
BRANCH  22  23
ATOM     23  C   UNL     1      85.022 -54.862   0.000  0.00  0.00    +0.000 C 
BRANCH  23  24
ATOM     24  O   UNL     1      85.737 -54.450   0.000  0.00  0.00    +0.000 OA
BRANCH  24  25
ATOM     25  C   UNL     1      86.451 -54.862   0.000  0.00  0.00    +0.000 C 
BRANCH  25  26
ATOM     26  C   UNL     1      87.165 -54.450   0.000  0.00  0.00    +0.000 C 
BRANCH  26  27
ATOM     27  O   UNL     1      87.880 -54.862   0.000  0.00  0.00    +0.000 OA
BRANCH  27  28
ATOM     28  C   UNL     1      88.594 -54.450   0.000  0.00  0.00    +0.000 C 
BRANCH  28  29
ATOM     29  C   UNL     1      89.309 -54.862   0.000  0.00  0.00    +0.000 C 
BRANCH  29  30
ATOM     30  O   UNL     1      90.023 -54.450   0.000  0.00  0.00    +0.000 OA
BRANCH  30  31
ATOM     31  C   UNL     1      90.738 -54.862   0.000  0.00  0.00    +0.000 C 
BRANCH  31  32
ATOM     32  C   UNL     1      91.452 -54.450   0.000  0.00  0.00    +0.000 C 
BRANCH  32  33
ATOM     33  O   UNL     1      92.167 -54.862   0.000  0.00  0.00    +0.000 OA
BRANCH  33  34
ATOM     34  C   UNL     1      92.881 -54.450   0.000  0.00  0.00    +0.000 C 
BRANCH  34  35
ATOM     35  C   UNL     1      93.596 -54.862   0.000  0.00  0.00    +0.000 C 
BRANCH  35  36
ATOM     36  O   UNL     1      94.310 -54.450   0.000  0.00  0.00    +0.000 OA
BRANCH  36  37
ATOM     37  C   UNL     1      95.025 -54.862   0.000  0.00  0.00    +0.000 C 
BRANCH  37  38
ATOM     38  C   UNL     1      95.739 -54.450   0.000  0.00  0.00    +0.000 C 
BRANCH  38  39
ATOM     39  O   UNL     1      96.454 -54.862   0.000  0.00  0.00    +0.000 OA
BRANCH  39  45
ATOM     40  C   UNL     1      97.882 -53.212   0.000  0.00  0.00    +0.000 A 
ATOM     41  C   UNL     1      98.597 -54.450   0.000  0.00  0.00    +0.000 A 
ATOM     42  C   UNL     1      97.168 -53.625   0.000  0.00  0.00    +0.000 A 
ATOM     43  C   UNL     1      97.882 -54.862   0.000  0.00  0.00    +0.000 A 
ATOM     44  C   UNL     1      98.597 -53.625   0.000  0.00  0.00    +0.000 A 
ATOM     45  C   UNL     1      97.168 -54.450   0.000  0.00  0.00    +0.000 A 
BRANCH  44  48
ATOM     46  C   UNL     1      98.899 -52.498   0.000  0.00  0.00    +0.000 C 
ATOM     47  C   UNL     1      99.724 -53.927   0.000  0.00  0.00    +0.000 C 
ATOM     48  C   UNL     1      99.311 -53.212   0.000  0.00  0.00    +0.000 C 
BRANCH  48  49
ATOM     49  C   UNL     1     100.026 -52.800   0.000  0.00  0.00    +0.000 C 
BRANCH  49  53
ATOM     50  C   UNL     1     101.455 -53.625   0.000  0.00  0.00    +0.000 C 
ATOM     51  C   UNL     1     101.153 -52.498   0.000  0.00  0.00    +0.000 C 
ATOM     52  C   UNL     1     100.328 -53.927   0.000  0.00  0.00    +0.000 C 
ATOM     53  C   UNL     1     100.740 -53.212   0.000  0.00  0.00    +0.000 C 
ENDBRANCH  49  53
ENDBRANCH  48  49
ENDBRANCH  44  48
ENDBRANCH  39  45
ENDBRANCH  38  39
ENDBRANCH  37  38
ENDBRANCH  36  37
ENDBRANCH  35  36
ENDBRANCH  34  35
ENDBRANCH  33  34
ENDBRANCH  32  33
ENDBRANCH  31  32
ENDBRANCH  30  31
ENDBRANCH  29  30
ENDBRANCH  28  29
ENDBRANCH  27  28
ENDBRANCH  26  27
ENDBRANCH  25  26
ENDBRANCH  24  25
ENDBRANCH  23  24
ENDBRANCH  22  23
ENDBRANCH  21  22
ENDBRANCH  20  21
ENDBRANCH  19  20
ENDBRANCH  18  19
ENDBRANCH  17  18
ENDBRANCH  16  17
ENDBRANCH  15  16
ENDBRANCH  14  15
ENDBRANCH  13  14
ENDBRANCH  12  13
ENDBRANCH  11  12
ENDBRANCH  10  11
ENDBRANCH   9  10
ENDBRANCH   8   9
ENDBRANCH   7   8
ENDBRANCH   6   7
ENDBRANCH   5   6
ENDBRANCH   4   5
ENDBRANCH   3   4
ENDBRANCH   2   3
ENDBRANCH   1   2
BRANCH   1  54
ATOM     54  O   UNL     1      68.589 -54.450   0.000  0.00  0.00    +0.000 OA
BRANCH  54  55
ATOM     55  C   UNL     1      67.875 -54.862   0.000  0.00  0.00    +0.000 C 
BRANCH  55  56
ATOM     56  C   UNL     1      67.160 -54.450   0.000  0.00  0.00    +0.000 C 
BRANCH  56  57
ATOM     57  O   UNL     1      66.446 -54.862   0.000  0.00  0.00    +0.000 OA
BRANCH  57  58
ATOM     58  C   UNL     1      65.731 -54.450   0.000  0.00  0.00    +0.000 C 
BRANCH  58  59
ATOM     59  C   UNL     1      65.017 -54.862   0.000  0.00  0.00    +0.000 C 
BRANCH  59  60
ATOM     60  O   UNL     1      64.302 -54.450   0.000  0.00  0.00    +0.000 OA
BRANCH  60  61
ATOM     61  C   UNL     1      63.588 -54.862   0.000  0.00  0.00    +0.000 C 
BRANCH  61  62
ATOM     62  C   UNL     1      62.873 -54.450   0.000  0.00  0.00    +0.000 C 
BRANCH  62  63
ATOM     63  O   UNL     1      62.159 -54.862   0.000  0.00  0.00    +0.000 OA
BRANCH  63  64
ATOM     64  C   UNL     1      61.444 -54.450   0.000  0.00  0.00    +0.000 C 
BRANCH  64  65
ATOM     65  C   UNL     1      60.730 -54.862   0.000  0.00  0.00    +0.000 C 
BRANCH  65  66
ATOM     66  O   UNL     1      60.016 -54.450   0.000  0.00  0.00    +0.000 OA
BRANCH  66  67
ATOM     67  C   UNL     1      59.301 -54.862   0.000  0.00  0.00    +0.000 C 
BRANCH  67  68
ATOM     68  C   UNL     1      58.587 -54.450   0.000  0.00  0.00    +0.000 C 
BRANCH  68  69
ATOM     69  O   UNL     1      57.872 -54.862   0.000  0.00  0.00    +0.000 OA
BRANCH  69  70
ATOM     70  C   UNL     1      57.158 -54.450   0.000  0.00  0.00    +0.000 C 
BRANCH  70  71
ATOM     71  C   UNL     1      56.443 -54.862   0.000  0.00  0.00    +0.000 C 
BRANCH  71  72
ATOM     72  O   UNL     1      55.729 -54.450   0.000  0.00  0.00    +0.000 OA
BRANCH  72  73
ATOM     73  C   UNL     1      55.014 -54.862   0.000  0.00  0.00    +0.000 C 
BRANCH  73  74
ATOM     74  C   UNL     1      54.300 -54.450   0.000  0.00  0.00    +0.000 C 
BRANCH  74  75
ATOM     75  O   UNL     1      53.585 -54.862   0.000  0.00  0.00    +0.000 OA
BRANCH  75  76
ATOM     76  C   UNL     1      52.871 -54.450   0.000  0.00  0.00    +0.000 C 
BRANCH  76  77
ATOM     77  C   UNL     1      52.156 -54.862   0.000  0.00  0.00    +0.000 C 
BRANCH  77  78
ATOM     78  O   UNL     1      51.442 -54.450   0.000  0.00  0.00    +0.000 OA
BRANCH  78  79
ATOM     79  C   UNL     1      50.727 -54.862   0.000  0.00  0.00    +0.000 C 
BRANCH  79  80
ATOM     80  C   UNL     1      50.013 -54.450   0.000  0.00  0.00    +0.000 C 
BRANCH  80  81
ATOM     81  O   UNL     1      49.298 -54.862   0.000  0.00  0.00    +0.000 OA
BRANCH  81  82
ATOM     82  C   UNL     1      48.584 -54.450   0.000  0.00  0.00    +0.000 C 
BRANCH  82  83
ATOM     83  C   UNL     1      47.870 -54.862   0.000  0.00  0.00    +0.000 C 
BRANCH  83  84
ATOM     84  O   UNL     1      47.155 -54.450   0.000  0.00  0.00    +0.000 OA
BRANCH  84  85
ATOM     85  C   UNL     1      46.441 -54.862   0.000  0.00  0.00    +0.000 C 
BRANCH  85  86
ATOM     86  C   UNL     1      45.726 -54.450   0.000  0.00  0.00    +0.000 C 
BRANCH  86  87
ATOM     87  O   UNL     1      45.012 -54.862   0.000  0.00  0.00    +0.000 OA
BRANCH  87  88
ATOM     88  C   UNL     1      44.297 -54.450   0.000  0.00  0.00    +0.000 C 
BRANCH  88  89
ATOM     89  C   UNL     1      43.583 -54.862   0.000  0.00  0.00    +0.000 C 
BRANCH  89  90
ATOM     90  O   UNL     1      42.868 -54.450   0.000  0.00  0.00    +0.000 OA
BRANCH  90  91
ATOM     91  C   UNL     1      42.154 -54.862   0.000  0.00  0.00    +0.000 C 
BRANCH  91  92
ATOM     92  C   UNL     1      41.439 -54.450   0.000  0.00  0.00    +0.000 C 
BRANCH  92  93
ATOM     93  O   UNL     1      40.725 -54.862   0.000  0.00  0.00    +0.000 OA
BRANCH  93  94
ATOM     94  C   UNL     1      40.010 -54.450   0.000  0.00  0.00    +0.000 C 
BRANCH  94  95
ATOM     95  C   UNL     1      39.296 -54.862   0.000  0.00  0.00    +0.000 C 
BRANCH  95  96
ATOM     96  O   UNL     1      38.581 -54.450   0.000  0.00  0.00    +0.000 OA
BRANCH  96  97
ATOM     97  C   UNL     1      37.867 -54.862   0.000  0.00  0.00    +0.000 C 
BRANCH  97  98
ATOM     98  C   UNL     1      37.153 -54.450   0.000  0.00  0.00    +0.000 C 
BRANCH  98  99
ATOM     99  O   UNL     1      36.438 -54.862   0.000  0.00  0.00    +0.000 OA
BRANCH  99 100
ATOM    100  C   UNL     1      35.724 -54.450   0.000  0.00  0.00    +0.000 C 
BRANCH 100 101
ATOM    101  C   UNL     1      35.009 -54.862   0.000  0.00  0.00    +0.000 C 
BRANCH 101 102
ATOM    102  O   UNL     1      34.295 -54.450   0.000  0.00  0.00    +0.000 OA
BRANCH 102 103
ATOM    103  C   UNL     1      33.580 -54.862   0.000  0.00  0.00    +0.000 C 
BRANCH 103 104
ATOM    104  C   UNL     1      32.866 -54.450   0.000  0.00  0.00    +0.000 C 
ATOM    105  O   UNL     1      32.151 -54.862   0.000  0.00  0.00    +0.000 OA
ENDBRANCH 103 104
ENDBRANCH 102 103
ENDBRANCH 101 102
ENDBRANCH 100 101
ENDBRANCH  99 100
ENDBRANCH  98  99
ENDBRANCH  97  98
ENDBRANCH  96  97
ENDBRANCH  95  96
ENDBRANCH  94  95
ENDBRANCH  93  94
ENDBRANCH  92  93
ENDBRANCH  91  92
ENDBRANCH  90  91
ENDBRANCH  89  90
ENDBRANCH  88  89
ENDBRANCH  87  88
ENDBRANCH  86  87
ENDBRANCH  85  86
ENDBRANCH  84  85
ENDBRANCH  83  84
ENDBRANCH  82  83
ENDBRANCH  81  82
ENDBRANCH  80  81
ENDBRANCH  79  80
ENDBRANCH  78  79
ENDBRANCH  77  78
ENDBRANCH  76  77
ENDBRANCH  75  76
ENDBRANCH  74  75
ENDBRANCH  73  74
ENDBRANCH  72  73
ENDBRANCH  71  72
ENDBRANCH  70  71
ENDBRANCH  69  70
ENDBRANCH  68  69
ENDBRANCH  67  68
ENDBRANCH  66  67
ENDBRANCH  65  66
ENDBRANCH  64  65
ENDBRANCH  63  64
ENDBRANCH  62  63
ENDBRANCH  61  62
ENDBRANCH  60  61
ENDBRANCH  59  60
ENDBRANCH  58  59
ENDBRANCH  57  58
ENDBRANCH  56  57
ENDBRANCH  55  56
ENDBRANCH  54  55
ENDBRANCH   1  54
TORSDOF 93
