REMARK  Name = 
REMARK  1 active torsions:
REMARK  status: ('A' for Active; 'I' for Inactive)
REMARK    1  A    between atoms: C_14  and  C_17
REMARK                            x       y       z     vdW  Elec       q    Type
REMARK                         _______ _______ _______ _____ _____    ______ ____
ROOT
ATOM      1  O   UNL     1       6.371  -0.856   0.000  0.00  0.00    +0.000 OA
ATOM      2  O   UNL     1       6.260   0.382   0.000  0.00  0.00    +0.000 OA
ATOM      3  C   UNL     1       4.831  -1.268   0.000  0.00  0.00    +0.000 C 
ATOM      4  C   UNL     1       5.244  -1.983   0.000  0.00  0.00    +0.000 C 
ATOM      5  C   UNL     1       4.419  -1.983   0.000  0.00  0.00    +0.000 C 
ATOM      6  C   UNL     1       5.546  -0.856   0.000  0.00  0.00    +0.000 C 
ATOM      7  C   UNL     1       4.117  -0.856   0.000  0.00  0.00    +0.000 C 
ATOM      8  C   UNL     1       4.117  -0.031   0.000  0.00  0.00    +0.000 C 
ATOM      9  C   UNL     1       5.546  -0.031   0.000  0.00  0.00    +0.000 C 
ATOM     10  C   UNL     1       5.958  -1.570   0.000  0.00  0.00    +0.000 C 
ATOM     11  C   UNL     1       4.831   0.382   0.000  0.00  0.00    +0.000 C 
ATOM     12  C   UNL     1       3.402  -1.268   0.000  0.00  0.00    +0.000 C 
ATOM     13  C   UNL     1       3.509   0.519   0.000  0.00  0.00    +0.000 C 
ATOM     14  C   UNL     1       4.659   1.183   0.000  0.00  0.00    +0.000 C 
ATOM     15  C   UNL     1       3.843   1.268   0.000  0.00  0.00    +0.000 C 
ATOM     16  C   UNL     1       3.430   1.983   0.000  0.00  0.00    +0.000 C 
ENDROOT
BRANCH  13  18
ATOM     17  O   UNL     1       2.151   0.963   0.000  0.00  0.00    +0.000 OA
ATOM     18  C   UNL     1       2.701   0.349   0.000  0.00  0.00    +0.000 C 
ENDBRANCH  13  18
TORSDOF 1
