REMARK  Name = 
REMARK  5 active torsions:
REMARK  status: ('A' for Active; 'I' for Inactive)
REMARK    1  A    between atoms: C_5  and  C_7
REMARK    2  A    between atoms: C_5  and  O_20
REMARK    3  A    between atoms: C_6  and  C_11
REMARK    4  A    between atoms: C_10  and  N_12
REMARK    5  A    between atoms: O_20  and  P_22
REMARK                            x       y       z     vdW  Elec       q    Type
REMARK                         _______ _______ _______ _____ _____    ______ ____
ROOT
ATOM      1  C   UNL     1       1.382   2.981   0.000  0.00  0.00    +0.000 C 
ATOM      2  C   UNL     1       0.715   3.466   0.000  0.00  0.00    +0.000 C 
ATOM      3  C   UNL     1       0.047   2.981   0.000  0.00  0.00    +0.000 C 
ATOM      4  C   UNL     1       0.302   2.196   0.000  0.00  0.00    +0.000 C 
ATOM      5  O   UNL     1       0.715   4.291   0.000  0.00  0.00    +0.000 OA
ATOM      6  O   UNL     1      -0.738   3.236   0.000  0.00  0.00    +0.000 OA
ATOM      7  O   UNL     1       1.127   2.196   0.000  0.00  0.00    +0.000 OA
ENDROOT
BRANCH   4  13
ATOM      8  C   UNL     1      -1.488   0.948   0.000  0.00  0.00    +0.000 A 
ATOM      9  C   UNL     1      -1.153   0.194   0.000  0.00  0.00    +0.000 A 
ATOM     10  C   UNL     1      -1.003   1.615   0.000  0.00  0.00    +0.000 A 
ATOM     11  C   UNL     1       0.153   0.775   0.000  0.00  0.00    +0.000 A 
ATOM     12  C   UNL     1      -0.332   0.108   0.000  0.00  0.00    +0.000 A 
ATOM     13  N   UNL     1      -0.183   1.529   0.000  0.00  0.00    +0.000 N 
BRANCH  12  14
ATOM     14  C   UNL     1       0.003  -0.646   0.000  0.00  0.00    +0.000 C 
ATOM     15  O   UNL     1      -0.482  -1.313   0.000  0.00  0.00    +0.000 OA
ATOM     16  O   UNL     1       0.824  -0.732   0.000  0.00  0.00    +0.000 OA
ENDBRANCH  12  14
ENDBRANCH   4  13
BRANCH   1  17
ATOM     17  C   UNL     1       2.167   3.236   0.000  0.00  0.00    +0.000 C 
BRANCH  17  18
ATOM     18  O   UNL     1       2.780   2.684   0.000  0.00  0.00    +0.000 OA
BRANCH  18  22
ATOM     19  O   UNL     1       4.349   3.194   0.000  0.00  0.00    +0.000 OA
ATOM     20  O   UNL     1       3.819   2.154   0.000  0.00  0.00    +0.000 OA
ATOM     21  O   UNL     1       3.309   3.724   0.000  0.00  0.00    +0.000 OA
ATOM     22  P   UNL     1       3.564   2.939   0.000  0.00  0.00    +0.000 P 
ENDBRANCH  18  22
ENDBRANCH  17  18
ENDBRANCH   1  17
TORSDOF 5
