REMARK  Name = 
REMARK  0 active torsions:
REMARK  status: ('A' for Active; 'I' for Inactive)
REMARK                            x       y       z     vdW  Elec       q    Type
REMARK                         _______ _______ _______ _____ _____    ______ ____
ROOT
ATOM      1  O   UNL     1       1.429   1.238   0.000  0.00  0.00    +0.000 OA
ATOM      2  C   UNL     1       0.714   0.824   0.000  0.00  0.00    +0.000 A 
ATOM      3  C   UNL     1      -0.001   1.236   0.000  0.00  0.00    +0.000 A 
ATOM      4  C   UNL     1       0.714   0.000   0.000  0.00  0.00    +0.000 A 
ATOM      5  C   UNL     1       0.001  -0.412   0.000  0.00  0.00    +0.000 A 
ATOM      6  C   UNL     1      -0.715  -0.001   0.000  0.00  0.00    +0.000 A 
ATOM      7  C   UNL     1      -0.715   0.824   0.000  0.00  0.00    +0.000 A 
ATOM      8  O   UNL     1      -1.429   1.236   0.000  0.00  0.00    +0.000 OA
ATOM      9  O   UNL     1       0.001  -1.238   0.000  0.00  0.00    +0.000 OA
ENDROOT
TORSDOF 0
