REMARK  Name = 
REMARK  8 active torsions:
REMARK  status: ('A' for Active; 'I' for Inactive)
REMARK    1  A    between atoms: O_3  and  C_18
REMARK    2  A    between atoms: O_3  and  C_23
REMARK    3  A    between atoms: O_4  and  C_24
REMARK    4  A    between atoms: N_6  and  C_13
REMARK    5  A    between atoms: C_8  and  C_14
REMARK    6  A    between atoms: C_13  and  C_15
REMARK    7  A    between atoms: C_15  and  C_18
REMARK    8  A    between atoms: C_28  and  C_29
REMARK                            x       y       z     vdW  Elec       q    Type
REMARK                         _______ _______ _______ _____ _____    ______ ____
ROOT
ATOM      1  N   UNL     1       5.343  -0.909   0.000  0.00  0.00    +0.000 NA
ATOM      2  C   UNL     1       4.830  -2.477   0.000  0.00  0.00    +0.000 C 
ATOM      3  C   UNL     1       5.638  -2.307   0.000  0.00  0.00    +0.000 C 
ATOM      4  C   UNL     1       4.279  -1.863   0.000  0.00  0.00    +0.000 C 
ATOM      5  C   UNL     1       5.894  -1.523   0.000  0.00  0.00    +0.000 C 
ATOM      6  C   UNL     1       4.536  -1.079   0.000  0.00  0.00    +0.000 C 
ENDROOT
BRANCH   2  10
ATOM      7  F   UNL     1       1.650  -4.750   0.000  0.00  0.00    +0.000 F 
ATOM      8  O   UNL     1       4.574  -4.589   0.000  0.00  0.00    +0.000 OA
ATOM      9  N   UNL     1       5.056  -3.925   0.000  0.00  0.00    +0.000 NA
ATOM     10  C   UNL     1       4.574  -3.261   0.000  0.00  0.00    +0.000 A 
ATOM     11  C   UNL     1       3.793  -3.513   0.000  0.00  0.00    +0.000 A 
ATOM     12  C   UNL     1       3.793  -4.338   0.000  0.00  0.00    +0.000 A 
ATOM     13  C   UNL     1       3.079  -3.100   0.000  0.00  0.00    +0.000 A 
ATOM     14  C   UNL     1       3.079  -4.750   0.000  0.00  0.00    +0.000 A 
ATOM     15  C   UNL     1       2.365  -3.513   0.000  0.00  0.00    +0.000 A 
ATOM     16  C   UNL     1       2.365  -4.338   0.000  0.00  0.00    +0.000 A 
ENDBRANCH   2  10
BRANCH   1  17
ATOM     17  C   UNL     1       5.599  -0.125   0.000  0.00  0.00    +0.000 C 
BRANCH  17  18
ATOM     18  C   UNL     1       6.407   0.045   0.000  0.00  0.00    +0.000 C 
BRANCH  18  19
ATOM     19  C   UNL     1       6.663   0.830   0.000  0.00  0.00    +0.000 C 
BRANCH  19  20
ATOM     20  O   UNL     1       7.470   1.000   0.000  0.00  0.00    +0.000 OA
BRANCH  20  21
ATOM     21  C   UNL     1       7.726   1.784   0.000  0.00  0.00    +0.000 A 
ATOM     22  C   UNL     1       8.534   1.954   0.000  0.00  0.00    +0.000 A 
ATOM     23  C   UNL     1       7.175   2.398   0.000  0.00  0.00    +0.000 A 
ATOM     24  C   UNL     1       8.790   2.738   0.000  0.00  0.00    +0.000 A 
ATOM     25  C   UNL     1       7.432   3.182   0.000  0.00  0.00    +0.000 A 
ATOM     26  C   UNL     1       8.239   3.352   0.000  0.00  0.00    +0.000 A 
BRANCH  26  28
ATOM     27  O   UNL     1       9.303   4.306   0.000  0.00  0.00    +0.000 OA
ATOM     28  C   UNL     1       8.495   4.136   0.000  0.00  0.00    +0.000 C 
ATOM     29  C   UNL     1       7.944   4.750   0.000  0.00  0.00    +0.000 C 
ENDBRANCH  26  28
BRANCH  22  30
ATOM     30  O   UNL     1       9.085   1.340   0.000  0.00  0.00    +0.000 OA
ATOM     31  C   UNL     1       9.892   1.510   0.000  0.00  0.00    +0.000 C 
ENDBRANCH  22  30
ENDBRANCH  20  21
ENDBRANCH  19  20
ENDBRANCH  18  19
ENDBRANCH  17  18
ENDBRANCH   1  17
TORSDOF 8
