REMARK  Name = 
REMARK  14 active torsions:
REMARK  status: ('A' for Active; 'I' for Inactive)
REMARK    1  A    between atoms: C_2  and  C_4
REMARK    2  A    between atoms: C_4  and  C_5
REMARK    3  A    between atoms: C_5  and  O_7
REMARK    4  A    between atoms: O_7  and  C_8
REMARK    5  A    between atoms: C_9  and  O_10
REMARK    6  A    between atoms: O_10  and  C_11
REMARK    7  A    between atoms: C_24  and  C_26
REMARK    8  A    between atoms: C_24  and  C_29
REMARK    9  A    between atoms: C_37  and  C_38
REMARK   10  A    between atoms: C_38  and  O_39
REMARK   11  A    between atoms: C_41  and  O_42
REMARK   12  A    between atoms: O_42  and  S_43
REMARK   13  A    between atoms: C_47  and  O_48
REMARK   14  A    between atoms: O_48  and  S_49
REMARK                            x       y       z     vdW  Elec       q    Type
REMARK                         _______ _______ _______ _____ _____    ______ ____
ROOT
ATOM      1  C   UNL     1       7.037  -0.899   0.000  0.00  0.00    +0.000 C 
ATOM      2  C   UNL     1       6.494  -0.278   0.000  0.00  0.00    +0.000 C 
ATOM      3  O   UNL     1       6.760   0.503   0.000  0.00  0.00    +0.000 OA
ATOM      4  C   UNL     1       7.569   0.662   0.000  0.00  0.00    +0.000 C 
ATOM      5  C   UNL     1       8.112   0.041   0.000  0.00  0.00    +0.000 C 
ATOM      6  C   UNL     1       7.846  -0.740   0.000  0.00  0.00    +0.000 C 
ENDROOT
BRANCH   4   7
ATOM      7  C   UNL     1       7.836   1.443   0.000  0.00  0.00    +0.000 C 
BRANCH   7   8
ATOM      8  O   UNL     1       7.293   2.064   0.000  0.00  0.00    +0.000 OA
ATOM      9  O   UNL     1       7.559   2.845   0.000  0.00  0.00    +0.000 OA
ENDBRANCH   7   8
ENDBRANCH   4   7
BRANCH   1  10
ATOM     10  O   UNL     1       6.770  -1.680   0.000  0.00  0.00    +0.000 OA
BRANCH  10  11
ATOM     11  C   UNL     1       5.961  -1.840   0.000  0.00  0.00    +0.000 C 
ATOM     12  O   UNL     1       5.694  -2.621   0.000  0.00  0.00    +0.000 OA
BRANCH  11  13
ATOM     13  C   UNL     1       5.418  -1.219   0.000  0.00  0.00    +0.000 C 
BRANCH  13  15
ATOM     14  C   UNL     1       4.065  -0.757   0.000  0.00  0.00    +0.000 C 
ATOM     15  C   UNL     1       4.608  -1.378   0.000  0.00  0.00    +0.000 C 
ATOM     16  C   UNL     1       4.342  -2.159   0.000  0.00  0.00    +0.000 C 
ENDBRANCH  13  15
ENDBRANCH  11  13
ENDBRANCH  10  11
ENDBRANCH   1  10
BRANCH   5  17
ATOM     17  O   UNL     1       8.922   0.201   0.000  0.00  0.00    +0.000 OA
BRANCH  17  18
ATOM     18  S   UNL     1       9.465  -0.420   0.000  0.00  0.00    +0.000 S 
ATOM     19  O   UNL     1       8.844  -0.963   0.000  0.00  0.00    +0.000 OA
ATOM     20  O   UNL     1      10.086   0.123   0.000  0.00  0.00    +0.000 OA
ATOM     21  O   UNL     1      10.008  -1.041   0.000  0.00  0.00    +0.000 OA
ENDBRANCH  17  18
ENDBRANCH   5  17
BRANCH   6  22
ATOM     22  O   UNL     1       8.389  -1.361   0.000  0.00  0.00    +0.000 OA
BRANCH  22  23
ATOM     23  S   UNL     1       8.123  -2.142   0.000  0.00  0.00    +0.000 S 
ATOM     24  O   UNL     1       7.342  -1.875   0.000  0.00  0.00    +0.000 OA
ATOM     25  O   UNL     1       8.903  -2.408   0.000  0.00  0.00    +0.000 OA
ATOM     26  O   UNL     1       7.856  -2.922   0.000  0.00  0.00    +0.000 OA
ENDBRANCH  22  23
ENDBRANCH   6  22
BRANCH   2  27
ATOM     27  O   UNL     1       5.684  -0.438   0.000  0.00  0.00    +0.000 OA
BRANCH  27  28
ATOM     28  C   UNL     1       5.141   0.183   0.000  0.00  0.00    +0.000 C 
ATOM     29  C   UNL     1       4.332   0.024   0.000  0.00  0.00    +0.000 C 
ATOM     30  C   UNL     1       3.789   0.645   0.000  0.00  0.00    +0.000 C 
ATOM     31  C   UNL     1       3.522  -0.136   0.000  0.00  0.00    +0.000 C 
ATOM     32  C   UNL     1       2.970   0.484   0.000  0.00  0.00    +0.000 C 
ATOM     33  C   UNL     1       2.782  -0.364   0.000  0.00  0.00    +0.000 C 
ATOM     34  C   UNL     1       1.950  -0.563   0.000  0.00  0.00    +0.000 C 
ATOM     35  C   UNL     1       1.347   0.060   0.000  0.00  0.00    +0.000 C 
ATOM     36  C   UNL     1       1.886   0.569   0.000  0.00  0.00    +0.000 C 
ATOM     37  C   UNL     1       2.357   1.119   0.000  0.00  0.00    +0.000 C 
ATOM     38  C   UNL     1       2.697   1.901   0.000  0.00  0.00    +0.000 C 
ATOM     39  C   UNL     1       3.517   2.058   0.000  0.00  0.00    +0.000 C 
ATOM     40  C   UNL     1       4.055   1.425   0.000  0.00  0.00    +0.000 C 
ATOM     41  C   UNL     1       4.865   1.585   0.000  0.00  0.00    +0.000 C 
ATOM     42  C   UNL     1       5.408   0.964   0.000  0.00  0.00    +0.000 C 
ATOM     43  C   UNL     1       1.524   1.456   0.000  0.00  0.00    +0.000 C 
ATOM     44  O   UNL     1       1.346   2.262   0.000  0.00  0.00    +0.000 OA
ATOM     45  C   UNL     1       0.927   0.817   0.000  0.00  0.00    +0.000 C 
ATOM     46  C   UNL     1       0.108   0.918   0.000  0.00  0.00    +0.000 C 
BRANCH  41  47
ATOM     47  C   UNL     1       4.733   2.400   0.000  0.00  0.00    +0.000 C 
ATOM     48  O   UNL     1       3.962   2.693   0.000  0.00  0.00    +0.000 OA
ATOM     49  O   UNL     1       5.373   2.921   0.000  0.00  0.00    +0.000 OA
ENDBRANCH  41  47
BRANCH  41  50
ATOM     50  C   UNL     1       5.466   2.149   0.000  0.00  0.00    +0.000 C 
ATOM     51  O   UNL     1       6.256   1.911   0.000  0.00  0.00    +0.000 OA
ATOM     52  O   UNL     1       5.787   2.910   0.000  0.00  0.00    +0.000 OA
ENDBRANCH  41  50
ENDBRANCH  27  28
ENDBRANCH   2  27
TORSDOF 14
