REMARK  Name = 
REMARK  2 active torsions:
REMARK  status: ('A' for Active; 'I' for Inactive)
REMARK    1  A    between atoms: C_2  and  C_5
REMARK    2  A    between atoms: C_2  and  N_13
REMARK                            x       y       z     vdW  Elec       q    Type
REMARK                         _______ _______ _______ _____ _____    ______ ____
ROOT
ATOM      1  C   UNL     1       3.352   1.110   0.000  0.00  0.00    +0.000 A 
ATOM      2  C   UNL     1       0.654   1.523   0.000  0.00  0.00    +0.000 A 
ATOM      3  C   UNL     1       1.923   1.935   0.000  0.00  0.00    +0.000 A 
ATOM      4  C   UNL     1       2.638   2.348   0.000  0.00  0.00    +0.000 A 
ATOM      5  C   UNL     1       1.923   1.110   0.000  0.00  0.00    +0.000 A 
ATOM      6  N   UNL     1       2.638   3.173   0.000  0.00  0.00    +0.000 NA
ATOM      7  N   UNL     1       3.352   1.935   0.000  0.00  0.00    +0.000 NA
ATOM      8  N   UNL     1       2.638   0.698   0.000  0.00  0.00    +0.000 NA
ATOM      9  N   UNL     1       1.139   2.190   0.000  0.00  0.00    +0.000 NA
ATOM     10  N   UNL     1       1.139   0.856   0.000  0.00  0.00    +0.000 N 
ENDROOT
BRANCH  10  11
ATOM     11  C   UNL     1       0.884   0.071   0.000  0.00  0.00    +0.000 C 
BRANCH  11  13
ATOM     12  C   UNL     1      -0.178  -0.885   0.000  0.00  0.00    +0.000 C 
ATOM     13  C   UNL     1       0.077  -0.101   0.000  0.00  0.00    +0.000 C 
ATOM     14  O   UNL     1      -0.475   0.512   0.000  0.00  0.00    +0.000 OA
ENDBRANCH  11  13
ENDBRANCH  10  11
TORSDOF 2
