REMARK  Name = 
REMARK  4 active torsions:
REMARK  status: ('A' for Active; 'I' for Inactive)
REMARK    1  A    between atoms: N_9  and  C_12
REMARK    2  A    between atoms: C_16  and  C_17
REMARK    3  A    between atoms: C_17  and  O_18
REMARK    4  A    between atoms: O_18  and  P_19
REMARK                            x       y       z     vdW  Elec       q    Type
REMARK                         _______ _______ _______ _____ _____    ______ ____
ROOT
ATOM      1  C   UNL     1       0.884   2.975   0.000  0.00  0.00    +0.000 C 
ATOM      2  C   UNL     1       0.099   3.230   0.000  0.00  0.00    +0.000 C 
ATOM      3  C   UNL     1       0.099   4.055   0.000  0.00  0.00    +0.000 C 
ATOM      4  O   UNL     1      -0.568   4.540   0.000  0.00  0.00    +0.000 OA
ATOM      5  C   UNL     1       0.884   4.310   0.000  0.00  0.00    +0.000 C 
ATOM      6  O   UNL     1       1.369   3.642   0.000  0.00  0.00    +0.000 OA
ENDROOT
BRANCH   1  15
ATOM      7  N   UNL     1       4.067   2.348   0.000  0.00  0.00    +0.000 NA
ATOM      8  C   UNL     1       3.352   1.935   0.000  0.00  0.00    +0.000 A 
ATOM      9  N   UNL     1       3.352   1.110   0.000  0.00  0.00    +0.000 NA
ATOM     10  C   UNL     1       2.638   0.698   0.000  0.00  0.00    +0.000 A 
ATOM     11  O   UNL     1       2.638  -0.127   0.000  0.00  0.00    +0.000 OA
ATOM     12  C   UNL     1       1.923   1.110   0.000  0.00  0.00    +0.000 A 
ATOM     13  C   UNL     1       1.923   1.935   0.000  0.00  0.00    +0.000 A 
ATOM     14  N   UNL     1       2.638   2.348   0.000  0.00  0.00    +0.000 NA
ATOM     15  N   UNL     1       1.139   2.190   0.000  0.00  0.00    +0.000 N 
ATOM     16  C   UNL     1       0.654   1.523   0.000  0.00  0.00    +0.000 A 
ATOM     17  N   UNL     1       1.139   0.856   0.000  0.00  0.00    +0.000 NA
ENDBRANCH   1  15
BRANCH   5  18
ATOM     18  C   UNL     1       1.139   5.095   0.000  0.00  0.00    +0.000 C 
BRANCH  18  19
ATOM     19  O   UNL     1       1.946   5.266   0.000  0.00  0.00    +0.000 OA
BRANCH  19  20
ATOM     20  P   UNL     1       2.201   6.051   0.000  0.00  0.00    +0.000 P 
ATOM     21  O   UNL     1       2.456   6.835   0.000  0.00  0.00    +0.000 OA
ATOM     22  O   UNL     1       2.985   5.796   0.000  0.00  0.00    +0.000 OA
ATOM     23  O   UNL     1       1.416   6.306   0.000  0.00  0.00    +0.000 OA
ENDBRANCH  19  20
ENDBRANCH  18  19
ENDBRANCH   5  18
TORSDOF 4
