REMARK  Name = 
REMARK  4 active torsions:
REMARK  status: ('A' for Active; 'I' for Inactive)
REMARK    1  A    between atoms: C_11  and  C_15
REMARK    2  A    between atoms: C_14  and  O_20
REMARK    3  A    between atoms: C_15  and  C_16
REMARK    4  A    between atoms: C_16  and  O_20
REMARK                            x       y       z     vdW  Elec       q    Type
REMARK                         _______ _______ _______ _____ _____    ______ ____
ROOT
ATOM      1  C   UNL     1       2.126  -2.788   0.000  0.00  0.00    +0.000 C 
ATOM      2  O   UNL     1       1.301  -2.787   0.000  0.00  0.00    +0.000 OA
ENDROOT
BRANCH   1   3
ATOM      3  C   UNL     1       2.538  -3.503   0.000  0.00  0.00    +0.000 C 
ATOM      4  O   UNL     1       3.363  -3.504   0.000  0.00  0.00    +0.000 OA
BRANCH   3  10
ATOM      5  C   UNL     1       1.298  -5.645   0.000  0.00  0.00    +0.000 A 
ATOM      6  C   UNL     1       2.123  -5.646   0.000  0.00  0.00    +0.000 A 
ATOM      7  C   UNL     1       0.886  -4.930   0.000  0.00  0.00    +0.000 A 
ATOM      8  C   UNL     1       2.537  -4.932   0.000  0.00  0.00    +0.000 A 
ATOM      9  C   UNL     1       1.300  -4.216   0.000  0.00  0.00    +0.000 A 
ATOM     10  C   UNL     1       2.125  -4.217   0.000  0.00  0.00    +0.000 A 
ENDBRANCH   3  10
ENDBRANCH   1   3
BRANCH   1  11
ATOM     11  O   UNL     1       2.539  -2.074   0.000  0.00  0.00    +0.000 OA
BRANCH  11  19
ATOM     12  C   UNL     1       0.077   0.591   0.000  0.00  0.00    +0.000 C 
ATOM     13  C   UNL     1       0.740  -1.266   0.000  0.00  0.00    +0.000 C 
ATOM     14  C   UNL     1       0.120  -1.643   0.000  0.00  0.00    +0.000 C 
ATOM     15  C   UNL     1       1.989  -0.542   0.000  0.00  0.00    +0.000 C 
ATOM     16  C   UNL     1       1.611  -0.930   0.000  0.00  0.00    +0.000 C 
ATOM     17  C   UNL     1       1.060  -0.557   0.000  0.00  0.00    +0.000 C 
ATOM     18  C   UNL     1       0.640  -0.930   0.000  0.00  0.00    +0.000 C 
ATOM     19  C   UNL     1       2.127  -1.359   0.000  0.00  0.00    +0.000 C 
ATOM     20  N   UNL     1       0.500  -0.117   0.000  0.00  0.00    +0.000 NA
ENDBRANCH  11  19
ENDBRANCH   1  11
TORSDOF 4
