REMARK  Name = 
REMARK  4 active torsions:
REMARK  status: ('A' for Active; 'I' for Inactive)
REMARK    1  A    between atoms: C_9  and  C_11
REMARK    2  A    between atoms: C_9  and  C_13
REMARK    3  A    between atoms: C_10  and  C_12
REMARK    4  A    between atoms: C_10  and  C_15
REMARK                            x       y       z     vdW  Elec       q    Type
REMARK                         _______ _______ _______ _____ _____    ______ ____
ROOT
ATOM      1  C   UNL     1      -1.429   5.529   0.000  0.00  0.00    +0.000 A 
ATOM      2  C   UNL     1      -2.143   4.291   0.000  0.00  0.00    +0.000 A 
ATOM      3  C   UNL     1      -2.143   5.941   0.000  0.00  0.00    +0.000 A 
ATOM      4  C   UNL     1      -2.858   4.704   0.000  0.00  0.00    +0.000 A 
ATOM      5  C   UNL     1      -1.429   4.704   0.000  0.00  0.00    +0.000 A 
ATOM      6  C   UNL     1      -2.858   5.529   0.000  0.00  0.00    +0.000 A 
ENDROOT
BRANCH   6   8
ATOM      7  C   UNL     1      -4.287   5.529   0.000  0.00  0.00    +0.000 C 
ATOM      8  C   UNL     1      -3.572   5.941   0.000  0.00  0.00    +0.000 C 
BRANCH   8   9
ATOM      9  C   UNL     1      -3.572   6.766   0.000  0.00  0.00    +0.000 C 
ATOM     10  O   UNL     1      -4.287   7.179   0.000  0.00  0.00    +0.000 OA
ATOM     11  O   UNL     1      -2.858   7.179   0.000  0.00  0.00    +0.000 OA
ENDBRANCH   8   9
ENDBRANCH   6   8
BRANCH   5  12
ATOM     12  C   UNL     1      -0.715   4.291   0.000  0.00  0.00    +0.000 C 
BRANCH  12  16
ATOM     13  C   UNL     1      -0.302   2.196   0.000  0.00  0.00    +0.000 C 
ATOM     14  C   UNL     1      -0.047   2.981   0.000  0.00  0.00    +0.000 C 
ATOM     15  C   UNL     1      -1.127   2.196   0.000  0.00  0.00    +0.000 C 
ATOM     16  C   UNL     1      -0.715   3.466   0.000  0.00  0.00    +0.000 C 
ATOM     17  C   UNL     1      -1.382   2.981   0.000  0.00  0.00    +0.000 C 
ATOM     18  O   UNL     1      -2.167   3.236   0.000  0.00  0.00    +0.000 OA
ENDBRANCH  12  16
ENDBRANCH   5  12
TORSDOF 4
