REMARK  Name = 
REMARK  9 active torsions:
REMARK  status: ('A' for Active; 'I' for Inactive)
REMARK    1  A    between atoms: C_2  and  C_3
REMARK    2  A    between atoms: C_3  and  CA_4
REMARK    3  A    between atoms: CA_4  and  N_5
REMARK    4  A    between atoms: CA_4  and  C_21
REMARK    5  A    between atoms: N_5  and  C_6
REMARK    6  A    between atoms: C_6  and  C_7
REMARK    7  A    between atoms: C_14  and  C_15
REMARK    8  A    between atoms: C_15  and  O_16
REMARK    9  A    between atoms: O_16  and  P_17
REMARK                            x       y       z     vdW  Elec       q    Type
REMARK                         _______ _______ _______ _____ _____    ______ ____
ROOT
ATOM      1  C   UNL     1       0.000   0.000   0.000  0.00  0.00    +0.000 A 
ATOM      2  C   UNL     1       0.000   0.825   0.000  0.00  0.00    +0.000 A 
ATOM      3  O   UNL     1      -0.715   1.238   0.000  0.00  0.00    +0.000 OA
ATOM      4  C   UNL     1       0.715   1.238   0.000  0.00  0.00    +0.000 A 
ATOM      5  C   UNL     1       0.715   2.062   0.000  0.00  0.00    +0.000 C 
ATOM      6  N   UNL     1       1.429   0.825   0.000  0.00  0.00    +0.000 NA
ATOM      7  C   UNL     1       1.429   0.000   0.000  0.00  0.00    +0.000 A 
ATOM      8  C   UNL     1       0.715  -0.412   0.000  0.00  0.00    +0.000 A 
ENDROOT
BRANCH   1   9
ATOM      9  C   UNL     1      -0.715  -0.412   0.000  0.00  0.00    +0.000 C 
BRANCH   9  10
ATOM     10  N   UNL     1      -1.429   0.000   0.000  0.00  0.00    +0.000 NA
BRANCH  10  11
ATOM     11  CA  UNL     1      -2.143  -0.412   0.000  0.00  0.00    +0.000 C 
BRANCH  11  12
ATOM     12  C   UNL     1      -2.143  -1.238   0.000  0.00  0.00    +0.000 C 
ATOM     13  O   UNL     1      -1.429  -1.650   0.000  0.00  0.00    +0.000 OA
ATOM     14  OXT UNL     1      -2.858  -1.650   0.000  0.00  0.00    +0.000 OA
ENDBRANCH  11  12
BRANCH  11  15
ATOM     15  C   UNL     1      -2.858   0.000   0.000  0.00  0.00    +0.000 C 
BRANCH  15  17
ATOM     16  C   UNL     1      -4.287   0.000   0.000  0.00  0.00    +0.000 C 
ATOM     17  C   UNL     1      -3.572  -0.412   0.000  0.00  0.00    +0.000 C 
ENDBRANCH  15  17
ENDBRANCH  11  15
ENDBRANCH  10  11
ENDBRANCH   9  10
ENDBRANCH   1   9
BRANCH   8  18
ATOM     18  C   UNL     1       0.715  -1.238   0.000  0.00  0.00    +0.000 C 
BRANCH  18  19
ATOM     19  O   UNL     1       1.429  -1.650   0.000  0.00  0.00    +0.000 OA
BRANCH  19  20
ATOM     20  P   UNL     1       2.143  -1.238   0.000  0.00  0.00    +0.000 P 
ATOM     21  O   UNL     1       2.858  -0.825   0.000  0.00  0.00    +0.000 OA
ATOM     22  O   UNL     1       2.556  -1.952   0.000  0.00  0.00    +0.000 OA
ATOM     23  O   UNL     1       1.731  -0.523   0.000  0.00  0.00    +0.000 OA
ENDBRANCH  19  20
ENDBRANCH  18  19
ENDBRANCH   8  18
TORSDOF 9
