REMARK  Name = 
REMARK  2 active torsions:
REMARK  status: ('A' for Active; 'I' for Inactive)
REMARK    1  A    between atoms: N_8  and  C_18
REMARK    2  A    between atoms: C_18  and  C_21
REMARK                            x       y       z     vdW  Elec       q    Type
REMARK                         _______ _______ _______ _____ _____    ______ ____
ROOT
ATOM      1  O   UNL     1       5.154  -0.951   0.000  0.00  0.00    +0.000 OA
ATOM      2  O   UNL     1       5.059  -2.301   0.000  0.00  0.00    +0.000 OA
ATOM      3  O   UNL     1       2.729  -3.443   0.000  0.00  0.00    +0.000 OA
ATOM      4  O   UNL     1       3.627   0.969   0.000  0.00  0.00    +0.000 OA
ATOM      5  N   UNL     1       2.912  -1.094   0.000  0.00  0.00    +0.000 N 
ATOM      6  N   UNL     1       4.341  -0.269   0.000  0.00  0.00    +0.000 N 
ATOM      7  N   UNL     1       4.039  -2.776   0.000  0.00  0.00    +0.000 NA
ATOM      8  C   UNL     1       3.627  -1.507   0.000  0.00  0.00    +0.000 C 
ATOM      9  C   UNL     1       2.959  -1.992   0.000  0.00  0.00    +0.000 C 
ATOM     10  C   UNL     1       4.341  -1.094   0.000  0.00  0.00    +0.000 C 
ATOM     11  C   UNL     1       4.294  -1.992   0.000  0.00  0.00    +0.000 C 
ATOM     12  C   UNL     1       2.912  -0.269   0.000  0.00  0.00    +0.000 A 
ATOM     13  C   UNL     1       3.214  -2.776   0.000  0.00  0.00    +0.000 C 
ATOM     14  C   UNL     1       3.627   0.143   0.000  0.00  0.00    +0.000 C 
ATOM     15  C   UNL     1       2.131  -1.345   0.000  0.00  0.00    +0.000 A 
ATOM     16  C   UNL     1       2.131  -0.018   0.000  0.00  0.00    +0.000 A 
ATOM     17  C   UNL     1       1.650  -0.681   0.000  0.00  0.00    +0.000 A 
ENDROOT
BRANCH   6  18
ATOM     18  C   UNL     1       5.056   0.143   0.000  0.00  0.00    +0.000 C 
BRANCH  18  21
ATOM     19 BR   UNL     1       5.056   3.443   0.000  0.00  0.00    +0.000 Br
ATOM     20  F   UNL     1       6.485   0.969   0.000  0.00  0.00    +0.000 F 
ATOM     21  C   UNL     1       5.056   0.969   0.000  0.00  0.00    +0.000 A 
ATOM     22  C   UNL     1       5.770   1.381   0.000  0.00  0.00    +0.000 A 
ATOM     23  C   UNL     1       4.341   1.381   0.000  0.00  0.00    +0.000 A 
ATOM     24  C   UNL     1       5.770   2.206   0.000  0.00  0.00    +0.000 A 
ATOM     25  C   UNL     1       4.341   2.206   0.000  0.00  0.00    +0.000 A 
ATOM     26  C   UNL     1       5.056   2.619   0.000  0.00  0.00    +0.000 A 
ENDBRANCH  18  21
ENDBRANCH   6  18
TORSDOF 2
