REMARK  Name = 
REMARK  2 active torsions:
REMARK  status: ('A' for Active; 'I' for Inactive)
REMARK    1  A    between atoms: C_2  and  C_4
REMARK    2  A    between atoms: C_3  and  C_4
REMARK                            x       y       z     vdW  Elec       q    Type
REMARK                         _______ _______ _______ _____ _____    ______ ____
ROOT
ATOM      1  C   UNL     1      -0.715  -0.412   0.000  0.00  0.00    +0.000 A 
ATOM      2  C   UNL     1      -0.715   0.412   0.000  0.00  0.00    +0.000 A 
ATOM      3  C   UNL     1      -1.429   0.825   0.000  0.00  0.00    +0.000 A 
ATOM      4  C   UNL     1      -2.143   0.412   0.000  0.00  0.00    +0.000 A 
ATOM      5  C   UNL     1      -1.429  -0.825   0.000  0.00  0.00    +0.000 A 
ATOM      6  C   UNL     1      -1.429  -1.650   0.000  0.00  0.00    +0.000 C 
ATOM      7  C   UNL     1      -2.143  -0.412   0.000  0.00  0.00    +0.000 A 
ATOM      8  C   UNL     1      -2.858  -0.825   0.000  0.00  0.00    +0.000 C 
ENDROOT
BRANCH   1   9
ATOM      9  C   UNL     1       0.000  -0.825   0.000  0.00  0.00    +0.000 C 
ATOM     10  C   UNL     1       0.000  -1.650   0.000  0.00  0.00    +0.000 C 
BRANCH   9  12
ATOM     11  N   UNL     1       0.715   0.412   0.000  0.00  0.00    +0.000 NA
ATOM     12  C   UNL     1       0.715  -0.412   0.000  0.00  0.00    +0.000 A 
ATOM     13  C   UNL     1       1.499  -0.667   0.000  0.00  0.00    +0.000 A 
ATOM     14  N   UNL     1       1.984   0.000   0.000  0.00  0.00    +0.000 NA
ATOM     15  C   UNL     1       1.499   0.667   0.000  0.00  0.00    +0.000 A 
ENDBRANCH   9  12
ENDBRANCH   1   9
TORSDOF 2
