REMARK  Name = 
REMARK  5 active torsions:
REMARK  status: ('A' for Active; 'I' for Inactive)
REMARK    1  A    between atoms: C_5  and  N_16
REMARK    2  A    between atoms: N_8  and  C_11
REMARK    3  A    between atoms: N_10  and  C_26
REMARK    4  A    between atoms: N_16  and  C_17
REMARK    5  A    between atoms: C_28  and  N_32
REMARK                            x       y       z     vdW  Elec       q    Type
REMARK                         _______ _______ _______ _____ _____    ______ ____
ROOT
ATOM      1  C   UNL     1      13.762 -13.845   0.000  0.00  0.00    +0.000 A 
ATOM      2  C   UNL     1      13.762 -14.682   0.000  0.00  0.00    +0.000 A 
ATOM      3  C   UNL     1      14.473 -15.100   0.000  0.00  0.00    +0.000 A 
ATOM      4  N   UNL     1      15.184 -14.682   0.000  0.00  0.00    +0.000 N 
ATOM      5  C   UNL     1      15.184 -13.845   0.000  0.00  0.00    +0.000 A 
ATOM      6  C   UNL     1      14.473 -13.427   0.000  0.00  0.00    +0.000 A 
ATOM      7  C   UNL     1      14.473 -12.591   0.000  0.00  0.00    +0.000 A 
ATOM      8  N   UNL     1      13.762 -12.172   0.000  0.00  0.00    +0.000 N 
ATOM      9  C   UNL     1      13.009 -12.591   0.000  0.00  0.00    +0.000 A 
ATOM     10  N   UNL     1      13.009 -13.427   0.000  0.00  0.00    +0.000 N 
ATOM     11  O   UNL     1      15.184 -12.172   0.000  0.00  0.00    +0.000 OA
ATOM     12  O   UNL     1      12.298 -12.172   0.000  0.00  0.00    +0.000 OA
ATOM     13  O   UNL     1      14.473 -15.979   0.000  0.00  0.00    +0.000 OA
ATOM     14  C   UNL     1      15.937 -15.142   0.000  0.00  0.00    +0.000 C 
ATOM     15  C   UNL     1      13.009 -15.100   0.000  0.00  0.00    +0.000 C 
ENDROOT
BRANCH  10  16
ATOM     16  C   UNL     1      12.298 -13.845   0.000  0.00  0.00    +0.000 A 
ATOM     17  C   UNL     1      11.587 -13.427   0.000  0.00  0.00    +0.000 A 
ATOM     18  C   UNL     1      10.876 -13.845   0.000  0.00  0.00    +0.000 A 
ATOM     19  C   UNL     1      10.876 -14.724   0.000  0.00  0.00    +0.000 A 
ATOM     20  C   UNL     1      11.587 -15.100   0.000  0.00  0.00    +0.000 A 
ATOM     21  C   UNL     1      12.298 -14.682   0.000  0.00  0.00    +0.000 A 
BRANCH  18  22
ATOM     22  N   UNL     1      10.123 -13.427   0.000  0.00  0.00    +0.000 NA
ATOM     23  C   UNL     1       9.412 -13.845   0.000  0.00  0.00    +0.000 C 
ATOM     24  C   UNL     1       8.700 -13.427   0.000  0.00  0.00    +0.000 C 
ATOM     25  O   UNL     1       9.412 -14.682   0.000  0.00  0.00    +0.000 OA
ENDBRANCH  18  22
ENDBRANCH  10  16
BRANCH   8  26
ATOM     26  C   UNL     1      13.762 -11.336   0.000  0.00  0.00    +0.000 C 
ATOM     27  C   UNL     1      14.180 -10.625   0.000  0.00  0.00    +0.000 C 
ATOM     28  C   UNL     1      13.344 -10.625   0.000  0.00  0.00    +0.000 C 
ENDBRANCH   8  26
BRANCH   5  29
ATOM     29  N   UNL     1      15.937 -13.427   0.000  0.00  0.00    +0.000 NA
BRANCH  29  30
ATOM     30  C   UNL     1      16.648 -13.845   0.000  0.00  0.00    +0.000 A 
ATOM     31  C   UNL     1      16.648 -14.682   0.000  0.00  0.00    +0.000 A 
ATOM     32  C   UNL     1      17.401 -15.100   0.000  0.00  0.00    +0.000 A 
ATOM     33  C   UNL     1      18.112 -14.682   0.000  0.00  0.00    +0.000 A 
ATOM     34  C   UNL     1      18.112 -13.845   0.000  0.00  0.00    +0.000 A 
ATOM     35  C   UNL     1      17.401 -13.427   0.000  0.00  0.00    +0.000 A 
ATOM     36  F   UNL     1      17.401 -12.591   0.000  0.00  0.00    +0.000 F 
ATOM     37  I   UNL     1      18.823 -15.100   0.000  0.00  0.00    +0.000 I 
ENDBRANCH  29  30
ENDBRANCH   5  29
TORSDOF 5
