REMARK  Name = 
REMARK  5 active torsions:
REMARK  status: ('A' for Active; 'I' for Inactive)
REMARK    1  A    between atoms: C_2  and  C_3
REMARK    2  A    between atoms: C_2  and  C_9
REMARK    3  A    between atoms: C_3  and  C_4
REMARK    4  A    between atoms: C_4  and  C_6
REMARK    5  A    between atoms: C_9  and  C_11
REMARK                            x       y       z     vdW  Elec       q    Type
REMARK                         _______ _______ _______ _____ _____    ______ ____
ROOT
ATOM      1  O   UNL     1       3.904   0.604   0.000  0.00  0.00    +0.000 OA
ATOM      2  C   UNL     1       3.904   1.429   0.000  0.00  0.00    +0.000 C 
ENDROOT
BRANCH   2   3
ATOM      3  C   UNL     1       4.618   1.841   0.000  0.00  0.00    +0.000 C 
ATOM      4  O   UNL     1       4.618   2.666   0.000  0.00  0.00    +0.000 OA
BRANCH   3   5
ATOM      5  C   UNL     1       5.333   1.429   0.000  0.00  0.00    +0.000 C 
ATOM      6  O   UNL     1       6.047   1.841   0.000  0.00  0.00    +0.000 OA
ATOM      7  O   UNL     1       5.333   0.604   0.000  0.00  0.00    +0.000 OA
ENDBRANCH   3   5
ENDBRANCH   2   3
BRANCH   2   8
ATOM      8  C   UNL     1       3.189   1.841   0.000  0.00  0.00    +0.000 C 
BRANCH   8   9
ATOM      9  C   UNL     1       2.475   1.429   0.000  0.00  0.00    +0.000 C 
ATOM     10  O   UNL     1       2.475   0.604   0.000  0.00  0.00    +0.000 OA
BRANCH   9  11
ATOM     11  C   UNL     1       1.760   1.841   0.000  0.00  0.00    +0.000 C 
ATOM     12  O   UNL     1       1.046   1.429   0.000  0.00  0.00    +0.000 OA
ATOM     13  O   UNL     1       1.760   2.666   0.000  0.00  0.00    +0.000 OA
ENDBRANCH   9  11
ENDBRANCH   8   9
ENDBRANCH   2   8
TORSDOF 5
