REMARK  Name = 
REMARK  6 active torsions:
REMARK  status: ('A' for Active; 'I' for Inactive)
REMARK    1  A    between atoms: C_8  and  C_10
REMARK    2  A    between atoms: C_8  and  N_14
REMARK    3  A    between atoms: C_9  and  C_10
REMARK    4  A    between atoms: C_9  and  O_20
REMARK    5  A    between atoms: C_12  and  O_20
REMARK    6  A    between atoms: C_13  and  N_14
REMARK                            x       y       z     vdW  Elec       q    Type
REMARK                         _______ _______ _______ _____ _____    ______ ____
ROOT
ATOM      1  C   UNL     1       0.743   1.508   0.000  0.00  0.00    +0.000 C 
ATOM      2  C   UNL     1       0.301   2.867   0.000  0.00  0.00    +0.000 C 
ATOM      3  C   UNL     1       1.528   1.763   0.000  0.00  0.00    +0.000 C 
ATOM      4  C   UNL     1       1.086   3.122   0.000  0.00  0.00    +0.000 C 
ATOM      5  C   UNL     1      -0.655   1.805   0.000  0.00  0.00    +0.000 A 
ATOM      6  C   UNL     1      -1.322   2.290   0.000  0.00  0.00    +0.000 A 
ATOM      7  N   UNL     1      -0.910   1.021   0.000  0.00  0.00    +0.000 NA
ATOM      8  N   UNL     1      -1.990   1.805   0.000  0.00  0.00    +0.000 NA
ATOM      9  N   UNL     1       0.130   2.060   0.000  0.00  0.00    +0.000 N 
ATOM     10  O   UNL     1       1.699   2.570   0.000  0.00  0.00    +0.000 OA
ATOM     11  S   UNL     1      -1.735   1.021   0.000  0.00  0.00    +0.000 S 
ENDROOT
BRANCH   6  12
ATOM     12  O   UNL     1      -1.322   3.115   0.000  0.00  0.00    +0.000 OA
BRANCH  12  13
ATOM     13  C   UNL     1      -2.037   3.528   0.000  0.00  0.00    +0.000 C 
BRANCH  13  14
ATOM     14  C   UNL     1      -2.037   4.353   0.000  0.00  0.00    +0.000 C 
ATOM     15  O   UNL     1      -1.322   4.765   0.000  0.00  0.00    +0.000 OA
BRANCH  14  16
ATOM     16  C   UNL     1      -2.751   4.765   0.000  0.00  0.00    +0.000 C 
BRANCH  16  17
ATOM     17  N   UNL     1      -2.751   5.590   0.000  0.00  0.00    +0.000 NA
BRANCH  17  21
ATOM     18  C   UNL     1      -4.180   6.415   0.000  0.00  0.00    +0.000 C 
ATOM     19  C   UNL     1      -3.878   5.288   0.000  0.00  0.00    +0.000 C 
ATOM     20  C   UNL     1      -3.053   6.717   0.000  0.00  0.00    +0.000 C 
ATOM     21  C   UNL     1      -3.466   6.003   0.000  0.00  0.00    +0.000 C 
ENDBRANCH  17  21
ENDBRANCH  16  17
ENDBRANCH  14  16
ENDBRANCH  13  14
ENDBRANCH  12  13
ENDBRANCH   6  12
TORSDOF 6
