REMARK  Name = 
REMARK  7 active torsions:
REMARK  status: ('A' for Active; 'I' for Inactive)
REMARK    1  A    between atoms: C_2  and  C_38
REMARK    2  A    between atoms: C_8  and  O_13
REMARK    3  A    between atoms: O_13  and  C_14
REMARK    4  A    between atoms: C_16  and  C_17
REMARK    5  A    between atoms: C_17  and  O_18
REMARK    6  A    between atoms: O_18  and  C_19
REMARK    7  A    between atoms: O_34  and  C_35
REMARK                            x       y       z     vdW  Elec       q    Type
REMARK                         _______ _______ _______ _____ _____    ______ ____
ROOT
ATOM      1  O   UNL     1      -1.786   0.988   0.000  0.00  0.00    +0.000 OA
ENDROOT
BRANCH   1   9
ATOM      2  O   UNL     1       1.073   0.988   0.000  0.00  0.00    +0.000 OA
ATOM      3  C   UNL     1       1.786   0.576   0.000  0.00  0.00    +0.000 C 
ATOM      4  C   UNL     1       1.786  -0.249   0.000  0.00  0.00    +0.000 C 
ATOM      5  C   UNL     1       1.073  -0.662   0.000  0.00  0.00    +0.000 C 
ATOM      6  C   UNL     1       0.357  -0.249   0.000  0.00  0.00    +0.000 A 
ATOM      7  C   UNL     1       0.357   0.576   0.000  0.00  0.00    +0.000 A 
ATOM      8  C   UNL     1      -0.357   0.988   0.000  0.00  0.00    +0.000 A 
ATOM      9  C   UNL     1      -1.071   0.576   0.000  0.00  0.00    +0.000 A 
ATOM     10  C   UNL     1      -1.071  -0.249   0.000  0.00  0.00    +0.000 A 
ATOM     11  C   UNL     1      -0.357  -0.662   0.000  0.00  0.00    +0.000 A 
ATOM     12  O   UNL     1      -0.357  -1.487   0.000  0.00  0.00    +0.000 OA
ATOM     13  O   UNL     1       1.073  -1.487   0.000  0.00  0.00    +0.000 OA
BRANCH   3  17
ATOM     14  C   UNL     1       3.929   1.813   0.000  0.00  0.00    +0.000 A 
ATOM     15  C   UNL     1       3.929   0.988   0.000  0.00  0.00    +0.000 A 
ATOM     16  C   UNL     1       3.215   0.576   0.000  0.00  0.00    +0.000 A 
ATOM     17  C   UNL     1       2.501   0.988   0.000  0.00  0.00    +0.000 A 
ATOM     18  C   UNL     1       2.501   1.813   0.000  0.00  0.00    +0.000 A 
ATOM     19  C   UNL     1       3.215   2.225   0.000  0.00  0.00    +0.000 A 
ATOM     20  O   UNL     1       3.215   3.050   0.000  0.00  0.00    +0.000 OA
BRANCH  14  22
ATOM     21  C   UNL     1       5.358   1.813   0.000  0.00  0.00    +0.000 C 
ATOM     22  O   UNL     1       4.644   2.225   0.000  0.00  0.00    +0.000 OA
ENDBRANCH  14  22
ENDBRANCH   3  17
ENDBRANCH   1   9
BRANCH   1  23
ATOM     23  C   UNL     1      -2.501   0.576   0.000  0.00  0.00    +0.000 C 
ATOM     24  O   UNL     1      -2.501  -0.249   0.000  0.00  0.00    +0.000 OA
ATOM     25  C   UNL     1      -3.215  -0.662   0.000  0.00  0.00    +0.000 C 
ATOM     26  C   UNL     1      -3.215   0.988   0.000  0.00  0.00    +0.000 C 
ATOM     27  C   UNL     1      -3.929   0.576   0.000  0.00  0.00    +0.000 C 
ATOM     28  C   UNL     1      -3.929  -0.249   0.000  0.00  0.00    +0.000 C 
ATOM     29  O   UNL     1      -4.643  -0.662   0.000  0.00  0.00    +0.000 OA
ATOM     30  O   UNL     1      -4.643   0.988   0.000  0.00  0.00    +0.000 OA
ATOM     31  O   UNL     1      -3.214   1.813   0.000  0.00  0.00    +0.000 OA
BRANCH  25  32
ATOM     32  C   UNL     1      -3.215  -1.487   0.000  0.00  0.00    +0.000 C 
BRANCH  32  33
ATOM     33  O   UNL     1      -3.929  -1.899   0.000  0.00  0.00    +0.000 OA
BRANCH  33  34
ATOM     34  C   UNL     1      -3.929  -2.724   0.000  0.00  0.00    +0.000 C 
ATOM     35  C   UNL     1      -4.643  -3.137   0.000  0.00  0.00    +0.000 C 
ATOM     36  O   UNL     1      -5.358  -2.724   0.000  0.00  0.00    +0.000 OA
ATOM     37  O   UNL     1      -3.215  -3.137   0.000  0.00  0.00    +0.000 OA
ATOM     38  C   UNL     1      -3.215  -3.962   0.000  0.00  0.00    +0.000 C 
ATOM     39  C   UNL     1      -2.501  -4.374   0.000  0.00  0.00    +0.000 C 
ATOM     40  C   UNL     1      -4.643  -3.962   0.000  0.00  0.00    +0.000 C 
ATOM     41  C   UNL     1      -3.929  -4.374   0.000  0.00  0.00    +0.000 C 
ATOM     42  O   UNL     1      -3.929  -5.199   0.000  0.00  0.00    +0.000 OA
ATOM     43  O   UNL     1      -5.358  -4.374   0.000  0.00  0.00    +0.000 OA
ENDBRANCH  33  34
ENDBRANCH  32  33
ENDBRANCH  25  32
ENDBRANCH   1  23
TORSDOF 7
