REMARK  Name = 
REMARK  20 active torsions:
REMARK  status: ('A' for Active; 'I' for Inactive)
REMARK    1  A    between atoms: C_1  and  O_4
REMARK    2  A    between atoms: C_2  and  N_6
REMARK    3  A    between atoms: O_4  and  P_8
REMARK    4  A    between atoms: C_5  and  O_10
REMARK    5  A    between atoms: C_7  and  C_12
REMARK    6  A    between atoms: P_8  and  O_13
REMARK    7  A    between atoms: O_10  and  C_17
REMARK    8  A    between atoms: O_13  and  P_21
REMARK    9  A    between atoms: C_17  and  C_22
REMARK   10  A    between atoms: P_21  and  O_24
REMARK   11  A    between atoms: O_24  and  C_29
REMARK   12  A    between atoms: N_27  and  CA_30
REMARK   13  A    between atoms: C_29  and  C_31
REMARK   14  A    between atoms: CA_30  and  C_32
REMARK   15  A    between atoms: N_36  and  CA_41
REMARK   16  A    between atoms: C_38  and  N_42
REMARK   17  A    between atoms: CA_41  and  CB_44
REMARK   18  A    between atoms: CA_41  and  C_45
REMARK   19  A    between atoms: CB_44  and  CG_48
REMARK   20  A    between atoms: CG_48  and  CD_54
REMARK                            x       y       z     vdW  Elec       q    Type
REMARK                         _______ _______ _______ _____ _____    ______ ____
ROOT
ATOM      1  C   UNK A   0      22.274 -12.411   0.000  0.00  0.00    +0.000 C 
ATOM      2  C   UNK A   0      22.274 -13.245   0.000  0.00  0.00    +0.000 C 
ATOM      3  O   UNK A   0      21.550 -12.000   0.000  0.00  0.00    +0.000 OA
ATOM      4  C   UNK A   0      21.550 -13.668   0.000  0.00  0.00    +0.000 C 
ATOM      5  C   UNK A   0      20.835 -12.411   0.000  0.00  0.00    +0.000 C 
ATOM      6  C   UNK A   0      20.835 -13.245   0.000  0.00  0.00    +0.000 C 
ATOM      7  O   UNK A   0      20.120 -13.652   0.000  0.00  0.00    +0.000 OA
ENDROOT
BRANCH   2   8
ATOM      8  N   UNK A   0      23.076 -13.993   0.000  0.00  0.00    +0.000 NA
ATOM      9  C   UNK A   0      23.084 -14.819   0.000  0.00  0.00    +0.000 C 
ATOM     10  C   UNK A   0      23.791 -15.226   0.000  0.00  0.00    +0.000 C 
ATOM     11  O   UNK A   0      22.369 -15.231   0.000  0.00  0.00    +0.000 OA
ENDBRANCH   2   8
BRANCH   5  12
ATOM     12  C   UNK A   0      20.128 -12.000   0.000  0.00  0.00    +0.000 C 
ATOM     13  O   UNK A   0      20.116 -11.173   0.000  0.00  0.00    +0.000 OA
ENDBRANCH   5  12
BRANCH   4  14
ATOM     14  O   UNK A   0      21.550 -14.486   0.000  0.00  0.00    +0.000 OA
BRANCH  14  15
ATOM     15  C   UNK A   0      20.835 -14.898   0.000  0.00  0.00    +0.000 C 
ATOM     16  C   UNK A   0      20.120 -14.486   0.000  0.00  0.00    +0.000 C 
BRANCH  15  17
ATOM     17  C   UNK A   0      20.831 -15.724   0.000  0.00  0.00    +0.000 C 
ATOM     18  N   ALA A   1      19.919 -16.427   0.000  0.00  0.00    +0.000 NA
ATOM     19  O   UNK A   0      21.547 -16.135   0.000  0.00  0.00    +0.000 OA
BRANCH  18  20
ATOM     20  CA  ALA A   1      19.910 -17.241   0.000  0.00  0.00    +0.000 C 
ATOM     21  CB  ALA A   1      20.609 -17.705   0.000  0.00  0.00    +0.000 C 
BRANCH  20  22
ATOM     22  C   ALA A   1      19.121 -17.512   0.000  0.00  0.00    +0.000 C 
ATOM     23  N   GLU A   2      18.451 -17.027   0.000  0.00  0.00    +0.000 NA
ATOM     24  O   ALA A   1      19.121 -18.330   0.000  0.00  0.00    +0.000 OA
BRANCH  23  25
ATOM     25  CA  GLU A   2      18.135 -16.176   0.000  0.00  0.00    +0.000 C 
BRANCH  25  26
ATOM     26  C   GLU A   2      18.755 -15.646   0.000  0.00  0.00    +0.000 C 
ATOM     27  O   GLU A   2      19.557 -15.644   0.000  0.00  0.00    +0.000 OA
ATOM     28  OXT GLU A   2      18.472 -14.885   0.000  0.00  0.00    +0.000 OA
ENDBRANCH  25  26
BRANCH  25  29
ATOM     29  CB  GLU A   2      17.337 -15.979   0.000  0.00  0.00    +0.000 C 
BRANCH  29  30
ATOM     30  CG  GLU A   2      16.716 -16.509   0.000  0.00  0.00    +0.000 C 
BRANCH  30  31
ATOM     31  CD  GLU A   2      16.009 -16.090   0.000  0.00  0.00    +0.000 C 
ATOM     32  OE1 GLU A   2      15.311 -16.505   0.000  0.00  0.00    +0.000 OA
ATOM     33  OE2 GLU A   2      16.005 -15.259   0.000  0.00  0.00    +0.000 OA
ENDBRANCH  30  31
ENDBRANCH  29  30
ENDBRANCH  25  29
ENDBRANCH  23  25
ENDBRANCH  20  22
ENDBRANCH  18  20
ENDBRANCH  15  17
ENDBRANCH  14  15
ENDBRANCH   4  14
BRANCH   1  34
ATOM     34  O   UNK A   0      22.985 -12.000   0.000  0.00  0.00    +0.000 OA
BRANCH  34  35
ATOM     35  P   UNK A   0      23.811 -12.000   0.000  0.00  0.00    +0.000 P 
ATOM     36  O   UNK A   0      23.811 -11.178   0.000  0.00  0.00    +0.000 OA
ATOM     37  O   UNK A   0      23.811 -12.822   0.000  0.00  0.00    +0.000 OA
BRANCH  35  38
ATOM     38  O   UNK A   0      24.638 -12.000   0.000  0.00  0.00    +0.000 OA
BRANCH  38  39
ATOM     39  P   UNK A   0      25.456 -12.000   0.000  0.00  0.00    +0.000 P 
ATOM     40  O   UNK A   0      25.456 -11.178   0.000  0.00  0.00    +0.000 OA
ATOM     41  O   UNK A   0      25.456 -12.822   0.000  0.00  0.00    +0.000 OA
BRANCH  39  42
ATOM     42  O   UNK A   0      26.282 -12.000   0.000  0.00  0.00    +0.000 OA
BRANCH  42  43
ATOM     43  C   UNK A   0      26.454 -12.805   0.000  0.00  0.00    +0.000 C 
BRANCH  43  44
ATOM     44  C   UNK A   0      27.239 -13.056   0.000  0.00  0.00    +0.000 C 
ATOM     45  O   UNK A   0      27.901 -12.583   0.000  0.00  0.00    +0.000 OA
ATOM     46  C   UNK A   0      27.511 -13.841   0.000  0.00  0.00    +0.000 C 
ATOM     47  C   UNK A   0      28.576 -13.072   0.000  0.00  0.00    +0.000 C 
ATOM     48  C   UNK A   0      28.333 -13.841   0.000  0.00  0.00    +0.000 C 
ATOM     49  O   UNK A   0      27.026 -14.515   0.000  0.00  0.00    +0.000 OA
ATOM     50  O   UNK A   0      28.818 -14.507   0.000  0.00  0.00    +0.000 OA
BRANCH  47  51
ATOM     51  N   UNK A   0      29.217 -11.736   0.000  0.00  0.00    +0.000 N 
ATOM     52  C   UNK A   0      28.510 -11.309   0.000  0.00  0.00    +0.000 A 
ATOM     53  C   UNK A   0      29.944 -11.309   0.000  0.00  0.00    +0.000 A 
ATOM     54  N   UNK A   0      28.510 -10.479   0.000  0.00  0.00    +0.000 NA
ATOM     55  O   UNK A   0      27.795 -11.720   0.000  0.00  0.00    +0.000 OA
ATOM     56  C   UNK A   0      29.944 -10.479   0.000  0.00  0.00    +0.000 A 
ATOM     57  C   UNK A   0      29.221 -10.064   0.000  0.00  0.00    +0.000 A 
ATOM     58  O   UNK A   0      29.221  -9.241   0.000  0.00  0.00    +0.000 OA
ENDBRANCH  47  51
ENDBRANCH  43  44
ENDBRANCH  42  43
ENDBRANCH  39  42
ENDBRANCH  38  39
ENDBRANCH  35  38
ENDBRANCH  34  35
ENDBRANCH   1  34
TORSDOF 20
