REMARK  Name = 
REMARK  4 active torsions:
REMARK  status: ('A' for Active; 'I' for Inactive)
REMARK    1  A    between atoms: C_2  and  C_5
REMARK    2  A    between atoms: C_3  and  C_4
REMARK    3  A    between atoms: C_3  and  C_5
REMARK    4  A    between atoms: C_4  and  C_6
REMARK                            x       y       z     vdW  Elec       q    Type
REMARK                         _______ _______ _______ _____ _____    ______ ____
ROOT
ATOM      1  C   UNL     1       3.904   1.429   0.000  0.00  0.00    +0.000 C 
ENDROOT
BRANCH   1   2
ATOM      2  C   UNL     1       3.189   1.841   0.000  0.00  0.00    +0.000 C 
ATOM      3  N   UNL     1       3.189   2.666   0.000  0.00  0.00    +0.000 NA
BRANCH   2   5
ATOM      4  C   UNL     1       1.760   1.841   0.000  0.00  0.00    +0.000 C 
ATOM      5  C   UNL     1       2.475   1.429   0.000  0.00  0.00    +0.000 C 
ENDBRANCH   2   5
ENDBRANCH   1   2
BRANCH   1   6
ATOM      6  C   UNL     1       4.618   1.841   0.000  0.00  0.00    +0.000 C 
BRANCH   6   7
ATOM      7  C   UNL     1       5.333   1.429   0.000  0.00  0.00    +0.000 C 
ATOM      8  O   UNL     1       6.047   1.841   0.000  0.00  0.00    +0.000 OA
ATOM      9  O   UNL     1       5.333   0.604   0.000  0.00  0.00    +0.000 OA
ENDBRANCH   6   7
ENDBRANCH   1   6
TORSDOF 4
