REMARK  Name = 
REMARK  15 active torsions:
REMARK  status: ('A' for Active; 'I' for Inactive)
REMARK    1  A    between atoms: C_2  and  C_3
REMARK    2  A    between atoms: C_3  and  C_4
REMARK    3  A    between atoms: C_4  and  C_5
REMARK    4  A    between atoms: C_5  and  C_6
REMARK    5  A    between atoms: C_6  and  C_7
REMARK    6  A    between atoms: C_7  and  C_8
REMARK    7  A    between atoms: C_8  and  C_9
REMARK    8  A    between atoms: C_9  and  C_10
REMARK    9  A    between atoms: C_10  and  C_11
REMARK   10  A    between atoms: C_11  and  O_31
REMARK   11  A    between atoms: C_12  and  C_14
REMARK   12  A    between atoms: C_13  and  C_15
REMARK   13  A    between atoms: C_21  and  O_34
REMARK   14  A    between atoms: C_22  and  O_31
REMARK   15  A    between atoms: C_23  and  O_34
REMARK                            x       y       z     vdW  Elec       q    Type
REMARK                         _______ _______ _______ _____ _____    ______ ____
ROOT
ATOM      1  C   UNL     1       5.716   6.600   0.000  0.00  0.00    +0.000 C 
ATOM      2  C   UNL     1       6.430   7.838   0.000  0.00  0.00    +0.000 C 
ATOM      3  C   UNL     1       5.716   8.250   0.000  0.00  0.00    +0.000 C 
ATOM      4  C   UNL     1       6.430   7.013   0.000  0.00  0.00    +0.000 C 
ATOM      5  C   UNL     1       5.001   7.838   0.000  0.00  0.00    +0.000 C 
ATOM      6  O   UNL     1       7.145   8.250   0.000  0.00  0.00    +0.000 OA
ATOM      7  O   UNL     1       5.716   9.075   0.000  0.00  0.00    +0.000 OA
ATOM      8  O   UNL     1       5.001   7.013   0.000  0.00  0.00    +0.000 OA
ENDROOT
BRANCH   1   9
ATOM      9  C   UNL     1       5.716   5.775   0.000  0.00  0.00    +0.000 C 
ATOM     10  O   UNL     1       5.001   5.362   0.000  0.00  0.00    +0.000 OA
ENDBRANCH   1   9
BRANCH   5  11
ATOM     11  O   UNL     1       4.287   8.250   0.000  0.00  0.00    +0.000 OA
BRANCH  11  12
ATOM     12  C   UNL     1       3.572   7.838   0.000  0.00  0.00    +0.000 C 
BRANCH  12  13
ATOM     13  C   UNL     1       2.858   8.250   0.000  0.00  0.00    +0.000 C 
BRANCH  13  14
ATOM     14  C   UNL     1       2.143   7.838   0.000  0.00  0.00    +0.000 C 
BRANCH  14  15
ATOM     15  C   UNL     1       1.429   8.250   0.000  0.00  0.00    +0.000 C 
BRANCH  15  16
ATOM     16  C   UNL     1       0.715   7.838   0.000  0.00  0.00    +0.000 C 
BRANCH  16  17
ATOM     17  C   UNL     1       0.000   8.250   0.000  0.00  0.00    +0.000 C 
BRANCH  17  18
ATOM     18  C   UNL     1      -0.715   7.838   0.000  0.00  0.00    +0.000 C 
BRANCH  18  19
ATOM     19  C   UNL     1      -1.429   8.250   0.000  0.00  0.00    +0.000 C 
BRANCH  19  20
ATOM     20  C   UNL     1      -2.143   7.838   0.000  0.00  0.00    +0.000 C 
BRANCH  20  22
ATOM     21  C   UNL     1      -3.572   7.838   0.000  0.00  0.00    +0.000 C 
ATOM     22  C   UNL     1      -2.858   8.250   0.000  0.00  0.00    +0.000 C 
ENDBRANCH  20  22
ENDBRANCH  19  20
ENDBRANCH  18  19
ENDBRANCH  17  18
ENDBRANCH  16  17
ENDBRANCH  15  16
ENDBRANCH  14  15
ENDBRANCH  13  14
ENDBRANCH  12  13
ENDBRANCH  11  12
ENDBRANCH   5  11
BRANCH   4  23
ATOM     23  O   UNL     1       7.145   6.600   0.000  0.00  0.00    +0.000 OA
BRANCH  23  28
ATOM     24  C   UNL     1       8.574   8.250   0.000  0.00  0.00    +0.000 C 
ATOM     25  C   UNL     1       9.288   7.838   0.000  0.00  0.00    +0.000 C 
ATOM     26  C   UNL     1       9.288   7.013   0.000  0.00  0.00    +0.000 C 
ATOM     27  C   UNL     1       8.574   6.600   0.000  0.00  0.00    +0.000 C 
ATOM     28  C   UNL     1       7.859   7.013   0.000  0.00  0.00    +0.000 C 
ATOM     29  O   UNL     1      10.003   8.250   0.000  0.00  0.00    +0.000 OA
ATOM     30  O   UNL     1      10.003   6.600   0.000  0.00  0.00    +0.000 OA
ATOM     31  O   UNL     1       8.574   5.775   0.000  0.00  0.00    +0.000 OA
ATOM     32  O   UNL     1       7.859   7.838   0.000  0.00  0.00    +0.000 OA
BRANCH  24  33
ATOM     33  C   UNL     1       8.574   9.075   0.000  0.00  0.00    +0.000 C 
ATOM     34  O   UNL     1       9.288   9.488   0.000  0.00  0.00    +0.000 OA
ENDBRANCH  24  33
ENDBRANCH  23  28
ENDBRANCH   4  23
TORSDOF 15
