REMARK  Name = 
REMARK  14 active torsions:
REMARK  status: ('A' for Active; 'I' for Inactive)
REMARK    1  A    between atoms: C_2  and  O_3
REMARK    2  A    between atoms: O_3  and  C_4
REMARK    3  A    between atoms: C_4  and  C_5
REMARK    4  A    between atoms: C_5  and  O_6
REMARK    5  A    between atoms: O_6  and  C_7
REMARK    6  A    between atoms: N_9  and  C_10
REMARK    7  A    between atoms: C_10  and  C_11
REMARK    8  A    between atoms: C_10  and  C_18
REMARK    9  A    between atoms: C_11  and  C_12
REMARK   10  A    between atoms: C_18  and  C_20
REMARK   11  A    between atoms: C_20  and  C_21
REMARK   12  A    between atoms: C_21  and  C_22
REMARK   13  A    between atoms: C_22  and  C_23
REMARK   14  A    between atoms: C_31  and  C_32
REMARK                            x       y       z     vdW  Elec       q    Type
REMARK                         _______ _______ _______ _____ _____    ______ ____
ROOT
ATOM      1  C   UNL     1       8.911   4.346   0.000  0.00  0.00    +0.000 C 
ATOM      2  N   UNL     1       8.090   4.432   0.000  0.00  0.00    +0.000 NA
ATOM      3  C   UNL     1       7.755   3.679   0.000  0.00  0.00    +0.000 C 
ATOM      4  C   UNL     1       8.368   3.126   0.000  0.00  0.00    +0.000 C 
ATOM      5  C   UNL     1       9.082   3.539   0.000  0.00  0.00    +0.000 C 
ATOM      6  O   UNL     1       9.836   3.203   0.000  0.00  0.00    +0.000 OA
ENDROOT
BRANCH   4   7
ATOM      7  C   UNL     1       8.281   2.306   0.000  0.00  0.00    +0.000 C 
ATOM      8  C   UNL     1       8.895   1.754   0.000  0.00  0.00    +0.000 C 
ATOM      9  O   UNL     1       9.715   1.668   0.000  0.00  0.00    +0.000 OA
ATOM     10  C   UNL     1       9.887   0.861   0.000  0.00  0.00    +0.000 C 
ATOM     11  O   UNL     1      10.640   0.525   0.000  0.00  0.00    +0.000 OA
ATOM     12  N   UNL     1       9.172   0.448   0.000  0.00  0.00    +0.000 NA
ATOM     13  C   UNL     1       8.559   1.000   0.000  0.00  0.00    +0.000 C 
ATOM     14  C   UNL     1       7.739   1.087   0.000  0.00  0.00    +0.000 A 
ATOM     15  C   UNL     1       7.125   0.534   0.000  0.00  0.00    +0.000 A 
ATOM     16  C   UNL     1       6.341   0.789   0.000  0.00  0.00    +0.000 A 
ATOM     17  C   UNL     1       6.169   1.596   0.000  0.00  0.00    +0.000 A 
ATOM     18  C   UNL     1       6.782   2.148   0.000  0.00  0.00    +0.000 A 
ATOM     19  C   UNL     1       7.567   1.893   0.000  0.00  0.00    +0.000 A 
ENDBRANCH   4   7
BRANCH   1  20
ATOM     20  C   UNL     1       8.911   5.171   0.000  0.00  0.00    +0.000 C 
BRANCH  20  21
ATOM     21  C   UNL     1       8.196   5.583   0.000  0.00  0.00    +0.000 C 
ATOM     22  O   UNL     1       8.196   6.408   0.000  0.00  0.00    +0.000 OA
BRANCH  21  23
ATOM     23  C   UNL     1       7.482   5.171   0.000  0.00  0.00    +0.000 C 
BRANCH  23  26
ATOM     24  C   UNL     1       6.053   5.171   0.000  0.00  0.00    +0.000 C 
ATOM     25  O   UNL     1       5.568   4.503   0.000  0.00  0.00    +0.000 OA
ATOM     26  N   UNL     1       6.767   5.583   0.000  0.00  0.00    +0.000 NA
BRANCH  24  27
ATOM     27  O   UNL     1       5.338   5.583   0.000  0.00  0.00    +0.000 OA
BRANCH  27  28
ATOM     28  C   UNL     1       4.624   5.171   0.000  0.00  0.00    +0.000 C 
BRANCH  28  29
ATOM     29  C   UNL     1       3.909   5.583   0.000  0.00  0.00    +0.000 C 
BRANCH  29  30
ATOM     30  O   UNL     1       3.195   5.171   0.000  0.00  0.00    +0.000 OA
BRANCH  30  32
ATOM     31  C   UNL     1       1.766   5.171   0.000  0.00  0.00    +0.000 C 
ATOM     32  C   UNL     1       2.481   5.583   0.000  0.00  0.00    +0.000 C 
ENDBRANCH  30  32
ENDBRANCH  29  30
ENDBRANCH  28  29
ENDBRANCH  27  28
ENDBRANCH  24  27
ENDBRANCH  23  26
BRANCH  23  33
ATOM     33  C   UNL     1       7.482   4.346   0.000  0.00  0.00    +0.000 C 
BRANCH  33  34
ATOM     34  C   UNL     1       6.767   3.933   0.000  0.00  0.00    +0.000 A 
ATOM     35  C   UNL     1       6.767   3.108   0.000  0.00  0.00    +0.000 A 
ATOM     36  C   UNL     1       6.053   2.696   0.000  0.00  0.00    +0.000 A 
ATOM     37  C   UNL     1       5.338   3.108   0.000  0.00  0.00    +0.000 A 
ATOM     38  C   UNL     1       5.338   3.933   0.000  0.00  0.00    +0.000 A 
ATOM     39  C   UNL     1       6.053   4.346   0.000  0.00  0.00    +0.000 A 
ENDBRANCH  33  34
ENDBRANCH  23  33
ENDBRANCH  21  23
ENDBRANCH  20  21
ENDBRANCH   1  20
BRANCH   1  40
ATOM     40  C   UNL     1       9.731   4.432   0.000  0.00  0.00    +0.000 C 
BRANCH  40  41
ATOM     41  C   UNL     1      10.067   5.186   0.000  0.00  0.00    +0.000 A 
ATOM     42  C   UNL     1       9.582   5.853   0.000  0.00  0.00    +0.000 A 
ATOM     43  C   UNL     1       9.917   6.607   0.000  0.00  0.00    +0.000 A 
ATOM     44  C   UNL     1      10.738   6.693   0.000  0.00  0.00    +0.000 A 
ATOM     45  C   UNL     1      11.223   6.026   0.000  0.00  0.00    +0.000 A 
ATOM     46  C   UNL     1      10.887   5.272   0.000  0.00  0.00    +0.000 A 
ENDBRANCH  40  41
ENDBRANCH   1  40
TORSDOF 14
