REMARK  Name = 
REMARK  6 active torsions:
REMARK  status: ('A' for Active; 'I' for Inactive)
REMARK    1  A    between atoms: C_1  and  C_7
REMARK    2  A    between atoms: C_5  and  O_12
REMARK    3  A    between atoms: O_12  and  C_13
REMARK    4  A    between atoms: C_17  and  O_22
REMARK    5  A    between atoms: O_22  and  C_23
REMARK    6  A    between atoms: C_25  and  C_29
REMARK                            x       y       z     vdW  Elec       q    Type
REMARK                         _______ _______ _______ _____ _____    ______ ____
ROOT
ATOM      1  C   UNL     1      15.014 -11.014   0.000  0.00  0.00    +0.000 C 
ATOM      2  C   UNL     1      15.732 -11.421   0.000  0.00  0.00    +0.000 C 
ATOM      3  C   UNL     1      16.443 -11.003   0.000  0.00  0.00    +0.000 C 
ATOM      4  C   UNL     1      16.437 -10.178   0.000  0.00  0.00    +0.000 C 
ATOM      5  C   UNL     1      15.720  -9.771   0.000  0.00  0.00    +0.000 C 
ATOM      6  C   UNL     1      15.008 -10.188   0.000  0.00  0.00    +0.000 C 
ATOM      7  N   UNL     1      15.738 -12.251   0.000  0.00  0.00    +0.000 NA
ATOM      8  N   UNL     1      17.129  -9.772   0.000  0.00  0.00    +0.000 NA
ATOM      9  O   UNL     1      14.295  -9.784   0.000  0.00  0.00    +0.000 OA
ENDROOT
BRANCH   1  10
ATOM     10  O   UNL     1      14.322 -11.419   0.000  0.00  0.00    +0.000 OA
BRANCH  10  15
ATOM     11  C   UNL     1      12.168 -11.838   0.000  0.00  0.00    +0.000 C 
ATOM     12  C   UNL     1      12.168 -12.664   0.000  0.00  0.00    +0.000 C 
ATOM     13  C   UNL     1      12.882 -13.076   0.000  0.00  0.00    +0.000 C 
ATOM     14  C   UNL     1      13.597 -12.664   0.000  0.00  0.00    +0.000 C 
ATOM     15  C   UNL     1      13.597 -11.838   0.000  0.00  0.00    +0.000 C 
ATOM     16  O   UNL     1      12.882 -11.426   0.000  0.00  0.00    +0.000 OA
ATOM     17  O   UNL     1      11.454 -13.076   0.000  0.00  0.00    +0.000 OA
ATOM     18  N   UNL     1      12.882 -13.901   0.000  0.00  0.00    +0.000 NA
ATOM     19  O   UNL     1      14.322 -13.082   0.000  0.00  0.00    +0.000 OA
BRANCH  11  20
ATOM     20  C   UNL     1      11.454 -11.426   0.000  0.00  0.00    +0.000 C 
ATOM     21  O   UNL     1      10.749 -11.833   0.000  0.00  0.00    +0.000 OA
ENDBRANCH  11  20
ENDBRANCH  10  15
ENDBRANCH   1  10
BRANCH   5  22
ATOM     22  O   UNL     1      15.714  -8.951   0.000  0.00  0.00    +0.000 OA
BRANCH  22  23
ATOM     23  C   UNL     1      16.427  -8.533   0.000  0.00  0.00    +0.000 C 
ATOM     24  O   UNL     1      17.139  -8.937   0.000  0.00  0.00    +0.000 OA
ATOM     25  C   UNL     1      17.850  -8.520   0.000  0.00  0.00    +0.000 C 
ATOM     26  C   UNL     1      17.845  -7.695   0.000  0.00  0.00    +0.000 C 
ATOM     27  C   UNL     1      17.132  -7.290   0.000  0.00  0.00    +0.000 C 
ATOM     28  C   UNL     1      16.421  -7.708   0.000  0.00  0.00    +0.000 C 
ATOM     29  O   UNL     1      18.559  -7.275   0.000  0.00  0.00    +0.000 OA
ATOM     30  N   UNL     1      15.703  -7.300   0.000  0.00  0.00    +0.000 NA
BRANCH  25  31
ATOM     31  C   UNL     1      18.583  -8.936   0.000  0.00  0.00    +0.000 C 
ATOM     32  N   UNL     1      18.589  -9.776   0.000  0.00  0.00    +0.000 NA
ENDBRANCH  25  31
ENDBRANCH  22  23
ENDBRANCH   5  22
TORSDOF 6
