REMARK  Name = 
REMARK  12 active torsions:
REMARK  status: ('A' for Active; 'I' for Inactive)
REMARK    1  A    between atoms: P_1  and  O_10
REMARK    2  A    between atoms: P_1  and  O_12
REMARK    3  A    between atoms: P_2  and  O_11
REMARK    4  A    between atoms: P_2  and  O_13
REMARK    5  A    between atoms: P_3  and  O_12
REMARK    6  A    between atoms: P_3  and  O_13
REMARK    7  A    between atoms: O_10  and  C_40
REMARK    8  A    between atoms: O_11  and  C_41
REMARK    9  A    between atoms: N_22  and  C_36
REMARK   10  A    between atoms: N_23  and  C_37
REMARK   11  A    between atoms: C_38  and  C_40
REMARK   12  A    between atoms: C_39  and  C_41
REMARK                            x       y       z     vdW  Elec       q    Type
REMARK                         _______ _______ _______ _____ _____    ______ ____
ROOT
ATOM      1  P   UNL     1      18.559 -11.306   0.000  0.00  0.00    +0.000 P 
ATOM      2  O   UNL     1      17.947 -10.753   0.000  0.00  0.00    +0.000 OA
ATOM      3  O   UNL     1      19.171 -11.859   0.000  0.00  0.00    +0.000 OA
ENDROOT
BRANCH   1   4
ATOM      4  O   UNL     1      18.006 -11.918   0.000  0.00  0.00    +0.000 OA
BRANCH   4   5
ATOM      5  P   UNL     1      18.259 -12.703   0.000  0.00  0.00    +0.000 P 
ATOM      6  O   UNL     1      19.044 -12.449   0.000  0.00  0.00    +0.000 OA
ATOM      7  O   UNL     1      17.474 -12.957   0.000  0.00  0.00    +0.000 OA
BRANCH   5   8
ATOM      8  O   UNL     1      18.513 -13.488   0.000  0.00  0.00    +0.000 OA
BRANCH   8   9
ATOM      9  C   UNL     1      17.960 -14.100   0.000  0.00  0.00    +0.000 C 
BRANCH   9  16
ATOM     10  O   UNL     1      17.727 -15.552   0.000  0.00  0.00    +0.000 OA
ATOM     11  O   UNL     1      19.663 -16.453   0.000  0.00  0.00    +0.000 OA
ATOM     12  O   UNL     1      19.666 -14.658   0.000  0.00  0.00    +0.000 OA
ATOM     13  C   UNL     1      18.996 -15.967   0.000  0.00  0.00    +0.000 C 
ATOM     14  C   UNL     1      18.998 -15.142   0.000  0.00  0.00    +0.000 C 
ATOM     15  C   UNL     1      18.211 -16.220   0.000  0.00  0.00    +0.000 C 
ATOM     16  C   UNL     1      18.213 -14.885   0.000  0.00  0.00    +0.000 C 
BRANCH  15  18
ATOM     17  O   UNL     1      16.460 -19.318   0.000  0.00  0.00    +0.000 OA
ATOM     18  N   UNL     1      17.955 -17.004   0.000  0.00  0.00    +0.000 N 
ATOM     19  N   UNL     1      16.460 -16.843   0.000  0.00  0.00    +0.000 NA
ATOM     20  N   UNL     1      17.955 -18.332   0.000  0.00  0.00    +0.000 NA
ATOM     21  N   UNL     1      15.745 -18.081   0.000  0.00  0.00    +0.000 NA
ATOM     22  N   UNL     1      15.031 -16.843   0.000  0.00  0.00    +0.000 NA
ATOM     23  C   UNL     1      17.174 -17.256   0.000  0.00  0.00    +0.000 A 
ATOM     24  C   UNL     1      18.436 -17.668   0.000  0.00  0.00    +0.000 A 
ATOM     25  C   UNL     1      17.174 -18.081   0.000  0.00  0.00    +0.000 A 
ATOM     26  C   UNL     1      16.460 -18.494   0.000  0.00  0.00    +0.000 A 
ATOM     27  C   UNL     1      15.745 -17.256   0.000  0.00  0.00    +0.000 A 
ENDBRANCH  15  18
ENDBRANCH   9  16
ENDBRANCH   8   9
ENDBRANCH   5   8
ENDBRANCH   4   5
ENDBRANCH   1   4
BRANCH   1  28
ATOM     28  O   UNL     1      19.112 -10.694   0.000  0.00  0.00    +0.000 OA
BRANCH  28  29
ATOM     29  P   UNL     1      18.858  -9.909   0.000  0.00  0.00    +0.000 P 
ATOM     30  O   UNL     1      19.643  -9.655   0.000  0.00  0.00    +0.000 OA
ATOM     31  O   UNL     1      18.073 -10.162   0.000  0.00  0.00    +0.000 OA
BRANCH  29  32
ATOM     32  O   UNL     1      18.605  -9.123   0.000  0.00  0.00    +0.000 OA
BRANCH  32  33
ATOM     33  C   UNL     1      19.158  -8.511   0.000  0.00  0.00    +0.000 C 
BRANCH  33  40
ATOM     34  O   UNL     1      18.120  -7.470   0.000  0.00  0.00    +0.000 OA
ATOM     35  O   UNL     1      19.163  -5.607   0.000  0.00  0.00    +0.000 OA
ATOM     36  O   UNL     1      20.215  -7.061   0.000  0.00  0.00    +0.000 OA
ATOM     37  C   UNL     1      18.907  -6.391   0.000  0.00  0.00    +0.000 C 
ATOM     38  C   UNL     1      19.390  -7.059   0.000  0.00  0.00    +0.000 C 
ATOM     39  C   UNL     1      18.122  -6.645   0.000  0.00  0.00    +0.000 C 
ATOM     40  C   UNL     1      18.904  -7.726   0.000  0.00  0.00    +0.000 C 
BRANCH  39  42
ATOM     41  O   UNL     1      15.716  -4.022   0.000  0.00  0.00    +0.000 OA
ATOM     42  N   UNL     1      17.455  -6.159   0.000  0.00  0.00    +0.000 N 
ATOM     43  N   UNL     1      18.070  -4.787   0.000  0.00  0.00    +0.000 NA
ATOM     44  N   UNL     1      16.192  -5.748   0.000  0.00  0.00    +0.000 NA
ATOM     45  N   UNL     1      17.114  -3.725   0.000  0.00  0.00    +0.000 NA
ATOM     46  N   UNL     1      18.512  -3.428   0.000  0.00  0.00    +0.000 NA
ATOM     47  C   UNL     1      17.457  -5.339   0.000  0.00  0.00    +0.000 A 
ATOM     48  C   UNL     1      16.675  -6.412   0.000  0.00  0.00    +0.000 A 
ATOM     49  C   UNL     1      16.672  -5.084   0.000  0.00  0.00    +0.000 A 
ATOM     50  C   UNL     1      16.501  -4.277   0.000  0.00  0.00    +0.000 A 
ATOM     51  C   UNL     1      17.899  -3.980   0.000  0.00  0.00    +0.000 A 
ENDBRANCH  39  42
ENDBRANCH  33  40
ENDBRANCH  32  33
ENDBRANCH  29  32
ENDBRANCH  28  29
ENDBRANCH   1  28
TORSDOF 12
