REMARK  Name = 
REMARK  7 active torsions:
REMARK  status: ('A' for Active; 'I' for Inactive)
REMARK    1  A    between atoms: C_4  and  C_9
REMARK    2  A    between atoms: C_4  and  N_12
REMARK    3  A    between atoms: C_5  and  C_8
REMARK    4  A    between atoms: C_5  and  O_20
REMARK    5  A    between atoms: C_7  and  N_12
REMARK    6  A    between atoms: C_7  and  P_21
REMARK    7  A    between atoms: O_20  and  P_22
REMARK                            x       y       z     vdW  Elec       q    Type
REMARK                         _______ _______ _______ _____ _____    ______ ____
ROOT
ATOM      1  C   UNL     1       0.715  -1.238   0.000  0.00  0.00    +0.000 C 
ATOM      2  C   UNL     1       1.429   0.825   0.000  0.00  0.00    +0.000 A 
ATOM      3  C   UNL     1       0.715  -0.412   0.000  0.00  0.00    +0.000 A 
ATOM      4  C   UNL     1       0.715   1.238   0.000  0.00  0.00    +0.000 A 
ATOM      5  C   UNL     1       0.000   0.825   0.000  0.00  0.00    +0.000 A 
ATOM      6  C   UNL     1       0.000   0.000   0.000  0.00  0.00    +0.000 A 
ATOM      7  N   UNL     1       1.429   0.000   0.000  0.00  0.00    +0.000 NA
ATOM      8  O   UNL     1      -0.715  -0.412   0.000  0.00  0.00    +0.000 OA
ENDROOT
BRANCH   4   9
ATOM      9  C   UNL     1       0.715   2.062   0.000  0.00  0.00    +0.000 C 
BRANCH   9  10
ATOM     10  O   UNL     1       1.429   2.475   0.000  0.00  0.00    +0.000 OA
BRANCH  10  14
ATOM     11  O   UNL     1       1.429   4.125   0.000  0.00  0.00    +0.000 OA
ATOM     12  O   UNL     1       2.254   3.300   0.000  0.00  0.00    +0.000 OA
ATOM     13  O   UNL     1       0.604   3.300   0.000  0.00  0.00    +0.000 OA
ATOM     14  P   UNL     1       1.429   3.300   0.000  0.00  0.00    +0.000 P 
ENDBRANCH  10  14
ENDBRANCH   9  10
ENDBRANCH   4   9
BRANCH   5  15
ATOM     15  C   UNL     1      -0.715   1.238   0.000  0.00  0.00    +0.000 C 
BRANCH  15  16
ATOM     16  N   UNL     1      -1.429   0.825   0.000  0.00  0.00    +0.000 NA
BRANCH  16  18
ATOM     17  C   UNL     1      -2.143   2.062   0.000  0.00  0.00    +0.000 C 
ATOM     18  C   UNL     1      -2.143   1.238   0.000  0.00  0.00    +0.000 C 
BRANCH  18  22
ATOM     19  O   UNL     1      -3.572   0.412   0.000  0.00  0.00    +0.000 OA
ATOM     20  O   UNL     1      -2.445   0.111   0.000  0.00  0.00    +0.000 OA
ATOM     21  O   UNL     1      -3.270   1.540   0.000  0.00  0.00    +0.000 OA
ATOM     22  P   UNL     1      -2.858   0.825   0.000  0.00  0.00    +0.000 P 
ENDBRANCH  18  22
ENDBRANCH  16  18
ENDBRANCH  15  16
ENDBRANCH   5  15
TORSDOF 7
