REMARK  Name = 
REMARK  9 active torsions:
REMARK  status: ('A' for Active; 'I' for Inactive)
REMARK    1  A    between atoms: C_6  and  C_10
REMARK    2  A    between atoms: C_6  and  N_18
REMARK    3  A    between atoms: C_7  and  C_11
REMARK    4  A    between atoms: C_7  and  O_30
REMARK    5  A    between atoms: C_15  and  N_18
REMARK    6  A    between atoms: C_17  and  N_22
REMARK    7  A    between atoms: O_30  and  P_34
REMARK    8  A    between atoms: O_32  and  P_33
REMARK    9  A    between atoms: O_32  and  P_34
REMARK                            x       y       z     vdW  Elec       q    Type
REMARK                         _______ _______ _______ _____ _____    ______ ____
ROOT
ATOM      1  C   UNL     1       0.099  -1.009   0.000  0.00  0.00    +0.000 C 
ATOM      2  C   UNL     1       0.884  -1.264   0.000  0.00  0.00    +0.000 C 
ATOM      3  C   UNL     1       1.369  -0.597   0.000  0.00  0.00    +0.000 C 
ATOM      4  C   UNL     1       0.884   0.071   0.000  0.00  0.00    +0.000 C 
ATOM      5  O   UNL     1       1.139  -2.049   0.000  0.00  0.00    +0.000 OA
ATOM      6  O   UNL     1       2.194  -0.597   0.000  0.00  0.00    +0.000 OA
ATOM      7  O   UNL     1       0.099  -0.184   0.000  0.00  0.00    +0.000 OA
ENDROOT
BRANCH   4  16
ATOM      8  C   UNL     1       3.352   1.110   0.000  0.00  0.00    +0.000 A 
ATOM      9  C   UNL     1       0.654   1.523   0.000  0.00  0.00    +0.000 A 
ATOM     10  C   UNL     1       1.923   1.935   0.000  0.00  0.00    +0.000 A 
ATOM     11  C   UNL     1       2.638   2.348   0.000  0.00  0.00    +0.000 A 
ATOM     12  C   UNL     1       1.923   1.110   0.000  0.00  0.00    +0.000 A 
ATOM     13  N   UNL     1       3.352   1.935   0.000  0.00  0.00    +0.000 NA
ATOM     14  N   UNL     1       2.638   0.698   0.000  0.00  0.00    +0.000 NA
ATOM     15  N   UNL     1       1.139   2.190   0.000  0.00  0.00    +0.000 NA
ATOM     16  N   UNL     1       1.139   0.856   0.000  0.00  0.00    +0.000 N 
BRANCH  11  17
ATOM     17  N   UNL     1       2.638   3.173   0.000  0.00  0.00    +0.000 NA
BRANCH  17  18
ATOM     18  C   UNL     1       3.352   3.585   0.000  0.00  0.00    +0.000 C 
BRANCH  18  24
ATOM     19  C   UNL     1       3.352   6.060   0.000  0.00  0.00    +0.000 A 
ATOM     20  C   UNL     1       2.638   5.648   0.000  0.00  0.00    +0.000 A 
ATOM     21  C   UNL     1       4.067   5.648   0.000  0.00  0.00    +0.000 A 
ATOM     22  C   UNL     1       2.638   4.823   0.000  0.00  0.00    +0.000 A 
ATOM     23  C   UNL     1       4.067   4.823   0.000  0.00  0.00    +0.000 A 
ATOM     24  C   UNL     1       3.352   4.410   0.000  0.00  0.00    +0.000 A 
ENDBRANCH  18  24
ENDBRANCH  17  18
ENDBRANCH  11  17
ENDBRANCH   4  16
BRANCH   1  25
ATOM     25  C   UNL     1      -0.568  -1.494   0.000  0.00  0.00    +0.000 C 
BRANCH  25  26
ATOM     26  O   UNL     1      -0.482  -2.314   0.000  0.00  0.00    +0.000 OA
BRANCH  26  29
ATOM     27  O   UNL     1      -1.634  -2.132   0.000  0.00  0.00    +0.000 OA
ATOM     28  O   UNL     1      -0.665  -3.467   0.000  0.00  0.00    +0.000 OA
ATOM     29  P   UNL     1      -1.149  -2.799   0.000  0.00  0.00    +0.000 P 
BRANCH  29  30
ATOM     30  O   UNL     1      -1.817  -3.284   0.000  0.00  0.00    +0.000 OA
BRANCH  30  34
ATOM     31  O   UNL     1      -1.644  -4.925   0.000  0.00  0.00    +0.000 OA
ATOM     32  O   UNL     1      -2.551  -4.191   0.000  0.00  0.00    +0.000 OA
ATOM     33  O   UNL     1      -0.910  -4.019   0.000  0.00  0.00    +0.000 OA
ATOM     34  P   UNL     1      -1.731  -4.105   0.000  0.00  0.00    +0.000 P 
ENDBRANCH  30  34
ENDBRANCH  29  30
ENDBRANCH  26  29
ENDBRANCH  25  26
ENDBRANCH   1  25
TORSDOF 9
