REMARK  Name = 
REMARK  4 active torsions:
REMARK  status: ('A' for Active; 'I' for Inactive)
REMARK    1  A    between atoms: C_1  and  C_2
REMARK    2  A    between atoms: C_1  and  S_10
REMARK    3  A    between atoms: C_2  and  C_3
REMARK    4  A    between atoms: AS_4  and  S_10
REMARK                            x       y       z     vdW  Elec       q    Type
REMARK                         _______ _______ _______ _____ _____    ______ ____
ROOT
ATOM      1  C   UNK     1      -0.221  -1.429   0.000  0.00  0.00    +0.000 C 
ENDROOT
BRANCH   1   2
ATOM      2  C   UNK     1      -0.935  -1.016   0.000  0.00  0.00    +0.000 C 
ATOM      3  N   UNK     1      -0.935  -0.191   0.000  0.00  0.00    +0.000 NA
BRANCH   2   4
ATOM      4  C   UNK     1      -1.650  -1.429   0.000  0.00  0.00    +0.000 C 
ATOM      5  O   UNK     1      -2.365  -1.016   0.000  0.00  0.00    +0.000 OA
ATOM      6  O   UNK     1      -1.650  -2.254   0.000  0.00  0.00    +0.000 OA
ENDBRANCH   2   4
ENDBRANCH   1   2
BRANCH   1   7
ATOM      7  S   UNK     1       0.493  -1.016   0.000  0.00  0.00    +0.000 S 
BRANCH   7   8
ATOM      8 AS   UNK     1       1.208  -1.429   0.000  0.00  0.00    +0.000 As
ATOM      9  O   UNK     1       1.922  -1.016   0.000  0.00  0.00    +0.000 OA
ATOM     10  O   UNK     1       1.208  -2.254   0.000  0.00  0.00    +0.000 OA
ENDBRANCH   7   8
ENDBRANCH   1   7
TORSDOF 4
