REMARK  Name = 
REMARK  11 active torsions:
REMARK  status: ('A' for Active; 'I' for Inactive)
REMARK    1  A    between atoms: C_2  and  C_4
REMARK    2  A    between atoms: C_4  and  C_5
REMARK    3  A    between atoms: C_5  and  N_6
REMARK    4  A    between atoms: C_5  and  C_15
REMARK    5  A    between atoms: N_17  and  C_18
REMARK    6  A    between atoms: C_18  and  C_19
REMARK    7  A    between atoms: C_18  and  C_27
REMARK    8  A    between atoms: C_19  and  C_20
REMARK    9  A    between atoms: C_20  and  C_21
REMARK   10  A    between atoms: C_28  and  S_29
REMARK   11  A    between atoms: S_29  and  C_32
REMARK                            x       y       z     vdW  Elec       q    Type
REMARK                         _______ _______ _______ _____ _____    ______ ____
ROOT
ATOM      1  C   UNL     1       5.333  -7.204   0.000  0.00  0.00    +0.000 C 
ENDROOT
BRANCH   1   4
ATOM      2  C   UNL     1       4.095  -6.489   0.000  0.00  0.00    +0.000 C 
ATOM      3  O   UNL     1       4.508  -5.775   0.000  0.00  0.00    +0.000 OA
ATOM      4  N   UNL     1       4.508  -7.204   0.000  0.00  0.00    +0.000 NA
BRANCH   2   5
ATOM      5  C   UNL     1       3.270  -6.489   0.000  0.00  0.00    +0.000 C 
BRANCH   5   6
ATOM      6  N   UNL     1       2.858  -5.775   0.000  0.00  0.00    +0.000 NA
ATOM      7  C   UNL     1       2.033  -5.775   0.000  0.00  0.00    +0.000 C 
ATOM      8  O   UNL     1       1.620  -5.061   0.000  0.00  0.00    +0.000 OA
ATOM      9  N   UNL     1       1.620  -6.489   0.000  0.00  0.00    +0.000 N 
ATOM     10  C   UNL     1       2.033  -7.204   0.000  0.00  0.00    +0.000 C 
ATOM     11  C   UNL     1       1.620  -7.918   0.000  0.00  0.00    +0.000 C 
ATOM     12  O   UNL     1       0.795  -7.918   0.000  0.00  0.00    +0.000 OA
ATOM     13  C   UNL     1       0.383  -7.204   0.000  0.00  0.00    +0.000 C 
ATOM     14  C   UNL     1       0.795  -6.489   0.000  0.00  0.00    +0.000 C 
ENDBRANCH   5   6
BRANCH   5  15
ATOM     15  C   UNL     1       2.858  -7.204   0.000  0.00  0.00    +0.000 C 
BRANCH  15  17
ATOM     16  C   UNL     1       2.858  -8.633   0.000  0.00  0.00    +0.000 C 
ATOM     17  C   UNL     1       3.270  -7.918   0.000  0.00  0.00    +0.000 C 
ATOM     18  C   UNL     1       4.095  -7.918   0.000  0.00  0.00    +0.000 C 
ENDBRANCH  15  17
ENDBRANCH   5  15
ENDBRANCH   2   5
ENDBRANCH   1   4
BRANCH   1  19
ATOM     19  C   UNL     1       5.745  -7.918   0.000  0.00  0.00    +0.000 C 
ATOM     20  C   UNL     1       6.570  -7.918   0.000  0.00  0.00    +0.000 C 
BRANCH  20  21
ATOM     21  S   UNL     1       6.983  -8.633   0.000  0.00  0.00    +0.000 S 
ATOM     22  O   UNL     1       6.268  -9.045   0.000  0.00  0.00    +0.000 OA
ATOM     23  O   UNL     1       7.697  -8.220   0.000  0.00  0.00    +0.000 OA
BRANCH  21  24
ATOM     24  C   UNL     1       7.395  -9.347   0.000  0.00  0.00    +0.000 A 
ATOM     25  C   UNL     1       8.220  -9.347   0.000  0.00  0.00    +0.000 A 
ATOM     26  C   UNL     1       8.633 -10.062   0.000  0.00  0.00    +0.000 A 
ATOM     27  C   UNL     1       8.220 -10.776   0.000  0.00  0.00    +0.000 A 
ATOM     28  C   UNL     1       7.395 -10.776   0.000  0.00  0.00    +0.000 A 
ATOM     29  C   UNL     1       6.983 -10.062   0.000  0.00  0.00    +0.000 A 
ENDBRANCH  21  24
ENDBRANCH  20  21
ENDBRANCH   1  19
BRANCH   1  30
ATOM     30  C   UNL     1       5.745  -6.489   0.000  0.00  0.00    +0.000 C 
BRANCH  30  31
ATOM     31  C   UNL     1       5.333  -5.775   0.000  0.00  0.00    +0.000 C 
BRANCH  31  32
ATOM     32  C   UNL     1       5.745  -5.061   0.000  0.00  0.00    +0.000 A 
ATOM     33  C   UNL     1       5.333  -4.346   0.000  0.00  0.00    +0.000 A 
ATOM     34  C   UNL     1       5.745  -3.632   0.000  0.00  0.00    +0.000 A 
ATOM     35  C   UNL     1       6.570  -3.632   0.000  0.00  0.00    +0.000 A 
ATOM     36  C   UNL     1       6.983  -4.346   0.000  0.00  0.00    +0.000 A 
ATOM     37  C   UNL     1       6.570  -5.061   0.000  0.00  0.00    +0.000 A 
ENDBRANCH  31  32
ENDBRANCH  30  31
ENDBRANCH   1  30
TORSDOF 11
