REMARK  Name = 
REMARK  5 active torsions:
REMARK  status: ('A' for Active; 'I' for Inactive)
REMARK    1  A    between atoms: C_7  and  C_20
REMARK    2  A    between atoms: C_8  and  C_21
REMARK    3  A    between atoms: C_9  and  C_10
REMARK    4  A    between atoms: C_9  and  C_22
REMARK    5  A    between atoms: C_10  and  C_28
REMARK                            x       y       z     vdW  Elec       q    Type
REMARK                         _______ _______ _______ _____ _____    ______ ____
ROOT
ATOM      1  C   UNL     1       0.829  -0.880   0.000  0.00  0.00    +0.000 C 
ATOM      2  C   UNL     1       3.316  -3.436   0.000  0.00  0.00    +0.000 C 
ATOM      3  C   UNL     1       5.063   0.337   0.000  0.00  0.00    +0.000 C 
ATOM      4  C   UNL     1       7.693  -1.116   0.000  0.00  0.00    +0.000 C 
ATOM      5  C   UNL     1       1.629   0.358   0.000  0.00  0.00    +0.000 A 
ATOM      6  C   UNL     1       2.950   1.499   0.000  0.00  0.00    +0.000 C 
ATOM      7  C   UNL     1       2.755  -1.485   0.000  0.00  0.00    +0.000 C 
ATOM      8  C   UNL     1       5.933   1.304   0.000  0.00  0.00    +0.000 C 
ATOM      9  C   UNL     1       1.576  -0.465   0.000  0.00  0.00    +0.000 A 
ATOM     10  C   UNL     1       3.895  -2.805   0.000  0.00  0.00    +0.000 A 
ATOM     11  C   UNL     1       4.690   1.058   0.000  0.00  0.00    +0.000 C 
ATOM     12  C   UNL     1       7.059  -0.539   0.000  0.00  0.00    +0.000 A 
ATOM     13  C   UNL     1       2.429   0.562   0.000  0.00  0.00    +0.000 A 
ATOM     14  C   UNL     1       7.112   0.284   0.000  0.00  0.00    +0.000 A 
ATOM     15  C   UNL     1       4.719  -2.858   0.000  0.00  0.00    +0.000 A 
ATOM     16  C   UNL     1       3.867   1.112   0.000  0.00  0.00    +0.000 C 
ATOM     17  C   UNL     1       2.342  -0.770   0.000  0.00  0.00    +0.000 A 
ATOM     18  C   UNL     1       4.996   1.825   0.000  0.00  0.00    +0.000 C 
ATOM     19  C   UNL     1       3.692  -2.005   0.000  0.00  0.00    +0.000 A 
ATOM     20  C   UNL     1       3.664   1.912   0.000  0.00  0.00    +0.000 C 
ATOM     21  C   UNL     1       6.346   0.590   0.000  0.00  0.00    +0.000 A 
ATOM     22  C   UNL     1       6.259  -0.742   0.000  0.00  0.00    +0.000 A 
ATOM     23  C   UNL     1       5.024  -2.092   0.000  0.00  0.00    +0.000 A 
ATOM     24 FE   UNL     1       4.360   0.152   0.000  0.00  0.00    +0.000 Fe
ATOM     25  N   UNL     1       2.869  -0.136   0.000  0.00  0.00    +0.000 N 
ATOM     26  N   UNL     1       4.362   2.352   0.000  0.00  0.00    +0.000 N 
ATOM     27  N   UNL     1       4.390  -1.565   0.000  0.00  0.00    +0.000 N 
ATOM     28  N   UNL     1       5.819  -0.044   0.000  0.00  0.00    +0.000 N 
ATOM     29  O   UNL     1       5.739  -1.679   0.000  0.00  0.00    +0.000 OA
ENDROOT
BRANCH  14  31
ATOM     30  C   UNL     1       8.674   0.472   0.000  0.00  0.00    +0.000 C 
ATOM     31  C   UNL     1       7.861   0.719   0.000  0.00  0.00    +0.000 C 
ENDBRANCH  14  31
BRANCH  15  33
ATOM     32  C   UNL     1       4.901  -4.433   0.000  0.00  0.00    +0.000 C 
ATOM     33  C   UNL     1       5.146  -3.620   0.000  0.00  0.00    +0.000 C 
ENDBRANCH  15  33
BRANCH  16  34
ATOM     34  C   UNL     1       3.664   0.295   0.000  0.00  0.00    +0.000 C 
BRANCH  34  35
ATOM     35  C   UNL     1       3.884  -0.500   0.000  0.00  0.00    +0.000 C 
BRANCH  35  36
ATOM     36  C   UNL     1       4.635  -0.871   0.000  0.00  0.00    +0.000 C 
ATOM     37  O   UNL     1       5.203  -1.496   0.000  0.00  0.00    +0.000 OA
ATOM     38  O   UNL     1       4.991  -0.161   0.000  0.00  0.00    +0.000 OA
ENDBRANCH  35  36
ENDBRANCH  34  35
ENDBRANCH  16  34
TORSDOF 5
