REMARK  Name = 
REMARK  10 active torsions:
REMARK  status: ('A' for Active; 'I' for Inactive)
REMARK    1  A    between atoms: C_3  and  C_5
REMARK    2  A    between atoms: C_4  and  C_6
REMARK    3  A    between atoms: C_5  and  C_11
REMARK    4  A    between atoms: C_6  and  C_12
REMARK    5  A    between atoms: C_11  and  O_19
REMARK    6  A    between atoms: C_12  and  O_20
REMARK    7  A    between atoms: C_13  and  C_15
REMARK    8  A    between atoms: C_14  and  C_16
REMARK    9  A    between atoms: C_15  and  O_19
REMARK   10  A    between atoms: C_16  and  O_20
REMARK                            x       y       z     vdW  Elec       q    Type
REMARK                         _______ _______ _______ _____ _____    ______ ____
ROOT
ATOM      1  C   UNL     1       8.574   2.475   0.000  0.00  0.00    +0.000 A 
ATOM      2  C   UNL     1       8.574   3.300   0.000  0.00  0.00    +0.000 A 
ATOM      3  C   UNL     1       7.859   2.062   0.000  0.00  0.00    +0.000 A 
ATOM      4  C   UNL     1       7.859   3.712   0.000  0.00  0.00    +0.000 A 
ATOM      5  C   UNL     1       7.145   2.475   0.000  0.00  0.00    +0.000 A 
ATOM      6  C   UNL     1       7.145   3.300   0.000  0.00  0.00    +0.000 A 
ENDROOT
BRANCH   6   7
ATOM      7  C   UNL     1       6.430   3.712   0.000  0.00  0.00    +0.000 C 
ATOM      8  O   UNL     1       6.430   4.537   0.000  0.00  0.00    +0.000 OA
BRANCH   7   9
ATOM      9  O   UNL     1       5.716   3.300   0.000  0.00  0.00    +0.000 OA
BRANCH   9  10
ATOM     10  C   UNL     1       5.001   3.712   0.000  0.00  0.00    +0.000 C 
BRANCH  10  11
ATOM     11  C   UNL     1       4.287   3.300   0.000  0.00  0.00    +0.000 C 
BRANCH  11  13
ATOM     12  C   UNL     1       2.858   3.300   0.000  0.00  0.00    +0.000 C 
ATOM     13  C   UNL     1       3.572   3.712   0.000  0.00  0.00    +0.000 C 
ENDBRANCH  11  13
ENDBRANCH  10  11
ENDBRANCH   9  10
ENDBRANCH   7   9
ENDBRANCH   6   7
BRANCH   5  14
ATOM     14  C   UNL     1       6.430   2.062   0.000  0.00  0.00    +0.000 C 
ATOM     15  O   UNL     1       5.716   2.475   0.000  0.00  0.00    +0.000 OA
BRANCH  14  16
ATOM     16  O   UNL     1       6.430   1.238   0.000  0.00  0.00    +0.000 OA
BRANCH  16  17
ATOM     17  C   UNL     1       7.145   0.825   0.000  0.00  0.00    +0.000 C 
BRANCH  17  18
ATOM     18  C   UNL     1       7.859   1.238   0.000  0.00  0.00    +0.000 C 
BRANCH  18  20
ATOM     19  C   UNL     1       9.288   1.238   0.000  0.00  0.00    +0.000 C 
ATOM     20  C   UNL     1       8.574   0.825   0.000  0.00  0.00    +0.000 C 
ENDBRANCH  18  20
ENDBRANCH  17  18
ENDBRANCH  16  17
ENDBRANCH  14  16
ENDBRANCH   5  14
TORSDOF 10
