REMARK  Name = 
REMARK  5 active torsions:
REMARK  status: ('A' for Active; 'I' for Inactive)
REMARK    1  A    between atoms: C_1  and  C_2
REMARK    2  A    between atoms: C_1  and  O_17
REMARK    3  A    between atoms: C_3  and  N_7
REMARK    4  A    between atoms: N_7  and  S_19
REMARK    5  A    between atoms: O_17  and  S_20
REMARK                            x       y       z     vdW  Elec       q    Type
REMARK                         _______ _______ _______ _____ _____    ______ ____
ROOT
ATOM      1  C   UNL     1       1.429   0.825   0.000  0.00  0.00    +0.000 C 
ATOM      2  C   UNL     1       0.000   0.000   0.000  0.00  0.00    +0.000 C 
ATOM      3  C   UNL     1       0.715   1.238   0.000  0.00  0.00    +0.000 C 
ATOM      4  C   UNL     1       0.000   0.825   0.000  0.00  0.00    +0.000 C 
ATOM      5  C   UNL     1       0.715  -0.412   0.000  0.00  0.00    +0.000 C 
ATOM      6  O   UNL     1       0.715   2.062   0.000  0.00  0.00    +0.000 OA
ATOM      7  O   UNL     1      -0.715   1.238   0.000  0.00  0.00    +0.000 OA
ATOM      8  O   UNL     1       0.715  -1.238   0.000  0.00  0.00    +0.000 OA
ATOM      9  O   UNL     1       1.429   0.000   0.000  0.00  0.00    +0.000 OA
ENDROOT
BRANCH   1  10
ATOM     10  C   UNL     1       2.143   1.238   0.000  0.00  0.00    +0.000 C 
BRANCH  10  11
ATOM     11  O   UNL     1       2.858   0.825   0.000  0.00  0.00    +0.000 OA
BRANCH  11  15
ATOM     12  O   UNL     1       4.287   1.650   0.000  0.00  0.00    +0.000 OA
ATOM     13  O   UNL     1       3.985   0.523   0.000  0.00  0.00    +0.000 OA
ATOM     14  O   UNL     1       3.160   1.952   0.000  0.00  0.00    +0.000 OA
ATOM     15  S   UNL     1       3.572   1.238   0.000  0.00  0.00    +0.000 S 
ENDBRANCH  11  15
ENDBRANCH  10  11
ENDBRANCH   1  10
BRANCH   2  16
ATOM     16  N   UNL     1      -0.715  -0.412   0.000  0.00  0.00    +0.000 NA
BRANCH  16  20
ATOM     17  O   UNL     1      -0.715  -2.062   0.000  0.00  0.00    +0.000 OA
ATOM     18  O   UNL     1       0.111  -1.238   0.000  0.00  0.00    +0.000 OA
ATOM     19  O   UNL     1      -1.540  -1.238   0.000  0.00  0.00    +0.000 OA
ATOM     20  S   UNL     1      -0.715  -1.238   0.000  0.00  0.00    +0.000 S 
ENDBRANCH  16  20
ENDBRANCH   2  16
TORSDOF 5
