REMARK  Name = 
REMARK  7 active torsions:
REMARK  status: ('A' for Active; 'I' for Inactive)
REMARK    1  A    between atoms: S_1  and  C_18
REMARK    2  A    between atoms: S_1  and  C_23
REMARK    3  A    between atoms: O_3  and  C_20
REMARK    4  A    between atoms: N_6  and  C_14
REMARK    5  A    between atoms: N_7  and  C_13
REMARK    6  A    between atoms: C_9  and  C_13
REMARK    7  A    between atoms: C_16  and  C_17
REMARK                            x       y       z     vdW  Elec       q    Type
REMARK                         _______ _______ _______ _____ _____    ______ ____
ROOT
ATOM      1  N   UNL     1       2.093   0.412   0.000  0.00  0.00    +0.000 NA
ATOM      2  C   UNL     1       4.237  -0.825   0.000  0.00  0.00    +0.000 A 
ATOM      3  C   UNL     1       3.522   0.412   0.000  0.00  0.00    +0.000 A 
ATOM      4  C   UNL     1       4.237   0.000   0.000  0.00  0.00    +0.000 A 
ATOM      5  C   UNL     1       3.522  -1.238   0.000  0.00  0.00    +0.000 A 
ATOM      6  C   UNL     1       2.808   0.000   0.000  0.00  0.00    +0.000 A 
ATOM      7  C   UNL     1       2.808  -0.825   0.000  0.00  0.00    +0.000 A 
ENDROOT
BRANCH   3   8
ATOM      8  S   UNL     1       3.522   1.238   0.000  0.00  0.00    +0.000 S 
ATOM      9  O   UNL     1       4.347   1.238   0.000  0.00  0.00    +0.000 OA
ATOM     10  O   UNL     1       2.697   1.238   0.000  0.00  0.00    +0.000 OA
BRANCH   8  11
ATOM     11  C   UNL     1       3.522   2.062   0.000  0.00  0.00    +0.000 C 
ATOM     12  C   UNL     1       4.237   2.475   0.000  0.00  0.00    +0.000 C 
ENDBRANCH   8  11
ENDBRANCH   3   8
BRANCH   2  15
ATOM     13  O   UNL     1       4.951  -2.062   0.000  0.00  0.00    +0.000 OA
ATOM     14  N   UNL     1       5.665  -0.825   0.000  0.00  0.00    +0.000 NA
ATOM     15  C   UNL     1       4.951  -1.238   0.000  0.00  0.00    +0.000 C 
BRANCH  14  16
ATOM     16  C   UNL     1       6.380  -1.238   0.000  0.00  0.00    +0.000 C 
BRANCH  16  18
ATOM     17  N   UNL     1       7.181  -0.004   0.000  0.00  0.00    +0.000 NA
ATOM     18  C   UNL     1       7.094  -0.825   0.000  0.00  0.00    +0.000 C 
ATOM     19  C   UNL     1       7.848  -1.161   0.000  0.00  0.00    +0.000 C 
ATOM     20  C   UNL     1       8.400  -0.547   0.000  0.00  0.00    +0.000 C 
ATOM     21  C   UNL     1       7.988   0.167   0.000  0.00  0.00    +0.000 C 
BRANCH  17  22
ATOM     22  C   UNL     1       6.568   0.548   0.000  0.00  0.00    +0.000 C 
ATOM     23  C   UNL     1       6.739   1.355   0.000  0.00  0.00    +0.000 C 
ENDBRANCH  17  22
ENDBRANCH  16  18
ENDBRANCH  14  16
ENDBRANCH   2  15
BRANCH   5  24
ATOM     24  O   UNL     1       3.522  -2.062   0.000  0.00  0.00    +0.000 OA
ATOM     25  C   UNL     1       2.808  -2.475   0.000  0.00  0.00    +0.000 C 
ENDBRANCH   5  24
TORSDOF 7
