REMARK  Name = 
REMARK  8 active torsions:
REMARK  status: ('A' for Active; 'I' for Inactive)
REMARK    1  A    between atoms: C_2  and  C_5
REMARK    2  A    between atoms: C_2  and  O_24
REMARK    3  A    between atoms: C_10  and  N_15
REMARK    4  A    between atoms: O_24  and  P_29
REMARK    5  A    between atoms: O_26  and  P_28
REMARK    6  A    between atoms: O_26  and  P_30
REMARK    7  A    between atoms: O_27  and  P_29
REMARK    8  A    between atoms: O_27  and  P_30
REMARK                            x       y       z     vdW  Elec       q    Type
REMARK                         _______ _______ _______ _____ _____    ______ ____
ROOT
ATOM      1  C   UNL     1       0.099  -1.009   0.000  0.00  0.00    +0.000 C 
ATOM      2  C   UNL     1       0.884  -1.264   0.000  0.00  0.00    +0.000 C 
ATOM      3  C   UNL     1       0.099  -0.184   0.000  0.00  0.00    +0.000 C 
ATOM      4  C   UNL     1       0.884   0.071   0.000  0.00  0.00    +0.000 C 
ATOM      5  O   UNL     1      -0.568   0.301   0.000  0.00  0.00    +0.000 OA
ATOM      6  O   UNL     1       1.369  -0.597   0.000  0.00  0.00    +0.000 OA
ENDROOT
BRANCH   4  16
ATOM      7  C   UNL     1       3.352   1.110   0.000  0.00  0.00    +0.000 A 
ATOM      8  C   UNL     1       0.654   1.523   0.000  0.00  0.00    +0.000 A 
ATOM      9  C   UNL     1       1.923   1.935   0.000  0.00  0.00    +0.000 A 
ATOM     10  C   UNL     1       2.638   2.348   0.000  0.00  0.00    +0.000 A 
ATOM     11  C   UNL     1       1.923   1.110   0.000  0.00  0.00    +0.000 A 
ATOM     12  N   UNL     1       2.638   3.173   0.000  0.00  0.00    +0.000 NA
ATOM     13  N   UNL     1       3.352   1.935   0.000  0.00  0.00    +0.000 NA
ATOM     14  N   UNL     1       2.638   0.698   0.000  0.00  0.00    +0.000 NA
ATOM     15  N   UNL     1       1.139   2.190   0.000  0.00  0.00    +0.000 NA
ATOM     16  N   UNL     1       1.139   0.856   0.000  0.00  0.00    +0.000 N 
ENDBRANCH   4  16
BRANCH   2  17
ATOM     17  C   UNL     1       1.139  -2.049   0.000  0.00  0.00    +0.000 C 
BRANCH  17  18
ATOM     18  O   UNL     1       0.587  -2.662   0.000  0.00  0.00    +0.000 OA
BRANCH  18  21
ATOM     19  O   UNL     1       0.057  -3.701   0.000  0.00  0.00    +0.000 OA
ATOM     20  O   UNL     1       1.626  -3.191   0.000  0.00  0.00    +0.000 OA
ATOM     21  P   UNL     1       0.842  -3.446   0.000  0.00  0.00    +0.000 P 
BRANCH  21  22
ATOM     22  O   UNL     1       1.097  -4.231   0.000  0.00  0.00    +0.000 OA
BRANCH  22  25
ATOM     23  O   UNL     1      -0.069  -4.292   0.000  0.00  0.00    +0.000 OA
ATOM     24  O   UNL     1       1.158  -5.396   0.000  0.00  0.00    +0.000 OA
ATOM     25  P   UNL     1       0.544  -4.844   0.000  0.00  0.00    +0.000 P 
BRANCH  25  26
ATOM     26  O   UNL     1      -0.007  -5.457   0.000  0.00  0.00    +0.000 OA
BRANCH  26  30
ATOM     27  O   UNL     1       0.502  -7.026   0.000  0.00  0.00    +0.000 OA
ATOM     28  O   UNL     1      -0.537  -6.497   0.000  0.00  0.00    +0.000 OA
ATOM     29  O   UNL     1       1.032  -5.987   0.000  0.00  0.00    +0.000 OA
ATOM     30  P   UNL     1       0.247  -6.242   0.000  0.00  0.00    +0.000 P 
ENDBRANCH  26  30
ENDBRANCH  25  26
ENDBRANCH  22  25
ENDBRANCH  21  22
ENDBRANCH  18  21
ENDBRANCH  17  18
ENDBRANCH   2  17
TORSDOF 8
