REMARK  Name = 
REMARK  3 active torsions:
REMARK  status: ('A' for Active; 'I' for Inactive)
REMARK    1  A    between atoms: C_7  and  C_25
REMARK    2  A    between atoms: C_10  and  C_11
REMARK    3  A    between atoms: C_25  and  C_26
REMARK                            x       y       z     vdW  Elec       q    Type
REMARK                         _______ _______ _______ _____ _____    ______ ____
ROOT
ATOM      1  C   UNL     1      -2.357   1.444   0.000  0.00  0.00    +0.000 C 
ATOM      2  C   UNL     1      -3.072   1.031   0.000  0.00  0.00    +0.000 C 
ATOM      3  C   UNL     1      -3.072   0.206   0.000  0.00  0.00    +0.000 C 
ATOM      4  C   UNL     1      -2.357  -0.206   0.000  0.00  0.00    +0.000 C 
ATOM      5  C   UNL     1      -1.643   0.206   0.000  0.00  0.00    +0.000 C 
ATOM      6  C   UNL     1      -1.643   1.031   0.000  0.00  0.00    +0.000 C 
ATOM      7  C   UNL     1      -0.858   1.286   0.000  0.00  0.00    +0.000 C 
ATOM      8  C   UNL     1      -0.858  -0.049   0.000  0.00  0.00    +0.000 C 
ATOM      9  C   UNL     1      -0.373   0.619   0.000  0.00  0.00    +0.000 C 
ATOM     10  C   UNL     1      -2.357  -1.031   0.000  0.00  0.00    +0.000 C 
ATOM     11  C   UNL     1      -1.643   1.856   0.000  0.00  0.00    +0.000 C 
ENDROOT
BRANCH  10  12
ATOM     12  C   UNL     1      -3.057  -1.679   0.000  0.00  0.00    +0.000 C 
ATOM     13  C   UNL     1      -3.057  -2.505   0.000  0.00  0.00    +0.000 C 
ATOM     14  C   UNL     1      -3.771  -2.917   0.000  0.00  0.00    +0.000 C 
ATOM     15  C   UNL     1      -3.771  -3.742   0.000  0.00  0.00    +0.000 C 
ATOM     16  C   UNL     1      -3.057  -4.154   0.000  0.00  0.00    +0.000 C 
ATOM     17  C   UNL     1      -2.342  -3.742   0.000  0.00  0.00    +0.000 C 
ATOM     18  C   UNL     1      -2.342  -2.917   0.000  0.00  0.00    +0.000 C 
ATOM     19  C   UNL     1      -3.057  -4.979   0.000  0.00  0.00    +0.000 C 
ATOM     20  O   UNL     1      -1.518  -3.742   0.000  0.00  0.00    +0.000 OA
ATOM     21  O   UNL     1      -4.596  -3.742   0.000  0.00  0.00    +0.000 OA
ENDBRANCH  10  12
BRANCH   7  22
ATOM     22  C   UNL     1      -0.644   2.083   0.000  0.00  0.00    +0.000 C 
ATOM     23  C   UNL     1      -1.228   2.667   0.000  0.00  0.00    +0.000 C 
BRANCH  22  24
ATOM     24  C   UNL     1       0.152   2.297   0.000  0.00  0.00    +0.000 C 
ATOM     25  C   UNL     1       0.736   1.713   0.000  0.00  0.00    +0.000 C 
ENDBRANCH  22  24
ENDBRANCH   7  22
TORSDOF 3
