REMARK  Name = 
REMARK  10 active torsions:
REMARK  status: ('A' for Active; 'I' for Inactive)
REMARK    1  A    between atoms: C_23  and  C_27
REMARK    2  A    between atoms: C_23  and  C_33
REMARK    3  A    between atoms: C_24  and  C_28
REMARK    4  A    between atoms: C_24  and  C_34
REMARK    5  A    between atoms: C_25  and  C_29
REMARK    6  A    between atoms: C_25  and  N_46
REMARK    7  A    between atoms: C_26  and  C_30
REMARK    8  A    between atoms: C_26  and  N_47
REMARK    9  A    between atoms: C_31  and  C_37
REMARK   10  A    between atoms: C_32  and  C_38
REMARK                            x       y       z     vdW  Elec       q    Type
REMARK                         _______ _______ _______ _____ _____    ______ ____
ROOT
ATOM      1  C   UNL     1      -7.051   6.764   0.000  0.00  0.00    +0.000 C 
ATOM      2  C   UNL     1      -8.206   8.214   0.000  0.00  0.00    +0.000 C 
ATOM      3  C   UNL     1      -6.867   7.569   0.000  0.00  0.00    +0.000 C 
ATOM      4  C   UNL     1      -7.381   8.214   0.000  0.00  0.00    +0.000 C 
ATOM      5  C   UNL     1      -8.537   6.764   0.000  0.00  0.00    +0.000 C 
ATOM      6  N   UNL     1      -7.794   6.406   0.000  0.00  0.00    +0.000 N 
ATOM      7  N   UNL     1      -8.721   7.569   0.000  0.00  0.00    +0.000 N 
ATOM      8  O   UNL     1      -6.063   7.752   0.000  0.00  0.00    +0.000 OA
ATOM      9  O   UNL     1      -7.023   8.957   0.000  0.00  0.00    +0.000 OA
ATOM     10  O   UNL     1      -9.182   6.250   0.000  0.00  0.00    +0.000 OA
ENDROOT
BRANCH   2  11
ATOM     11  C   UNL     1      -8.564   8.957   0.000  0.00  0.00    +0.000 C 
BRANCH  11  17
ATOM     12  C   UNL     1      -7.170  11.002   0.000  0.00  0.00    +0.000 A 
ATOM     13  C   UNL     1      -7.993  11.064   0.000  0.00  0.00    +0.000 A 
ATOM     14  C   UNL     1      -6.812  10.259   0.000  0.00  0.00    +0.000 A 
ATOM     15  C   UNL     1      -8.457  10.382   0.000  0.00  0.00    +0.000 A 
ATOM     16  C   UNL     1      -7.277   9.577   0.000  0.00  0.00    +0.000 A 
ATOM     17  C   UNL     1      -8.100   9.639   0.000  0.00  0.00    +0.000 A 
ENDBRANCH  11  17
ENDBRANCH   2  11
BRANCH   6  18
ATOM     18  C   UNL     1      -7.794   5.581   0.000  0.00  0.00    +0.000 C 
BRANCH  18  23
ATOM     19  C   UNL     1      -5.650   5.169   0.000  0.00  0.00    +0.000 A 
ATOM     20  C   UNL     1      -6.365   5.581   0.000  0.00  0.00    +0.000 A 
ATOM     21  C   UNL     1      -5.650   4.344   0.000  0.00  0.00    +0.000 A 
ATOM     22  C   UNL     1      -7.079   4.344   0.000  0.00  0.00    +0.000 A 
ATOM     23  C   UNL     1      -7.079   5.169   0.000  0.00  0.00    +0.000 A 
ATOM     24  C   UNL     1      -6.365   3.931   0.000  0.00  0.00    +0.000 A 
BRANCH  24  27
ATOM     25  C   UNL     1      -6.063   0.599   0.000  0.00  0.00    +0.000 A 
ATOM     26  C   UNL     1      -5.238   0.599   0.000  0.00  0.00    +0.000 A 
ATOM     27  C   UNL     1      -6.365   3.106   0.000  0.00  0.00    +0.000 C 
ATOM     28  C   UNL     1      -5.650   1.869   0.000  0.00  0.00    +0.000 A 
ATOM     29  N   UNL     1      -6.318   1.384   0.000  0.00  0.00    +0.000 NA
ATOM     30  N   UNL     1      -5.650   2.694   0.000  0.00  0.00    +0.000 NA
ATOM     31  O   UNL     1      -7.079   2.694   0.000  0.00  0.00    +0.000 OA
ATOM     32  S   UNL     1      -4.983   1.384   0.000  0.00  0.00    +0.000 S 
ENDBRANCH  24  27
ENDBRANCH  18  23
ENDBRANCH   6  18
BRANCH   7  33
ATOM     33  C   UNL     1      -9.525   7.752   0.000  0.00  0.00    +0.000 C 
BRANCH  33  38
ATOM     34  C   UNL     1     -11.452   6.726   0.000  0.00  0.00    +0.000 A 
ATOM     35  C   UNL     1     -10.890   7.331   0.000  0.00  0.00    +0.000 A 
ATOM     36  C   UNL     1     -11.209   5.938   0.000  0.00  0.00    +0.000 A 
ATOM     37  C   UNL     1      -9.843   6.359   0.000  0.00  0.00    +0.000 A 
ATOM     38  C   UNL     1     -10.086   7.147   0.000  0.00  0.00    +0.000 A 
ATOM     39  C   UNL     1     -10.404   5.754   0.000  0.00  0.00    +0.000 A 
BRANCH  39  42
ATOM     40  C   UNL     1      -9.133   2.659   0.000  0.00  0.00    +0.000 A 
ATOM     41  C   UNL     1      -8.345   2.902   0.000  0.00  0.00    +0.000 A 
ATOM     42  C   UNL     1     -10.161   4.966   0.000  0.00  0.00    +0.000 C 
ATOM     43  C   UNL     1      -9.114   3.994   0.000  0.00  0.00    +0.000 A 
ATOM     44  N   UNL     1      -9.608   3.334   0.000  0.00  0.00    +0.000 NA
ATOM     45  N   UNL     1      -9.357   4.782   0.000  0.00  0.00    +0.000 NA
ATOM     46  O   UNL     1     -10.722   4.361   0.000  0.00  0.00    +0.000 OA
ATOM     47  S   UNL     1      -8.333   3.727   0.000  0.00  0.00    +0.000 S 
ENDBRANCH  39  42
ENDBRANCH  33  38
ENDBRANCH   7  33
BRANCH   1  48
ATOM     48  C   UNL     1      -6.405   6.250   0.000  0.00  0.00    +0.000 C 
BRANCH  48  54
ATOM     49  C   UNL     1      -4.102   7.154   0.000  0.00  0.00    +0.000 A 
ATOM     50  C   UNL     1      -4.747   7.669   0.000  0.00  0.00    +0.000 A 
ATOM     51  C   UNL     1      -4.225   6.338   0.000  0.00  0.00    +0.000 A 
ATOM     52  C   UNL     1      -5.515   7.367   0.000  0.00  0.00    +0.000 A 
ATOM     53  C   UNL     1      -4.992   6.037   0.000  0.00  0.00    +0.000 A 
ATOM     54  C   UNL     1      -5.638   6.551   0.000  0.00  0.00    +0.000 A 
ENDBRANCH  48  54
ENDBRANCH   1  48
TORSDOF 10
