REMARK  Name = 
REMARK  6 active torsions:
REMARK  status: ('A' for Active; 'I' for Inactive)
REMARK    1  A    between atoms: C_1  and  C_4
REMARK    2  A    between atoms: N_2  and  C_3
REMARK    3  A    between atoms: C_6  and  C_7
REMARK    4  A    between atoms: C_7  and  C_19
REMARK    5  A    between atoms: C_10  and  O_13
REMARK    6  A    between atoms: C_19  and  C_21
REMARK                            x       y       z     vdW  Elec       q    Type
REMARK                         _______ _______ _______ _____ _____    ______ ____
ROOT
ATOM      1  C   UNL     1       7.081  -3.719   0.000  0.00  0.00    +0.000 A 
ATOM      2  C   UNL     1       7.794  -4.150   0.000  0.00  0.00    +0.000 A 
ATOM      3  C   UNL     1       6.376  -4.115   0.000  0.00  0.00    +0.000 A 
ATOM      4  C   UNL     1       7.768  -4.958   0.000  0.00  0.00    +0.000 A 
ATOM      5  C   UNL     1       6.334  -4.933   0.000  0.00  0.00    +0.000 A 
ATOM      6  C   UNL     1       7.055  -5.370   0.000  0.00  0.00    +0.000 A 
ENDROOT
BRANCH   1   8
ATOM      7  C   UNL     1       6.402  -2.484   0.000  0.00  0.00    +0.000 C 
ATOM      8  N   UNL     1       7.106  -2.910   0.000  0.00  0.00    +0.000 NA
ATOM      9  O   UNL     1       6.404  -1.638   0.000  0.00  0.00    +0.000 OA
BRANCH   7  10
ATOM     10  C   UNL     1       5.680  -2.870   0.000  0.00  0.00    +0.000 A 
ATOM     11  C   UNL     1       5.672  -3.689   0.000  0.00  0.00    +0.000 A 
ATOM     12  C   UNL     1       4.968  -2.439   0.000  0.00  0.00    +0.000 A 
ATOM     13  C   UNL     1       4.232  -3.671   0.000  0.00  0.00    +0.000 A 
ATOM     14  C   UNL     1       4.255  -2.830   0.000  0.00  0.00    +0.000 A 
ATOM     15  C   UNL     1       4.950  -4.095   0.000  0.00  0.00    +0.000 A 
BRANCH  13  16
ATOM     16  O   UNL     1       3.499  -4.097   0.000  0.00  0.00    +0.000 OA
ATOM     17  C   UNL     1       3.497  -4.924   0.000  0.00  0.00    +0.000 C 
ENDBRANCH  13  16
ENDBRANCH   7  10
ENDBRANCH   1   8
BRANCH   2  18
ATOM     18  C   UNL     1       8.498  -3.753   0.000  0.00  0.00    +0.000 C 
BRANCH  18  19
ATOM     19  C   UNL     1       8.502  -2.920   0.000  0.00  0.00    +0.000 C 
BRANCH  19  21
ATOM     20  N   UNL     1       9.924  -2.900   0.000  0.00  0.00    +0.000 NA
ATOM     21  C   UNL     1       9.209  -2.503   0.000  0.00  0.00    +0.000 C 
ATOM     22  C   UNL     1       9.924  -3.753   0.000  0.00  0.00    +0.000 C 
ATOM     23  C   UNL     1      10.635  -2.483   0.000  0.00  0.00    +0.000 C 
ATOM     24  C   UNL     1       9.209  -1.670   0.000  0.00  0.00    +0.000 C 
ATOM     25  C   UNL     1      10.635  -1.650   0.000  0.00  0.00    +0.000 C 
ATOM     26  C   UNL     1       9.911  -1.253   0.000  0.00  0.00    +0.000 C 
ENDBRANCH  19  21
ENDBRANCH  18  19
ENDBRANCH   2  18
TORSDOF 6
