REMARK  Name = 
REMARK  1 active torsions:
REMARK  status: ('A' for Active; 'I' for Inactive)
REMARK    1  A    between atoms: C_7  and  C_22
REMARK                            x       y       z     vdW  Elec       q    Type
REMARK                         _______ _______ _______ _____ _____    ______ ____
ROOT
ATOM      1  C   UNL     1       0.357  -0.806   0.000  0.00  0.00    +0.000 C 
ATOM      2  C   UNL     1       0.357   0.018   0.000  0.00  0.00    +0.000 C 
ATOM      3  O   UNL     1      -0.357   0.431   0.000  0.00  0.00    +0.000 OA
ATOM      4  C   UNL     1      -0.357  -1.219   0.000  0.00  0.00    +0.000 C 
ATOM      5  C   UNL     1      -1.071  -0.806   0.000  0.00  0.00    +0.000 A 
ATOM      6  C   UNL     1      -1.071   0.018   0.000  0.00  0.00    +0.000 A 
ATOM      7  C   UNL     1      -1.786   0.431   0.000  0.00  0.00    +0.000 A 
ATOM      8  C   UNL     1      -2.501   0.017   0.000  0.00  0.00    +0.000 A 
ATOM      9  C   UNL     1      -2.501  -0.808   0.000  0.00  0.00    +0.000 A 
ATOM     10  C   UNL     1      -1.786  -1.219   0.000  0.00  0.00    +0.000 A 
ATOM     11  O   UNL     1      -1.786  -2.044   0.000  0.00  0.00    +0.000 OA
ATOM     12  O   UNL     1      -3.216   0.429   0.000  0.00  0.00    +0.000 OA
ATOM     13  O   UNL     1       1.072  -1.219   0.000  0.00  0.00    +0.000 OA
ENDROOT
BRANCH   2  22
ATOM     14  C   UNL     1       2.501   1.256   0.000  0.00  0.00    +0.000 A 
ATOM     15  C   UNL     1       1.786   1.669   0.000  0.00  0.00    +0.000 A 
ATOM     16  C   UNL     1       1.071   1.256   0.000  0.00  0.00    +0.000 A 
ATOM     17  C   UNL     1       1.786   0.018   0.000  0.00  0.00    +0.000 A 
ATOM     18  C   UNL     1       2.501   0.431   0.000  0.00  0.00    +0.000 A 
ATOM     19  O   UNL     1       1.786   2.494   0.000  0.00  0.00    +0.000 OA
ATOM     20  O   UNL     1       3.216   1.669   0.000  0.00  0.00    +0.000 OA
ATOM     21  O   UNL     1       3.216   0.018   0.000  0.00  0.00    +0.000 OA
ATOM     22  C   UNL     1       1.072   0.431   0.000  0.00  0.00    +0.000 A 
ENDBRANCH   2  22
TORSDOF 1
