REMARK  Name = 
REMARK  2 active torsions:
REMARK  status: ('A' for Active; 'I' for Inactive)
REMARK    1  A    between atoms: C_2  and  C_17
REMARK    2  A    between atoms: C_20  and  O_21
REMARK                            x       y       z     vdW  Elec       q    Type
REMARK                         _______ _______ _______ _____ _____    ______ ____
ROOT
ATOM      1  O   UNL     1      -0.354  -0.201   0.000  0.00  0.00    +0.000 OA
ATOM      2  C   UNL     1       0.362   0.208   0.000  0.00  0.00    +0.000 A 
ATOM      3  C   UNL     1       0.366   1.033   0.000  0.00  0.00    +0.000 A 
ATOM      4  C   UNL     1      -0.347   1.449   0.000  0.00  0.00    +0.000 A 
ATOM      5  O   UNL     1      -0.343   2.274   0.000  0.00  0.00    +0.000 OA
ATOM      6  O   UNL     1      -1.772   2.280   0.000  0.00  0.00    +0.000 OA
ATOM      7  C   UNL     1      -1.776   1.455   0.000  0.00  0.00    +0.000 A 
ATOM      8  C   UNL     1      -2.492   1.046   0.000  0.00  0.00    +0.000 A 
ATOM      9  C   UNL     1      -1.063   1.039   0.000  0.00  0.00    +0.000 A 
ATOM     10  C   UNL     1      -1.067   0.214   0.000  0.00  0.00    +0.000 A 
ATOM     11  C   UNL     1      -1.783  -0.195   0.000  0.00  0.00    +0.000 A 
ATOM     12  C   UNL     1      -2.496   0.221   0.000  0.00  0.00    +0.000 A 
ATOM     13  O   UNL     1      -3.212  -0.188   0.000  0.00  0.00    +0.000 OA
ENDROOT
BRANCH   2  17
ATOM     14  O   UNL     1       1.780  -2.274   0.000  0.00  0.00    +0.000 OA
ATOM     15  C   UNL     1       1.783  -1.449   0.000  0.00  0.00    +0.000 A 
ATOM     16  C   UNL     1       1.071  -1.033   0.000  0.00  0.00    +0.000 A 
ATOM     17  C   UNL     1       1.075  -0.208   0.000  0.00  0.00    +0.000 A 
ATOM     18  C   UNL     1       1.791   0.201   0.000  0.00  0.00    +0.000 A 
ATOM     19  C   UNL     1       2.503  -0.214   0.000  0.00  0.00    +0.000 A 
ATOM     20  C   UNL     1       2.500  -1.039   0.000  0.00  0.00    +0.000 A 
BRANCH  20  21
ATOM     21  O   UNL     1       3.212  -1.455   0.000  0.00  0.00    +0.000 OA
ATOM     22  C   UNL     1       3.208  -2.280   0.000  0.00  0.00    +0.000 C 
ENDBRANCH  20  21
ENDBRANCH   2  17
TORSDOF 2
