REMARK  Name = 
REMARK  10 active torsions:
REMARK  status: ('A' for Active; 'I' for Inactive)
REMARK    1  A    between atoms: O_2  and  C_3
REMARK    2  A    between atoms: C_3  and  C_5
REMARK    3  A    between atoms: C_5  and  C_6
REMARK    4  A    between atoms: C_5  and  C_16
REMARK    5  A    between atoms: C_6  and  C_7
REMARK    6  A    between atoms: C_11  and  C_13
REMARK    7  A    between atoms: C_16  and  N_18
REMARK    8  A    between atoms: C_19  and  C_21
REMARK    9  A    between atoms: C_24  and  C_27
REMARK   10  A    between atoms: C_31  and  C_32
REMARK                            x       y       z     vdW  Elec       q    Type
REMARK                         _______ _______ _______ _____ _____    ______ ____
ROOT
ATOM      1  C   UNL     1      -0.191  -4.236   0.000  0.00  0.00    +0.000 C 
ATOM      2  C   UNL     1       0.221  -3.521   0.000  0.00  0.00    +0.000 C 
ENDROOT
BRANCH   1   3
ATOM      3  N   UNL     1       0.221  -4.950   0.000  0.00  0.00    +0.000 NA
ATOM      4  C   UNL     1       1.046  -4.950   0.000  0.00  0.00    +0.000 C 
ATOM      5  O   UNL     1       1.459  -5.665   0.000  0.00  0.00    +0.000 OA
BRANCH   4   6
ATOM      6  C   UNL     1       1.459  -4.236   0.000  0.00  0.00    +0.000 A 
ATOM      7  C   UNL     1       1.046  -3.521   0.000  0.00  0.00    +0.000 A 
ATOM      8  C   UNL     1       1.459  -2.807   0.000  0.00  0.00    +0.000 A 
ATOM      9  C   UNL     1       2.284  -2.807   0.000  0.00  0.00    +0.000 A 
ATOM     10  C   UNL     1       2.696  -3.521   0.000  0.00  0.00    +0.000 A 
ATOM     11  C   UNL     1       2.284  -4.236   0.000  0.00  0.00    +0.000 A 
BRANCH   9  12
ATOM     12  C   UNL     1       2.696  -2.092   0.000  0.00  0.00    +0.000 A 
ATOM     13  C   UNL     1       2.284  -1.378   0.000  0.00  0.00    +0.000 A 
ATOM     14  C   UNL     1       2.696  -0.663   0.000  0.00  0.00    +0.000 A 
ATOM     15  C   UNL     1       3.521  -0.663   0.000  0.00  0.00    +0.000 A 
ATOM     16  C   UNL     1       3.934  -1.378   0.000  0.00  0.00    +0.000 A 
ATOM     17  C   UNL     1       3.521  -2.092   0.000  0.00  0.00    +0.000 A 
BRANCH  16  18
ATOM     18  C   UNL     1       4.759  -1.378   0.000  0.00  0.00    +0.000 C 
ATOM     19  N   UNL     1       5.171  -0.663   0.000  0.00  0.00    +0.000 NA
ENDBRANCH  16  18
ENDBRANCH   9  12
ENDBRANCH   4   6
ENDBRANCH   1   3
BRANCH   1  20
ATOM     20  C   UNL     1      -1.016  -4.236   0.000  0.00  0.00    +0.000 C 
BRANCH  20  21
ATOM     21  C   UNL     1      -1.429  -4.950   0.000  0.00  0.00    +0.000 C 
ATOM     22  O   UNL     1      -2.254  -4.950   0.000  0.00  0.00    +0.000 OA
BRANCH  21  24
ATOM     23  C   UNL     1      -1.429  -6.379   0.000  0.00  0.00    +0.000 C 
ATOM     24  O   UNL     1      -1.016  -5.665   0.000  0.00  0.00    +0.000 OA
ENDBRANCH  21  24
ENDBRANCH  20  21
BRANCH  20  25
ATOM     25  C   UNL     1      -1.429  -3.521   0.000  0.00  0.00    +0.000 C 
BRANCH  25  26
ATOM     26  C   UNL     1      -2.254  -3.521   0.000  0.00  0.00    +0.000 A 
ATOM     27  C   UNL     1      -2.666  -4.236   0.000  0.00  0.00    +0.000 A 
ATOM     28  C   UNL     1      -3.491  -4.236   0.000  0.00  0.00    +0.000 A 
ATOM     29  C   UNL     1      -3.904  -3.521   0.000  0.00  0.00    +0.000 A 
ATOM     30  C   UNL     1      -3.491  -2.807   0.000  0.00  0.00    +0.000 A 
ATOM     31  C   UNL     1      -2.666  -2.807   0.000  0.00  0.00    +0.000 A 
BRANCH  30  32
ATOM     32  C   UNL     1      -3.904  -2.092   0.000  0.00  0.00    +0.000 C 
ATOM     33  N   UNL     1      -4.729  -2.092   0.000  0.00  0.00    +0.000 NA
ATOM     34  N   UNL     1      -3.491  -1.378   0.000  0.00  0.00    +0.000 NA
ENDBRANCH  30  32
ENDBRANCH  25  26
ENDBRANCH  20  25
ENDBRANCH   1  20
TORSDOF 10
