REMARK  Name = 
REMARK  9 active torsions:
REMARK  status: ('A' for Active; 'I' for Inactive)
REMARK    1  A    between atoms: C_6  and  C_9
REMARK    2  A    between atoms: C_6  and  C_17
REMARK    3  A    between atoms: C_9  and  C_23
REMARK    4  A    between atoms: C_13  and  C_22
REMARK    5  A    between atoms: C_13  and  N_37
REMARK    6  A    between atoms: C_16  and  N_37
REMARK    7  A    between atoms: C_18  and  C_30
REMARK    8  A    between atoms: C_19  and  N_37
REMARK    9  A    between atoms: C_29  and  N_38
REMARK                            x       y       z     vdW  Elec       q    Type
REMARK                         _______ _______ _______ _____ _____    ______ ____
ROOT
ATOM      1  N   UNL     1      -1.322  -1.158   0.000  0.00  0.00    +0.000 NA
ENDROOT
BRANCH   1   5
ATOM      2  C   UNL     1      -2.804  -1.514   0.000  0.00  0.00    +0.000 C 
ATOM      3  C   UNL     1      -2.119  -2.458   0.000  0.00  0.00    +0.000 C 
ATOM      4  C   UNL     1      -2.933  -2.329   0.000  0.00  0.00    +0.000 C 
ATOM      5  C   UNL     1      -1.989  -1.643   0.000  0.00  0.00    +0.000 C 
BRANCH   4   6
ATOM      6  C   UNL     1      -3.601  -2.814   0.000  0.00  0.00    +0.000 C 
BRANCH   6   7
ATOM      7  C   UNL     1      -3.514  -3.635   0.000  0.00  0.00    +0.000 C 
BRANCH   7  14
ATOM      8  C   UNL     1      -6.123  -6.039   0.000  0.00  0.00    +0.000 A 
ATOM      9  C   UNL     1      -5.302  -5.953   0.000  0.00  0.00    +0.000 A 
ATOM     10  C   UNL     1      -6.272  -4.618   0.000  0.00  0.00    +0.000 A 
ATOM     11  C   UNL     1      -6.607  -5.372   0.000  0.00  0.00    +0.000 A 
ATOM     12  C   UNL     1      -4.967  -5.199   0.000  0.00  0.00    +0.000 A 
ATOM     13  C   UNL     1      -5.452  -4.532   0.000  0.00  0.00    +0.000 A 
ATOM     14  C   UNL     1      -4.182  -4.120   0.000  0.00  0.00    +0.000 A 
ATOM     15  N   UNL     1      -4.182  -4.944   0.000  0.00  0.00    +0.000 NA
ATOM     16  N   UNL     1      -4.967  -3.865   0.000  0.00  0.00    +0.000 NA
BRANCH  11  20
ATOM     17  C   UNL     1      -8.248  -5.544   0.000  0.00  0.00    +0.000 C 
ATOM     18  C   UNL     1      -7.342  -6.279   0.000  0.00  0.00    +0.000 C 
ATOM     19  C   UNL     1      -7.514  -4.638   0.000  0.00  0.00    +0.000 C 
ATOM     20  C   UNL     1      -7.428  -5.458   0.000  0.00  0.00    +0.000 C 
ENDBRANCH  11  20
ENDBRANCH   7  14
ENDBRANCH   6   7
ENDBRANCH   4   6
ENDBRANCH   1   5
BRANCH   1  23
ATOM     21  C   UNL     1      -2.162  -0.002   0.000  0.00  0.00    +0.000 C 
ATOM     22  C   UNL     1      -0.741   0.147   0.000  0.00  0.00    +0.000 C 
ATOM     23  C   UNL     1      -1.408  -0.338   0.000  0.00  0.00    +0.000 C 
ENDBRANCH   1  23
BRANCH   1  24
ATOM     24  C   UNL     1      -0.568  -1.494   0.000  0.00  0.00    +0.000 C 
BRANCH  24  25
ATOM     25  C   UNL     1       0.099  -1.009   0.000  0.00  0.00    +0.000 C 
ATOM     26  C   UNL     1       0.884  -1.264   0.000  0.00  0.00    +0.000 C 
ATOM     27  C   UNL     1       1.369  -0.597   0.000  0.00  0.00    +0.000 C 
ATOM     28  C   UNL     1       0.884   0.071   0.000  0.00  0.00    +0.000 C 
ATOM     29  O   UNL     1       1.139  -2.049   0.000  0.00  0.00    +0.000 OA
ATOM     30  O   UNL     1       2.194  -0.597   0.000  0.00  0.00    +0.000 OA
ATOM     31  O   UNL     1       0.099  -0.184   0.000  0.00  0.00    +0.000 OA
BRANCH  28  41
ATOM     32  C   UNL     1       3.352   1.110   0.000  0.00  0.00    +0.000 A 
ATOM     33  C   UNL     1       0.654   1.523   0.000  0.00  0.00    +0.000 A 
ATOM     34  C   UNL     1       1.923   1.935   0.000  0.00  0.00    +0.000 A 
ATOM     35  C   UNL     1       2.638   2.348   0.000  0.00  0.00    +0.000 A 
ATOM     36  C   UNL     1       1.923   1.110   0.000  0.00  0.00    +0.000 A 
ATOM     37  N   UNL     1       2.638   3.173   0.000  0.00  0.00    +0.000 NA
ATOM     38  N   UNL     1       3.352   1.935   0.000  0.00  0.00    +0.000 NA
ATOM     39  N   UNL     1       2.638   0.698   0.000  0.00  0.00    +0.000 NA
ATOM     40  N   UNL     1       1.139   2.190   0.000  0.00  0.00    +0.000 NA
ATOM     41  N   UNL     1       1.139   0.856   0.000  0.00  0.00    +0.000 N 
ENDBRANCH  28  41
ENDBRANCH  24  25
ENDBRANCH   1  24
TORSDOF 9
