REMARK  Name = 
REMARK  10 active torsions:
REMARK  status: ('A' for Active; 'I' for Inactive)
REMARK    1  A    between atoms: C_2  and  C_4
REMARK    2  A    between atoms: C_5  and  C_30
REMARK    3  A    between atoms: C_9  and  C_11
REMARK    4  A    between atoms: C_13  and  N_14
REMARK    5  A    between atoms: C_15  and  C_17
REMARK    6  A    between atoms: C_19  and  N_20
REMARK    7  A    between atoms: N_32  and  C_33
REMARK    8  A    between atoms: C_33  and  C_34
REMARK    9  A    between atoms: C_34  and  C_35
REMARK   10  A    between atoms: C_35  and  N_36
REMARK                            x       y       z     vdW  Elec       q    Type
REMARK                         _______ _______ _______ _____ _____    ______ ____
ROOT
ATOM      1  C   UNL     1      -4.963  -6.407   0.000  0.00  0.00    +0.000 A 
ATOM      2  C   UNL     1      -4.209  -6.742   0.000  0.00  0.00    +0.000 A 
ATOM      3  N   UNL     1      -4.295  -7.563   0.000  0.00  0.00    +0.000 NA
ATOM      4  C   UNL     1      -5.102  -7.734   0.000  0.00  0.00    +0.000 A 
ATOM      5  N   UNL     1      -5.438  -8.488   0.000  0.00  0.00    +0.000 NA
ATOM      6  C   UNL     1      -6.258  -8.574   0.000  0.00  0.00    +0.000 C 
ATOM      7  O   UNL     1      -6.743  -7.907   0.000  0.00  0.00    +0.000 OA
ATOM      8  S   UNL     1      -5.515  -7.020   0.000  0.00  0.00    +0.000 S 
ENDROOT
BRANCH   6   9
ATOM      9  C   UNL     1      -6.594  -9.328   0.000  0.00  0.00    +0.000 A 
ATOM     10  C   UNL     1      -6.181 -10.042   0.000  0.00  0.00    +0.000 A 
ATOM     11  C   UNL     1      -6.733 -10.655   0.000  0.00  0.00    +0.000 A 
ATOM     12  C   UNL     1      -7.487 -10.320   0.000  0.00  0.00    +0.000 A 
ATOM     13  N   UNL     1      -7.401  -9.499   0.000  0.00  0.00    +0.000 N 
ATOM     14  C   UNL     1      -8.014  -8.947   0.000  0.00  0.00    +0.000 C 
BRANCH  11  15
ATOM     15  N   UNL     1      -6.562 -11.462   0.000  0.00  0.00    +0.000 NA
ATOM     16  C   UNL     1      -7.175 -12.014   0.000  0.00  0.00    +0.000 C 
ATOM     17  O   UNL     1      -7.960 -11.759   0.000  0.00  0.00    +0.000 OA
BRANCH  16  18
ATOM     18  C   UNL     1      -7.003 -12.821   0.000  0.00  0.00    +0.000 A 
ATOM     19  C   UNL     1      -6.250 -13.157   0.000  0.00  0.00    +0.000 A 
ATOM     20  C   UNL     1      -6.336 -13.977   0.000  0.00  0.00    +0.000 A 
ATOM     21  C   UNL     1      -7.143 -14.149   0.000  0.00  0.00    +0.000 A 
ATOM     22  N   UNL     1      -7.556 -13.434   0.000  0.00  0.00    +0.000 N 
ATOM     23  C   UNL     1      -8.376 -13.348   0.000  0.00  0.00    +0.000 C 
BRANCH  20  24
ATOM     24  N   UNL     1      -5.723 -14.529   0.000  0.00  0.00    +0.000 NA
ATOM     25  C   UNL     1      -5.894 -15.336   0.000  0.00  0.00    +0.000 C 
ATOM     26  O   UNL     1      -5.281 -15.888   0.000  0.00  0.00    +0.000 OA
ENDBRANCH  20  24
ENDBRANCH  16  18
ENDBRANCH  11  15
ENDBRANCH   6   9
BRANCH   1  28
ATOM     27  C   UNL     1      -5.919  -5.345   0.000  0.00  0.00    +0.000 C 
ATOM     28  C   UNL     1      -5.134  -5.600   0.000  0.00  0.00    +0.000 C 
ATOM     29  C   UNL     1      -4.521  -5.048   0.000  0.00  0.00    +0.000 C 
ENDBRANCH   1  28
BRANCH   2  30
ATOM     30  C   UNL     1      -3.495  -6.330   0.000  0.00  0.00    +0.000 C 
ATOM     31  O   UNL     1      -3.495  -5.505   0.000  0.00  0.00    +0.000 OA
ATOM     32  N   UNL     1      -2.780  -6.742   0.000  0.00  0.00    +0.000 NA
BRANCH  32  33
ATOM     33  C   UNL     1      -2.066  -6.330   0.000  0.00  0.00    +0.000 C 
BRANCH  33  34
ATOM     34  C   UNL     1      -1.351  -6.742   0.000  0.00  0.00    +0.000 C 
BRANCH  34  35
ATOM     35  C   UNL     1      -0.637  -6.330   0.000  0.00  0.00    +0.000 C 
BRANCH  35  36
ATOM     36  N   UNL     1       0.078  -6.742   0.000  0.00  0.00    +0.000 NA
ATOM     37  C   UNL     1       0.792  -6.330   0.000  0.00  0.00    +0.000 C 
ATOM     38  C   UNL     1       0.078  -7.567   0.000  0.00  0.00    +0.000 C 
ENDBRANCH  35  36
ENDBRANCH  34  35
ENDBRANCH  33  34
ENDBRANCH  32  33
ENDBRANCH   2  30
TORSDOF 10
