REMARK  Name = 
REMARK  5 active torsions:
REMARK  status: ('A' for Active; 'I' for Inactive)
REMARK    1  A    between atoms: C_6  and  C_7
REMARK    2  A    between atoms: C_8  and  C_14
REMARK    3  A    between atoms: C_9  and  C_13
REMARK    4  A    between atoms: C_10  and  C_18
REMARK    5  A    between atoms: C_11  and  C_20
REMARK                            x       y       z     vdW  Elec       q    Type
REMARK                         _______ _______ _______ _____ _____    ______ ____
ROOT
ATOM      1  C   UNL     1      -1.429   0.825   0.000  0.00  0.00    +0.000 C 
ATOM      2  C   UNL     1      -0.715   1.238   0.000  0.00  0.00    +0.000 C 
ENDROOT
BRANCH   2  10
ATOM      3  C   UNL     1       0.715   2.062   0.000  0.00  0.00    +0.000 C 
ATOM      4  C   UNL     1      -0.715  -0.412   0.000  0.00  0.00    +0.000 C 
ATOM      5  C   UNL     1       0.715  -1.238   0.000  0.00  0.00    +0.000 C 
ATOM      6  C   UNL     1       1.429   0.825   0.000  0.00  0.00    +0.000 A 
ATOM      7  C   UNL     1       0.715   1.238   0.000  0.00  0.00    +0.000 A 
ATOM      8  C   UNL     1       0.000   0.000   0.000  0.00  0.00    +0.000 A 
ATOM      9  C   UNL     1       0.715  -0.412   0.000  0.00  0.00    +0.000 A 
ATOM     10  C   UNL     1       0.000   0.825   0.000  0.00  0.00    +0.000 A 
ATOM     11  C   UNL     1       1.429   0.000   0.000  0.00  0.00    +0.000 A 
ATOM     12  O   UNL     1       2.143  -0.412   0.000  0.00  0.00    +0.000 OA
ENDBRANCH   2  10
BRANCH   1  15
ATOM     13  C   UNL     1      -2.858   0.825   0.000  0.00  0.00    +0.000 C 
ATOM     14  C   UNL     1      -2.143   2.062   0.000  0.00  0.00    +0.000 C 
ATOM     15  C   UNL     1      -2.143   1.238   0.000  0.00  0.00    +0.000 C 
BRANCH  14  16
ATOM     16  C   UNL     1      -2.858   2.475   0.000  0.00  0.00    +0.000 C 
ATOM     17  C   UNL     1      -2.858   3.300   0.000  0.00  0.00    +0.000 C 
BRANCH  17  20
ATOM     18  C   UNL     1      -4.287   3.300   0.000  0.00  0.00    +0.000 C 
ATOM     19  C   UNL     1      -3.572   4.537   0.000  0.00  0.00    +0.000 C 
ATOM     20  C   UNL     1      -3.572   3.712   0.000  0.00  0.00    +0.000 C 
BRANCH  19  21
ATOM     21  C   UNL     1      -4.287   4.950   0.000  0.00  0.00    +0.000 C 
ATOM     22  O   UNL     1      -5.001   4.537   0.000  0.00  0.00    +0.000 OA
ATOM     23  O   UNL     1      -4.287   5.775   0.000  0.00  0.00    +0.000 OA
ENDBRANCH  19  21
ENDBRANCH  17  20
ENDBRANCH  14  16
ENDBRANCH   1  15
TORSDOF 5
