REMARK  Name = 
REMARK  1 active torsions:
REMARK  status: ('A' for Active; 'I' for Inactive)
REMARK    1  A    between atoms: O_1  and  C_7
REMARK                            x       y       z     vdW  Elec       q    Type
REMARK                         _______ _______ _______ _____ _____    ______ ____
ROOT
ATOM      1  O   UNL     1      -1.429   1.238   0.000  0.00  0.00    +0.000 OA
ATOM      2  C   UNL     1      -0.714   0.824   0.000  0.00  0.00    +0.000 A 
ATOM      3  C   UNL     1       0.001   1.237   0.000  0.00  0.00    +0.000 A 
ATOM      4  C   UNL     1       0.714   0.824   0.000  0.00  0.00    +0.000 A 
ATOM      5  C   UNL     1       0.714  -0.001   0.000  0.00  0.00    +0.000 A 
ATOM      6  C   UNL     1      -0.001  -0.413   0.000  0.00  0.00    +0.000 A 
ATOM      7  C   UNL     1      -0.714   0.001   0.000  0.00  0.00    +0.000 A 
ENDROOT
BRANCH   5   8
ATOM      8  O   UNL     1       1.429  -0.413   0.000  0.00  0.00    +0.000 OA
ATOM      9  C   UNL     1       1.429  -1.238   0.000  0.00  0.00    +0.000 C 
ENDBRANCH   5   8
TORSDOF 1
