REMARK  Name = 
REMARK  0 active torsions:
REMARK  status: ('A' for Active; 'I' for Inactive)
REMARK                            x       y       z     vdW  Elec       q    Type
REMARK                         _______ _______ _______ _____ _____    ______ ____
ROOT
ATOM      1 MG   UNL     1      -2.970  -3.052   0.000  0.00  0.00    +0.000 Mg
ENDROOT
TORSDOF 0
REMARK  Name = 
REMARK  0 active torsions:
REMARK  status: ('A' for Active; 'I' for Inactive)
REMARK                            x       y       z     vdW  Elec       q    Type
REMARK                         _______ _______ _______ _____ _____    ______ ____
ROOT
ATOM      1  O   UNL     1       2.144  -1.732   0.000  0.00  0.00    +0.000 OA
ATOM      2  P   UNL     1       2.144  -0.907   0.000  0.00  0.00    +0.000 P 
ATOM      3  O   UNL     1       1.319  -0.907   0.000  0.00  0.00    +0.000 OA
ATOM      4  O   UNL     1       2.970  -0.907   0.000  0.00  0.00    +0.000 OA
ATOM      5  O   UNL     1       2.144  -0.082   0.000  0.00  0.00    +0.000 OA
ENDROOT
TORSDOF 0
REMARK  Name = 
REMARK  0 active torsions:
REMARK  status: ('A' for Active; 'I' for Inactive)
REMARK                            x       y       z     vdW  Elec       q    Type
REMARK                         _______ _______ _______ _____ _____    ______ ____
ROOT
ATOM      1 MG   UNL     1      -2.804  -1.319   0.000  0.00  0.00    +0.000 Mg
ENDROOT
TORSDOF 0
REMARK  Name = 
REMARK  0 active torsions:
REMARK  status: ('A' for Active; 'I' for Inactive)
REMARK                            x       y       z     vdW  Elec       q    Type
REMARK                         _______ _______ _______ _____ _____    ______ ____
ROOT
ATOM      1 MG   UNL     1      -2.722   0.660   0.000  0.00  0.00    +0.000 Mg
ENDROOT
TORSDOF 0
REMARK  Name = 
REMARK  0 active torsions:
REMARK  status: ('A' for Active; 'I' for Inactive)
REMARK                            x       y       z     vdW  Elec       q    Type
REMARK                         _______ _______ _______ _____ _____    ______ ____
ROOT
ATOM      1  O   UNL     1       2.144   1.402   0.000  0.00  0.00    +0.000 OA
ATOM      2  P   UNL     1       2.144   2.227   0.000  0.00  0.00    +0.000 P 
ATOM      3  O   UNL     1       1.319   2.227   0.000  0.00  0.00    +0.000 OA
ATOM      4  O   UNL     1       2.970   2.227   0.000  0.00  0.00    +0.000 OA
ATOM      5  O   UNL     1       2.144   3.052   0.000  0.00  0.00    +0.000 OA
ENDROOT
TORSDOF 0
