REMARK  Name = 
REMARK  3 active torsions:
REMARK  status: ('A' for Active; 'I' for Inactive)
REMARK    1  A    between atoms: N_2  and  C_3
REMARK    2  A    between atoms: C_3  and  C_4
REMARK    3  A    between atoms: C_4  and  P_5
REMARK                            x       y       z     vdW  Elec       q    Type
REMARK                         _______ _______ _______ _____ _____    ______ ____
ROOT
ATOM      1  C   UNL     1       3.904   1.429   0.000  0.00  0.00    +0.000 C 
ENDROOT
BRANCH   1   3
ATOM      2  O   UNL     1       4.618   2.666   0.000  0.00  0.00    +0.000 OA
ATOM      3  N   UNL     1       4.618   1.841   0.000  0.00  0.00    +0.000 N 
ATOM      4  C   UNL     1       5.333   1.429   0.000  0.00  0.00    +0.000 C 
ATOM      5  O   UNL     1       6.047   1.841   0.000  0.00  0.00    +0.000 OA
ENDBRANCH   1   3
BRANCH   1   6
ATOM      6  C   UNL     1       3.189   1.841   0.000  0.00  0.00    +0.000 C 
BRANCH   6   7
ATOM      7  P   UNL     1       2.475   1.429   0.000  0.00  0.00    +0.000 P 
ATOM      8  O   UNL     1       1.760   1.016   0.000  0.00  0.00    +0.000 OA
ATOM      9  O   UNL     1       2.888   0.715   0.000  0.00  0.00    +0.000 OA
ATOM     10  O   UNL     1       2.062   2.143   0.000  0.00  0.00    +0.000 OA
ENDBRANCH   6   7
ENDBRANCH   1   6
TORSDOF 3
