REMARK  Name = 
REMARK  1 active torsions:
REMARK  status: ('A' for Active; 'I' for Inactive)
REMARK    1  A    between atoms: C_2  and  C_3
REMARK                            x       y       z     vdW  Elec       q    Type
REMARK                         _______ _______ _______ _____ _____    ______ ____
ROOT
ATOM      1  C   UNL     1       0.825   0.000   0.000  0.00  0.00    +0.000 C 
ATOM      2 BR   UNL     1       1.238  -0.715   0.000  0.00  0.00    +0.000 Br
ATOM      3  C   UNL     1       0.000   0.000   0.000  0.00  0.00    +0.000 C 
ENDROOT
BRANCH   1   5
ATOM      4  O   UNL     1       0.825   1.429   0.000  0.00  0.00    +0.000 OA
ATOM      5  C   UNL     1       1.238   0.715   0.000  0.00  0.00    +0.000 C 
ENDBRANCH   1   5
TORSDOF 1
