REMARK  Name = 
REMARK  4 active torsions:
REMARK  status: ('A' for Active; 'I' for Inactive)
REMARK    1  A    between atoms: C_2  and  C_4
REMARK    2  A    between atoms: C_7  and  C_8
REMARK    3  A    between atoms: C_8  and  C_9
REMARK    4  A    between atoms: C_9  and  C_11
REMARK                            x       y       z     vdW  Elec       q    Type
REMARK                         _______ _______ _______ _____ _____    ______ ____
ROOT
ATOM      1  C   UNL     1       0.715  -0.412   0.000  0.00  0.00    +0.000 A 
ATOM      2  C   UNL     1       0.000   0.000   0.000  0.00  0.00    +0.000 A 
ATOM      3  C   UNL     1       0.000   0.825   0.000  0.00  0.00    +0.000 A 
ATOM      4  C   UNL     1       0.715   1.238   0.000  0.00  0.00    +0.000 A 
ATOM      5  C   UNL     1       1.429   0.825   0.000  0.00  0.00    +0.000 A 
ATOM      6  C   UNL     1       1.429   0.000   0.000  0.00  0.00    +0.000 A 
ENDROOT
BRANCH   1   8
ATOM      7  N   UNL     1       1.429  -1.650   0.000  0.00  0.00    +0.000 NA
ATOM      8  C   UNL     1       0.715  -1.238   0.000  0.00  0.00    +0.000 C 
ATOM      9  N   UNL     1       0.000  -1.650   0.000  0.00  0.00    +0.000 NA
ENDBRANCH   1   8
BRANCH   4  10
ATOM     10  C   UNL     1       0.715   2.062   0.000  0.00  0.00    +0.000 C 
BRANCH  10  11
ATOM     11  C   UNL     1       0.000   2.475   0.000  0.00  0.00    +0.000 C 
ATOM     12  O   UNL     1      -0.715   2.062   0.000  0.00  0.00    +0.000 OA
BRANCH  11  13
ATOM     13  C   UNL     1       0.000   3.300   0.000  0.00  0.00    +0.000 C 
ATOM     14  O   UNL     1      -0.715   3.712   0.000  0.00  0.00    +0.000 OA
ATOM     15  O   UNL     1       0.715   3.712   0.000  0.00  0.00    +0.000 OA
ENDBRANCH  11  13
ENDBRANCH  10  11
ENDBRANCH   4  10
TORSDOF 4
