REMARK  Name = 
REMARK  4 active torsions:
REMARK  status: ('A' for Active; 'I' for Inactive)
REMARK    1  A    between atoms: C_2  and  C_4
REMARK    2  A    between atoms: C_4  and  N_5
REMARK    3  A    between atoms: N_5  and  C_6
REMARK    4  A    between atoms: C_6  and  P_7
REMARK                            x       y       z     vdW  Elec       q    Type
REMARK                         _______ _______ _______ _____ _____    ______ ____
ROOT
ATOM      1  N   UNL     1       3.904  -1.429   0.000  0.00  0.00    +0.000 NA
ENDROOT
BRANCH   1   2
ATOM      2  C   UNL     1       3.189  -1.841   0.000  0.00  0.00    +0.000 C 
BRANCH   2   4
ATOM      3  O   UNL     1       1.760  -1.841   0.000  0.00  0.00    +0.000 OA
ATOM      4  C   UNL     1       2.475  -1.429   0.000  0.00  0.00    +0.000 C 
ATOM      5  O   UNL     1       2.475  -0.604   0.000  0.00  0.00    +0.000 OA
ENDBRANCH   2   4
ENDBRANCH   1   2
BRANCH   1   6
ATOM      6  C   UNL     1       4.618  -1.841   0.000  0.00  0.00    +0.000 C 
BRANCH   6   7
ATOM      7  P   UNL     1       5.333  -1.429   0.000  0.00  0.00    +0.000 P 
ATOM      8  O   UNL     1       6.047  -1.016   0.000  0.00  0.00    +0.000 OA
ATOM      9  O   UNL     1       5.745  -2.143   0.000  0.00  0.00    +0.000 OA
ATOM     10  O   UNL     1       4.920  -0.715   0.000  0.00  0.00    +0.000 OA
ENDBRANCH   6   7
ENDBRANCH   1   6
TORSDOF 4
