REMARK  Name = 
REMARK  4 active torsions:
REMARK  status: ('A' for Active; 'I' for Inactive)
REMARK    1  A    between atoms: C_5  and  C_7
REMARK    2  A    between atoms: C_8  and  C_16
REMARK    3  A    between atoms: C_13  and  C_15
REMARK    4  A    between atoms: C_14  and  C_20
REMARK                            x       y       z     vdW  Elec       q    Type
REMARK                         _______ _______ _______ _____ _____    ______ ____
ROOT
ATOM      1  C   UNL     1       1.429   0.825   0.000  0.00  0.00    +0.000 A 
ATOM      2  C   UNL     1       1.429   0.000   0.000  0.00  0.00    +0.000 A 
ATOM      3  C   UNL     1       4.287   0.825   0.000  0.00  0.00    +0.000 C 
ATOM      4  C   UNL     1       2.143   1.238   0.000  0.00  0.00    +0.000 A 
ATOM      5  C   UNL     1       3.572   1.238   0.000  0.00  0.00    +0.000 C 
ATOM      6  C   UNL     1       4.287   0.000   0.000  0.00  0.00    +0.000 C 
ATOM      7  C   UNL     1       2.143  -0.412   0.000  0.00  0.00    +0.000 A 
ATOM      8  C   UNL     1       3.572  -1.238   0.000  0.00  0.00    +0.000 C 
ATOM      9  C   UNL     1       2.858   0.825   0.000  0.00  0.00    +0.000 A 
ATOM     10  C   UNL     1       3.572  -0.412   0.000  0.00  0.00    +0.000 C 
ATOM     11  C   UNL     1       2.858   0.000   0.000  0.00  0.00    +0.000 A 
ENDROOT
BRANCH   8  14
ATOM     12  C   UNL     1       5.001  -1.238   0.000  0.00  0.00    +0.000 C 
ATOM     13  C   UNL     1       4.287  -2.475   0.000  0.00  0.00    +0.000 C 
ATOM     14  C   UNL     1       4.287  -1.650   0.000  0.00  0.00    +0.000 C 
BRANCH  13  15
ATOM     15  C   UNL     1       3.572  -2.888   0.000  0.00  0.00    +0.000 C 
ATOM     16  C   UNL     1       2.858  -2.475   0.000  0.00  0.00    +0.000 C 
BRANCH  16  19
ATOM     17  C   UNL     1       2.143  -3.712   0.000  0.00  0.00    +0.000 C 
ATOM     18  C   UNL     1       1.429  -2.475   0.000  0.00  0.00    +0.000 C 
ATOM     19  C   UNL     1       2.143  -2.888   0.000  0.00  0.00    +0.000 C 
BRANCH  18  20
ATOM     20  C   UNL     1       0.715  -2.888   0.000  0.00  0.00    +0.000 C 
ATOM     21  O   UNL     1       0.715  -3.712   0.000  0.00  0.00    +0.000 OA
ATOM     22  O   UNL     1       0.000  -2.475   0.000  0.00  0.00    +0.000 OA
ENDBRANCH  18  20
ENDBRANCH  16  19
ENDBRANCH  13  15
ENDBRANCH   8  14
TORSDOF 4
