REMARK  Name = 
REMARK  28 active torsions:
REMARK  status: ('A' for Active; 'I' for Inactive)
REMARK    1  A    between atoms: O_4  and  C_53
REMARK    2  A    between atoms: O_4  and  C_55
REMARK    3  A    between atoms: O_5  and  C_54
REMARK    4  A    between atoms: O_5  and  C_56
REMARK    5  A    between atoms: O_6  and  C_57
REMARK    6  A    between atoms: O_6  and  C_59
REMARK    7  A    between atoms: O_7  and  C_58
REMARK    8  A    between atoms: O_7  and  C_60
REMARK    9  A    between atoms: O_8  and  C_61
REMARK   10  A    between atoms: O_8  and  C_63
REMARK   11  A    between atoms: O_9  and  C_62
REMARK   12  A    between atoms: O_9  and  C_64
REMARK   13  A    between atoms: O_10  and  C_65
REMARK   14  A    between atoms: O_11  and  C_66
REMARK   15  A    between atoms: C_21  and  C_27
REMARK   16  A    between atoms: C_22  and  C_28
REMARK   17  A    between atoms: C_25  and  C_33
REMARK   18  A    between atoms: C_26  and  C_34
REMARK   19  A    between atoms: C_33  and  C_37
REMARK   20  A    between atoms: C_34  and  C_38
REMARK   21  A    between atoms: C_37  and  C_45
REMARK   22  A    between atoms: C_38  and  C_46
REMARK   23  A    between atoms: C_55  and  C_57
REMARK   24  A    between atoms: C_56  and  C_58
REMARK   25  A    between atoms: C_59  and  C_61
REMARK   26  A    between atoms: C_60  and  C_62
REMARK   27  A    between atoms: C_63  and  C_65
REMARK   28  A    between atoms: C_64  and  C_66
REMARK                            x       y       z     vdW  Elec       q    Type
REMARK                         _______ _______ _______ _____ _____    ______ ____
ROOT
ATOM      1 GD   UNL     1       6.656  -4.689   0.000  0.00  0.00    +0.000 Gd
ENDROOT
TORSDOF 0
REMARK  Name = 
REMARK  28 active torsions:
REMARK  status: ('A' for Active; 'I' for Inactive)
REMARK    1  A    between atoms: O_4  and  C_53
REMARK    2  A    between atoms: O_4  and  C_55
REMARK    3  A    between atoms: O_5  and  C_54
REMARK    4  A    between atoms: O_5  and  C_56
REMARK    5  A    between atoms: O_6  and  C_57
REMARK    6  A    between atoms: O_6  and  C_59
REMARK    7  A    between atoms: O_7  and  C_58
REMARK    8  A    between atoms: O_7  and  C_60
REMARK    9  A    between atoms: O_8  and  C_61
REMARK   10  A    between atoms: O_8  and  C_63
REMARK   11  A    between atoms: O_9  and  C_62
REMARK   12  A    between atoms: O_9  and  C_64
REMARK   13  A    between atoms: O_10  and  C_65
REMARK   14  A    between atoms: O_11  and  C_66
REMARK   15  A    between atoms: C_21  and  C_27
REMARK   16  A    between atoms: C_22  and  C_28
REMARK   17  A    between atoms: C_25  and  C_33
REMARK   18  A    between atoms: C_26  and  C_34
REMARK   19  A    between atoms: C_33  and  C_37
REMARK   20  A    between atoms: C_34  and  C_38
REMARK   21  A    between atoms: C_37  and  C_45
REMARK   22  A    between atoms: C_38  and  C_46
REMARK   23  A    between atoms: C_55  and  C_57
REMARK   24  A    between atoms: C_56  and  C_58
REMARK   25  A    between atoms: C_59  and  C_61
REMARK   26  A    between atoms: C_60  and  C_62
REMARK   27  A    between atoms: C_63  and  C_65
REMARK   28  A    between atoms: C_64  and  C_66
REMARK                            x       y       z     vdW  Elec       q    Type
REMARK                         _______ _______ _______ _____ _____    ______ ____
ROOT
ATOM      1  N   UNL     1       7.371  -5.101   0.000  0.00  0.00    +0.000 NA
ATOM      2  N   UNL     1       8.517  -3.844   0.000  0.00  0.00    +0.000 NA
ATOM      3  N   UNL     1       6.207  -3.806   0.000  0.00  0.00    +0.000 NA
ATOM      4  N   UNL     1       8.173  -2.249   0.000  0.00  0.00    +0.000 NA
ATOM      5  N   UNL     1       6.494  -2.249   0.000  0.00  0.00    +0.000 NA
ATOM      6  C   UNL     1       7.791  -6.394   0.000  0.00  0.00    +0.000 A 
ATOM      7  C   UNL     1       6.951  -6.394   0.000  0.00  0.00    +0.000 A 
ATOM      8  C   UNL     1       8.050  -5.595   0.000  0.00  0.00    +0.000 A 
ATOM      9  C   UNL     1       6.691  -5.595   0.000  0.00  0.00    +0.000 A 
ATOM     10  C   UNL     1       9.809  -4.263   0.000  0.00  0.00    +0.000 C 
ATOM     11  C   UNL     1       4.914  -4.226   0.000  0.00  0.00    +0.000 C 
ATOM     12  C   UNL     1       9.024  -4.514   0.000  0.00  0.00    +0.000 C 
ATOM     13  C   UNL     1       5.718  -4.514   0.000  0.00  0.00    +0.000 C 
ATOM     14  C   UNL     1       8.849  -5.335   0.000  0.00  0.00    +0.000 C 
ATOM     15  C   UNL     1       5.893  -5.335   0.000  0.00  0.00    +0.000 C 
ATOM     16  C   UNL     1       9.809  -3.424   0.000  0.00  0.00    +0.000 C 
ATOM     17  C   UNL     1       4.914  -3.386   0.000  0.00  0.00    +0.000 C 
ATOM     18  C   UNL     1       9.010  -3.164   0.000  0.00  0.00    +0.000 C 
ATOM     19  C   UNL     1       5.713  -3.127   0.000  0.00  0.00    +0.000 C 
ATOM     20  C   UNL     1      10.422  -2.872   0.000  0.00  0.00    +0.000 C 
ATOM     21  C   UNL     1       4.301  -2.834   0.000  0.00  0.00    +0.000 C 
ATOM     22  C   UNL     1       8.751  -2.365   0.000  0.00  0.00    +0.000 C 
ATOM     23  C   UNL     1       5.888  -2.305   0.000  0.00  0.00    +0.000 C 
ATOM     24  C   UNL     1       7.753  -1.522   0.000  0.00  0.00    +0.000 A 
ATOM     25  C   UNL     1       6.914  -1.522   0.000  0.00  0.00    +0.000 A 
ATOM     26  C   UNL     1       8.173  -0.795   0.000  0.00  0.00    +0.000 A 
ATOM     27  C   UNL     1       6.494  -0.795   0.000  0.00  0.00    +0.000 A 
ATOM     28  C   UNL     1       7.753  -0.067   0.000  0.00  0.00    +0.000 A 
ATOM     29  C   UNL     1       6.914  -0.067   0.000  0.00  0.00    +0.000 A 
ENDROOT
BRANCH   7  30
ATOM     30  C   UNL     1       6.723  -7.187   0.000  0.00  0.00    +0.000 C 
ATOM     31  C   UNL     1       7.297  -7.780   0.000  0.00  0.00    +0.000 C 
ENDBRANCH   7  30
BRANCH   6  32
ATOM     32  C   UNL     1       8.343  -7.007   0.000  0.00  0.00    +0.000 C 
ATOM     33  C   UNL     1       8.088  -7.791   0.000  0.00  0.00    +0.000 C 
ENDBRANCH   6  32
BRANCH  29  34
ATOM     34  O   UNL     1       6.501   0.647   0.000  0.00  0.00    +0.000 OA
BRANCH  34  35
ATOM     35  C   UNL     1       6.914   1.361   0.000  0.00  0.00    +0.000 C 
BRANCH  35  36
ATOM     36  C   UNL     1       6.501   2.076   0.000  0.00  0.00    +0.000 C 
BRANCH  36  37
ATOM     37  O   UNL     1       6.914   2.790   0.000  0.00  0.00    +0.000 OA
BRANCH  37  38
ATOM     38  C   UNL     1       6.501   3.505   0.000  0.00  0.00    +0.000 C 
BRANCH  38  39
ATOM     39  C   UNL     1       6.914   4.219   0.000  0.00  0.00    +0.000 C 
BRANCH  39  40
ATOM     40  O   UNL     1       6.501   4.934   0.000  0.00  0.00    +0.000 OA
BRANCH  40  41
ATOM     41  C   UNL     1       6.914   5.648   0.000  0.00  0.00    +0.000 C 
BRANCH  41  42
ATOM     42  C   UNL     1       6.501   6.362   0.000  0.00  0.00    +0.000 C 
BRANCH  42  43
ATOM     43  O   UNL     1       6.914   7.077   0.000  0.00  0.00    +0.000 OA
ATOM     44  C   UNL     1       6.501   7.791   0.000  0.00  0.00    +0.000 C 
ENDBRANCH  42  43
ENDBRANCH  41  42
ENDBRANCH  40  41
ENDBRANCH  39  40
ENDBRANCH  38  39
ENDBRANCH  37  38
ENDBRANCH  36  37
ENDBRANCH  35  36
ENDBRANCH  34  35
ENDBRANCH  29  34
BRANCH  28  45
ATOM     45  O   UNL     1       8.166   0.647   0.000  0.00  0.00    +0.000 OA
BRANCH  45  46
ATOM     46  C   UNL     1       8.991   0.647   0.000  0.00  0.00    +0.000 C 
BRANCH  46  47
ATOM     47  C   UNL     1       9.403   1.361   0.000  0.00  0.00    +0.000 C 
BRANCH  47  48
ATOM     48  O   UNL     1      10.228   1.361   0.000  0.00  0.00    +0.000 OA
BRANCH  48  49
ATOM     49  C   UNL     1      10.641   2.076   0.000  0.00  0.00    +0.000 C 
BRANCH  49  50
ATOM     50  C   UNL     1      11.466   2.076   0.000  0.00  0.00    +0.000 C 
BRANCH  50  51
ATOM     51  O   UNL     1      11.878   2.790   0.000  0.00  0.00    +0.000 OA
BRANCH  51  52
ATOM     52  C   UNL     1      12.703   2.790   0.000  0.00  0.00    +0.000 C 
BRANCH  52  53
ATOM     53  C   UNL     1      13.116   3.505   0.000  0.00  0.00    +0.000 C 
BRANCH  53  54
ATOM     54  O   UNL     1      13.940   3.505   0.000  0.00  0.00    +0.000 OA
ATOM     55  C   UNL     1      14.353   4.219   0.000  0.00  0.00    +0.000 C 
ENDBRANCH  53  54
ENDBRANCH  52  53
ENDBRANCH  51  52
ENDBRANCH  50  51
ENDBRANCH  49  50
ENDBRANCH  48  49
ENDBRANCH  47  48
ENDBRANCH  46  47
ENDBRANCH  45  46
ENDBRANCH  28  45
BRANCH  10  56
ATOM     56  C   UNL     1      10.523  -4.676   0.000  0.00  0.00    +0.000 C 
BRANCH  56  57
ATOM     57  C   UNL     1      11.238  -4.263   0.000  0.00  0.00    +0.000 C 
BRANCH  57  59
ATOM     58  O   UNL     1      12.666  -4.263   0.000  0.00  0.00    +0.000 OA
ATOM     59  C   UNL     1      11.952  -4.676   0.000  0.00  0.00    +0.000 C 
ENDBRANCH  57  59
ENDBRANCH  56  57
ENDBRANCH  10  56
BRANCH  11  60
ATOM     60  C   UNL     1       4.240  -4.701   0.000  0.00  0.00    +0.000 C 
BRANCH  60  61
ATOM     61  C   UNL     1       3.491  -4.355   0.000  0.00  0.00    +0.000 C 
BRANCH  61  63
ATOM     62  O   UNL     1       2.068  -4.483   0.000  0.00  0.00    +0.000 OA
ATOM     63  C   UNL     1       2.817  -4.830   0.000  0.00  0.00    +0.000 C 
ENDBRANCH  61  63
ENDBRANCH  60  61
ENDBRANCH  11  60
TORSDOF 28
REMARK  Name = 
REMARK  28 active torsions:
REMARK  status: ('A' for Active; 'I' for Inactive)
REMARK    1  A    between atoms: O_4  and  C_53
REMARK    2  A    between atoms: O_4  and  C_55
REMARK    3  A    between atoms: O_5  and  C_54
REMARK    4  A    between atoms: O_5  and  C_56
REMARK    5  A    between atoms: O_6  and  C_57
REMARK    6  A    between atoms: O_6  and  C_59
REMARK    7  A    between atoms: O_7  and  C_58
REMARK    8  A    between atoms: O_7  and  C_60
REMARK    9  A    between atoms: O_8  and  C_61
REMARK   10  A    between atoms: O_8  and  C_63
REMARK   11  A    between atoms: O_9  and  C_62
REMARK   12  A    between atoms: O_9  and  C_64
REMARK   13  A    between atoms: O_10  and  C_65
REMARK   14  A    between atoms: O_11  and  C_66
REMARK   15  A    between atoms: C_21  and  C_27
REMARK   16  A    between atoms: C_22  and  C_28
REMARK   17  A    between atoms: C_25  and  C_33
REMARK   18  A    between atoms: C_26  and  C_34
REMARK   19  A    between atoms: C_33  and  C_37
REMARK   20  A    between atoms: C_34  and  C_38
REMARK   21  A    between atoms: C_37  and  C_45
REMARK   22  A    between atoms: C_38  and  C_46
REMARK   23  A    between atoms: C_55  and  C_57
REMARK   24  A    between atoms: C_56  and  C_58
REMARK   25  A    between atoms: C_59  and  C_61
REMARK   26  A    between atoms: C_60  and  C_62
REMARK   27  A    between atoms: C_63  and  C_65
REMARK   28  A    between atoms: C_64  and  C_66
REMARK                            x       y       z     vdW  Elec       q    Type
REMARK                         _______ _______ _______ _____ _____    ______ ____
ROOT
ATOM      1  O   UNL     1       5.942  -5.101   0.000  0.00  0.00    +0.000 OA
ATOM      2  O   UNL     1       5.228  -6.338   0.000  0.00  0.00    +0.000 OA
ATOM      3  C   UNL     1       6.085  -6.738   0.000  0.00  0.00    +0.000 C 
ATOM      4  C   UNL     1       5.942  -5.926   0.000  0.00  0.00    +0.000 C 
ENDROOT
TORSDOF 0
REMARK  Name = 
REMARK  28 active torsions:
REMARK  status: ('A' for Active; 'I' for Inactive)
REMARK    1  A    between atoms: O_4  and  C_53
REMARK    2  A    between atoms: O_4  and  C_55
REMARK    3  A    between atoms: O_5  and  C_54
REMARK    4  A    between atoms: O_5  and  C_56
REMARK    5  A    between atoms: O_6  and  C_57
REMARK    6  A    between atoms: O_6  and  C_59
REMARK    7  A    between atoms: O_7  and  C_58
REMARK    8  A    between atoms: O_7  and  C_60
REMARK    9  A    between atoms: O_8  and  C_61
REMARK   10  A    between atoms: O_8  and  C_63
REMARK   11  A    between atoms: O_9  and  C_62
REMARK   12  A    between atoms: O_9  and  C_64
REMARK   13  A    between atoms: O_10  and  C_65
REMARK   14  A    between atoms: O_11  and  C_66
REMARK   15  A    between atoms: C_21  and  C_27
REMARK   16  A    between atoms: C_22  and  C_28
REMARK   17  A    between atoms: C_25  and  C_33
REMARK   18  A    between atoms: C_26  and  C_34
REMARK   19  A    between atoms: C_33  and  C_37
REMARK   20  A    between atoms: C_34  and  C_38
REMARK   21  A    between atoms: C_37  and  C_45
REMARK   22  A    between atoms: C_38  and  C_46
REMARK   23  A    between atoms: C_55  and  C_57
REMARK   24  A    between atoms: C_56  and  C_58
REMARK   25  A    between atoms: C_59  and  C_61
REMARK   26  A    between atoms: C_60  and  C_62
REMARK   27  A    between atoms: C_63  and  C_65
REMARK   28  A    between atoms: C_64  and  C_66
REMARK                            x       y       z     vdW  Elec       q    Type
REMARK                         _______ _______ _______ _____ _____    ______ ____
ROOT
ATOM      1  O   UNL     1       6.800  -3.876   0.000  0.00  0.00    +0.000 OA
ATOM      2  O   UNL     1       7.432  -4.407   0.000  0.00  0.00    +0.000 OA
ATOM      3  C   UNL     1       7.718  -2.782   0.000  0.00  0.00    +0.000 C 
ATOM      4  C   UNL     1       7.575  -3.594   0.000  0.00  0.00    +0.000 C 
ENDROOT
TORSDOF 0
