REMARK  Name = 
REMARK  4 active torsions:
REMARK  status: ('A' for Active; 'I' for Inactive)
REMARK    1  A    between atoms: C_6  and  C_14
REMARK    2  A    between atoms: C_14  and  C_19
REMARK    3  A    between atoms: C_18  and  C_19
REMARK    4  A    between atoms: C_18  and  C_22
REMARK                            x       y       z     vdW  Elec       q    Type
REMARK                         _______ _______ _______ _____ _____    ______ ____
ROOT
ATOM      1  C   UNL     1      12.125  -7.629   0.000  0.00  0.00    +0.000 C 
ATOM      2  C   UNL     1      12.125  -8.437   0.000  0.00  0.00    +0.000 C 
ATOM      3  C   UNL     1      10.696  -8.437   0.000  0.00  0.00    +0.000 C 
ATOM      4  C   UNL     1      11.426  -8.833   0.000  0.00  0.00    +0.000 C 
ATOM      5  C   UNL     1       9.982  -8.833   0.000  0.00  0.00    +0.000 C 
ATOM      6  C   UNL     1      12.909  -7.373   0.000  0.00  0.00    +0.000 C 
ATOM      7  C   UNL     1      11.426  -7.210   0.000  0.00  0.00    +0.000 C 
ATOM      8  C   UNL     1      10.696  -7.629   0.000  0.00  0.00    +0.000 C 
ATOM      9  C   UNL     1      12.909  -8.693   0.000  0.00  0.00    +0.000 C 
ATOM     10  C   UNL     1      13.375  -8.041   0.000  0.00  0.00    +0.000 C 
ATOM     11  C   UNL     1      11.426  -9.671   0.000  0.00  0.00    +0.000 C 
ATOM     12  C   UNL     1       9.982  -9.671   0.000  0.00  0.00    +0.000 C 
ATOM     13  C   UNL     1      10.696 -10.083   0.000  0.00  0.00    +0.000 C 
ATOM     14  C   UNL     1      12.125  -6.783   0.000  0.00  0.00    +0.000 C 
ATOM     15  C   UNL     1       9.982  -8.025   0.000  0.00  0.00    +0.000 C 
ATOM     16  C   UNL     1       9.283  -8.437   0.000  0.00  0.00    +0.000 C 
ATOM     17  C   UNL     1       9.283 -10.083   0.000  0.00  0.00    +0.000 C 
ATOM     18  C   UNL     1       8.561  -8.839   0.000  0.00  0.00    +0.000 C 
ATOM     19  C   UNL     1       8.561  -9.664   0.000  0.00  0.00    +0.000 C 
ATOM     20  O   UNL     1       7.982  -9.950   0.000  0.00  0.00    +0.000 OA
ATOM     21  O   UNL     1      11.998  -9.880   0.000  0.00  0.00    +0.000 OA
ENDROOT
BRANCH   6  22
ATOM     22  C   UNL     1      12.909  -6.527   0.000  0.00  0.00    +0.000 C 
ATOM     23  C   UNL     1      12.156  -5.881   0.000  0.00  0.00    +0.000 C 
BRANCH  22  24
ATOM     24  C   UNL     1      13.639  -6.100   0.000  0.00  0.00    +0.000 C 
BRANCH  24  25
ATOM     25  C   UNL     1      14.345  -6.503   0.000  0.00  0.00    +0.000 C 
BRANCH  25  26
ATOM     26  C   UNL     1      15.052  -6.076   0.000  0.00  0.00    +0.000 C 
ATOM     27  O   UNL     1      15.780  -6.607   0.000  0.00  0.00    +0.000 OA
ATOM     28  O   UNL     1      15.175  -5.356   0.000  0.00  0.00    +0.000 OA
ENDBRANCH  25  26
ENDBRANCH  24  25
ENDBRANCH  22  24
ENDBRANCH   6  22
TORSDOF 4
