REMARK  Name = 
REMARK  5 active torsions:
REMARK  status: ('A' for Active; 'I' for Inactive)
REMARK    1  A    between atoms: C_3  and  C_4
REMARK    2  A    between atoms: C_4  and  N_16
REMARK    3  A    between atoms: C5*_5  and  C4*_9
REMARK    4  A    between atoms: C_13  and  N_16
REMARK    5  A    between atoms: C1*_15  and  N_20
REMARK                            x       y       z     vdW  Elec       q    Type
REMARK                         _______ _______ _______ _____ _____    ______ ____
ROOT
ATOM      1  C   UNL     1       3.352   1.110   0.000  0.00  0.00    +0.000 A 
ATOM      2  C   UNL     1       0.654   1.523   0.000  0.00  0.00    +0.000 A 
ATOM      3  C   UNL     1       1.923   1.935   0.000  0.00  0.00    +0.000 A 
ATOM      4  C   UNL     1       2.638   2.348   0.000  0.00  0.00    +0.000 A 
ATOM      5  C   UNL     1       1.923   1.110   0.000  0.00  0.00    +0.000 A 
ATOM      6  N   UNL     1       3.352   1.935   0.000  0.00  0.00    +0.000 NA
ATOM      7  N   UNL     1       2.638   0.698   0.000  0.00  0.00    +0.000 NA
ATOM      8  N   UNL     1       1.139   2.190   0.000  0.00  0.00    +0.000 NA
ATOM      9  N   UNL     1       1.139   0.856   0.000  0.00  0.00    +0.000 N 
ENDROOT
BRANCH   9  13
ATOM     10  C4* UNL     1       0.099  -1.009   0.000  0.00  0.00    +0.000 C 
ATOM     11  C3* UNL     1       0.884  -1.264   0.000  0.00  0.00    +0.000 C 
ATOM     12  C2* UNL     1       1.369  -0.597   0.000  0.00  0.00    +0.000 C 
ATOM     13  C1* UNL     1       0.884   0.071   0.000  0.00  0.00    +0.000 C 
ATOM     14  O3* UNL     1       1.139  -2.049   0.000  0.00  0.00    +0.000 OA
ATOM     15  O2* UNL     1       2.194  -0.597   0.000  0.00  0.00    +0.000 OA
ATOM     16  O4* UNL     1       0.099  -0.184   0.000  0.00  0.00    +0.000 OA
BRANCH  10  17
ATOM     17  C5* UNL     1      -0.568  -1.494   0.000  0.00  0.00    +0.000 C 
ATOM     18  O5* UNL     1      -0.482  -2.314   0.000  0.00  0.00    +0.000 OA
ENDBRANCH  10  17
ENDBRANCH   9  13
BRANCH   4  19
ATOM     19  N   UNL     1       2.638   3.173   0.000  0.00  0.00    +0.000 NA
BRANCH  19  20
ATOM     20  C   UNL     1       3.352   3.585   0.000  0.00  0.00    +0.000 C 
BRANCH  20  23
ATOM     21  C   UNL     1       4.067   5.648   0.000  0.00  0.00    +0.000 C 
ATOM     22  C   UNL     1       4.781   4.410   0.000  0.00  0.00    +0.000 C 
ATOM     23  C   UNL     1       3.352   4.410   0.000  0.00  0.00    +0.000 C 
ATOM     24  C   UNL     1       4.067   4.823   0.000  0.00  0.00    +0.000 C 
ENDBRANCH  20  23
ENDBRANCH  19  20
ENDBRANCH   4  19
TORSDOF 5
