REMARK  Name = 
REMARK  4 active torsions:
REMARK  status: ('A' for Active; 'I' for Inactive)
REMARK    1  A    between atoms: N_2  and  C_4
REMARK    2  A    between atoms: C_4  and  C_5
REMARK    3  A    between atoms: C_5  and  N_6
REMARK    4  A    between atoms: C_7  and  C_9
REMARK                            x       y       z     vdW  Elec       q    Type
REMARK                         _______ _______ _______ _____ _____    ______ ____
ROOT
ATOM      1  C   UNL     1      -1.429  -1.650   0.000  0.00  0.00    +0.000 A 
ATOM      2  C   UNL     1      -1.429  -2.475   0.000  0.00  0.00    +0.000 A 
ATOM      3  C   UNL     1      -0.715  -2.888   0.000  0.00  0.00    +0.000 A 
ATOM      4  C   UNL     1       0.000  -2.475   0.000  0.00  0.00    +0.000 A 
ATOM      5  C   UNL     1       0.000  -1.650   0.000  0.00  0.00    +0.000 A 
ATOM      6  C   UNL     1       0.715  -1.238   0.000  0.00  0.00    +0.000 A 
ATOM      7  N   UNL     1       1.429  -1.650   0.000  0.00  0.00    +0.000 NA
ATOM      8  C   UNL     1       0.715  -0.412   0.000  0.00  0.00    +0.000 A 
ATOM      9  C   UNL     1       0.000   0.000   0.000  0.00  0.00    +0.000 A 
ATOM     10  N   UNL     1      -0.715  -0.412   0.000  0.00  0.00    +0.000 NA
ATOM     11  C   UNL     1      -0.715  -1.238   0.000  0.00  0.00    +0.000 A 
ATOM     12  C   UNL     1       0.000   0.825   0.000  0.00  0.00    +0.000 A 
ATOM     13 BR   UNL     1      -0.715   1.238   0.000  0.00  0.00    +0.000 Br
ATOM     14  C   UNL     1       0.715   1.238   0.000  0.00  0.00    +0.000 A 
ATOM     15  C   UNL     1       1.429   0.825   0.000  0.00  0.00    +0.000 A 
ATOM     16  C   UNL     1       1.429   0.000   0.000  0.00  0.00    +0.000 A 
ENDROOT
BRANCH   1  18
ATOM     17  N   UNL     1      -2.858  -1.650   0.000  0.00  0.00    +0.000 NA
ATOM     18  C   UNL     1      -2.143  -1.238   0.000  0.00  0.00    +0.000 C 
ATOM     19  O   UNL     1      -2.143  -0.412   0.000  0.00  0.00    +0.000 OA
BRANCH  17  20
ATOM     20  C   UNL     1      -3.572  -1.238   0.000  0.00  0.00    +0.000 C 
BRANCH  20  21
ATOM     21  C   UNL     1      -4.287  -1.650   0.000  0.00  0.00    +0.000 C 
BRANCH  21  23
ATOM     22  C   UNL     1      -5.716  -1.650   0.000  0.00  0.00    +0.000 C 
ATOM     23  N   UNL     1      -5.001  -1.238   0.000  0.00  0.00    +0.000 NA
ATOM     24  C   UNL     1      -5.001  -0.412   0.000  0.00  0.00    +0.000 C 
ENDBRANCH  21  23
ENDBRANCH  20  21
ENDBRANCH  17  20
ENDBRANCH   1  18
TORSDOF 4
