REMARK  Name = 
REMARK  7 active torsions:
REMARK  status: ('A' for Active; 'I' for Inactive)
REMARK    1  A    between atoms: O_2  and  C_13
REMARK    2  A    between atoms: O_3  and  C_14
REMARK    3  A    between atoms: O_4  and  C_17
REMARK    4  A    between atoms: O_5  and  C_20
REMARK    5  A    between atoms: C_7  and  C_8
REMARK    6  A    between atoms: C_7  and  C_9
REMARK    7  A    between atoms: C_8  and  C_10
REMARK                            x       y       z     vdW  Elec       q    Type
REMARK                         _______ _______ _______ _____ _____    ______ ____
ROOT
ATOM      1  O   UNL     1       3.079   0.206   0.000  0.00  0.00    +0.000 OA
ATOM      2  C   UNL     1       3.793  -0.206   0.000  0.00  0.00    +0.000 C 
ENDROOT
BRANCH   2   3
ATOM      3  C   UNL     1       3.793  -1.031   0.000  0.00  0.00    +0.000 A 
ATOM      4  C   UNL     1       4.508  -1.444   0.000  0.00  0.00    +0.000 A 
ATOM      5  C   UNL     1       3.079  -1.444   0.000  0.00  0.00    +0.000 A 
ATOM      6  C   UNL     1       3.079  -2.269   0.000  0.00  0.00    +0.000 A 
ATOM      7  C   UNL     1       4.508  -2.269   0.000  0.00  0.00    +0.000 A 
ATOM      8  C   UNL     1       3.793  -2.681   0.000  0.00  0.00    +0.000 A 
BRANCH   7   9
ATOM      9  O   UNL     1       5.222  -2.681   0.000  0.00  0.00    +0.000 OA
ATOM     10  C   UNL     1       5.937  -2.269   0.000  0.00  0.00    +0.000 C 
ENDBRANCH   7   9
BRANCH   8  11
ATOM     11  O   UNL     1       3.793  -3.506   0.000  0.00  0.00    +0.000 OA
ATOM     12  C   UNL     1       3.079  -3.919   0.000  0.00  0.00    +0.000 C 
ENDBRANCH   8  11
BRANCH   6  13
ATOM     13  O   UNL     1       2.365  -2.681   0.000  0.00  0.00    +0.000 OA
ATOM     14  C   UNL     1       1.650  -2.269   0.000  0.00  0.00    +0.000 C 
ENDBRANCH   6  13
ENDBRANCH   2   3
BRANCH   2  15
ATOM     15  C   UNL     1       4.508   0.206   0.000  0.00  0.00    +0.000 C 
BRANCH  15  17
ATOM     16  O   UNL     1       5.937   2.681   0.000  0.00  0.00    +0.000 OA
ATOM     17  C   UNL     1       4.508   1.031   0.000  0.00  0.00    +0.000 A 
ATOM     18  C   UNL     1       5.222   1.444   0.000  0.00  0.00    +0.000 A 
ATOM     19  C   UNL     1       3.793   1.444   0.000  0.00  0.00    +0.000 A 
ATOM     20  C   UNL     1       5.222   2.269   0.000  0.00  0.00    +0.000 A 
ATOM     21  C   UNL     1       3.793   2.269   0.000  0.00  0.00    +0.000 A 
ATOM     22  C   UNL     1       4.508   2.681   0.000  0.00  0.00    +0.000 A 
BRANCH  22  23
ATOM     23  O   UNL     1       4.508   3.506   0.000  0.00  0.00    +0.000 OA
ATOM     24  C   UNL     1       3.793   3.919   0.000  0.00  0.00    +0.000 C 
ENDBRANCH  22  23
ENDBRANCH  15  17
ENDBRANCH   2  15
TORSDOF 7
