REMARK  Name = 
REMARK  5 active torsions:
REMARK  status: ('A' for Active; 'I' for Inactive)
REMARK    1  A    between atoms: C_1  and  C_2
REMARK    2  A    between atoms: C_4  and  O_17
REMARK    3  A    between atoms: C_5  and  O_18
REMARK    4  A    between atoms: O_17  and  S_19
REMARK    5  A    between atoms: O_18  and  S_20
REMARK                            x       y       z     vdW  Elec       q    Type
REMARK                         _______ _______ _______ _____ _____    ______ ____
ROOT
ATOM      1  C   UNL     1       1.429   0.825   0.000  0.00  0.00    +0.000 C 
ATOM      2  C   UNL     1       0.715   1.238   0.000  0.00  0.00    +0.000 C 
ATOM      3  C   UNL     1       0.000   0.825   0.000  0.00  0.00    +0.000 C 
ATOM      4  C   UNL     1       0.000   0.000   0.000  0.00  0.00    +0.000 C 
ATOM      5  C   UNL     1       0.715  -0.412   0.000  0.00  0.00    +0.000 C 
ATOM      6  O   UNL     1       0.715   2.062   0.000  0.00  0.00    +0.000 OA
ATOM      7  O   UNL     1       0.715  -1.238   0.000  0.00  0.00    +0.000 OA
ATOM      8  O   UNL     1       1.429   0.000   0.000  0.00  0.00    +0.000 OA
ENDROOT
BRANCH   1   9
ATOM      9  C   UNL     1       2.143   1.238   0.000  0.00  0.00    +0.000 C 
ATOM     10  O   UNL     1       2.858   0.825   0.000  0.00  0.00    +0.000 OA
ENDBRANCH   1   9
BRANCH   3  11
ATOM     11  O   UNL     1      -0.715   1.238   0.000  0.00  0.00    +0.000 OA
BRANCH  11  15
ATOM     12  O   UNL     1       0.111   2.062   0.000  0.00  0.00    +0.000 OA
ATOM     13  O   UNL     1      -1.540   2.062   0.000  0.00  0.00    +0.000 OA
ATOM     14  O   UNL     1      -0.715   2.888   0.000  0.00  0.00    +0.000 OA
ATOM     15  S   UNL     1      -0.715   2.062   0.000  0.00  0.00    +0.000 S 
ENDBRANCH  11  15
ENDBRANCH   3  11
BRANCH   4  16
ATOM     16  O   UNL     1      -0.715  -0.412   0.000  0.00  0.00    +0.000 OA
BRANCH  16  20
ATOM     17  O   UNL     1      -0.715  -2.062   0.000  0.00  0.00    +0.000 OA
ATOM     18  O   UNL     1      -1.540  -1.238   0.000  0.00  0.00    +0.000 OA
ATOM     19  O   UNL     1       0.111  -1.238   0.000  0.00  0.00    +0.000 OA
ATOM     20  S   UNL     1      -0.715  -1.238   0.000  0.00  0.00    +0.000 S 
ENDBRANCH  16  20
ENDBRANCH   4  16
TORSDOF 5
