REMARK  Name = 
REMARK  0 active torsions:
REMARK  status: ('A' for Active; 'I' for Inactive)
REMARK                            x       y       z     vdW  Elec       q    Type
REMARK                         _______ _______ _______ _____ _____    ______ ____
ROOT
ATOM      1  C   UNL     1      13.585  -8.100   0.000  0.00  0.00    +0.000 C 
ATOM      2  C   UNL     1      13.088  -7.445   0.000  0.00  0.00    +0.000 A 
ATOM      3  C   UNL     1      13.286  -6.645   0.000  0.00  0.00    +0.000 A 
ATOM      4  N   UNL     1      14.030  -6.304   0.000  0.00  0.00    +0.000 NA
ATOM      5  N   UNL     1      14.414  -8.115   0.000  0.00  0.00    +0.000 NA
ATOM      6  C   UNL     1      14.769  -6.671   0.000  0.00  0.00    +0.000 A 
ATOM      7  C   UNL     1      14.938  -7.478   0.000  0.00  0.00    +0.000 A 
ATOM      8  C   UNL     1      12.691  -6.073   0.000  0.00  0.00    +0.000 A 
ATOM      9  C   UNL     1      11.900  -6.302   0.000  0.00  0.00    +0.000 A 
ATOM     10  C   UNL     1      11.702  -7.103   0.000  0.00  0.00    +0.000 A 
ATOM     11  C   UNL     1      12.296  -7.674   0.000  0.00  0.00    +0.000 A 
ATOM     12  C   UNL     1      15.724  -7.736   0.000  0.00  0.00    +0.000 A 
ATOM     13  C   UNL     1      16.340  -7.185   0.000  0.00  0.00    +0.000 A 
ATOM     14  C   UNL     1      16.171  -6.377   0.000  0.00  0.00    +0.000 A 
ATOM     15  C   UNL     1      15.385  -6.119   0.000  0.00  0.00    +0.000 A 
ATOM     16  N   UNL     1      13.210  -8.837   0.000  0.00  0.00    +0.000 N 
ATOM     17  C   UNL     1      12.383  -8.837   0.000  0.00  0.00    +0.000 C 
ATOM     18  C   UNL     1      11.970  -9.553   0.000  0.00  0.00    +0.000 C 
ATOM     19  N   UNL     1      12.383 -10.269   0.000  0.00  0.00    +0.000 NA
ATOM     20  C   UNL     1      13.210 -10.269   0.000  0.00  0.00    +0.000 C 
ATOM     21  C   UNL     1      13.624  -9.553   0.000  0.00  0.00    +0.000 C 
ATOM     22 CL   UNL     1      17.139  -7.447   0.000  0.00  0.00    +0.000 Cl
ATOM     23  C   UNL     1      11.966 -10.991   0.000  0.00  0.00    +0.000 C 
ENDROOT
TORSDOF 0
