REMARK  Name = 
REMARK  4 active torsions:
REMARK  status: ('A' for Active; 'I' for Inactive)
REMARK    1  A    between atoms: C_2  and  C_3
REMARK    2  A    between atoms: C_3  and  C_5
REMARK    3  A    between atoms: C_5  and  O_6
REMARK    4  A    between atoms: O_6  and  P_7
REMARK                            x       y       z     vdW  Elec       q    Type
REMARK                         _______ _______ _______ _____ _____    ______ ____
ROOT
ATOM      1  C   UNL     1       3.904  -1.429   0.000  0.00  0.00    +0.000 C 
ENDROOT
BRANCH   1   2
ATOM      2  C   UNL     1       3.189  -1.841   0.000  0.00  0.00    +0.000 C 
ATOM      3  O   UNL     1       3.189  -2.666   0.000  0.00  0.00    +0.000 OA
BRANCH   2   5
ATOM      4  O   UNL     1       1.760  -1.841   0.000  0.00  0.00    +0.000 OA
ATOM      5  C   UNL     1       2.475  -1.429   0.000  0.00  0.00    +0.000 C 
ENDBRANCH   2   5
ENDBRANCH   1   2
BRANCH   1   6
ATOM      6  O   UNL     1       4.618  -1.841   0.000  0.00  0.00    +0.000 OA
BRANCH   6   7
ATOM      7  P   UNL     1       5.333  -1.429   0.000  0.00  0.00    +0.000 P 
ATOM      8  O   UNL     1       6.047  -1.016   0.000  0.00  0.00    +0.000 OA
ATOM      9  O   UNL     1       5.745  -2.143   0.000  0.00  0.00    +0.000 OA
ATOM     10  O   UNL     1       4.920  -0.715   0.000  0.00  0.00    +0.000 OA
ENDBRANCH   6   7
ENDBRANCH   1   6
TORSDOF 4
