REMARK  Name = 
REMARK  14 active torsions:
REMARK  status: ('A' for Active; 'I' for Inactive)
REMARK    1  A    between atoms: C_2  and  C_8
REMARK    2  A    between atoms: C_3  and  C_6
REMARK    3  A    between atoms: C_6  and  C_20
REMARK    4  A    between atoms: C_7  and  C_8
REMARK    5  A    between atoms: C_11  and  C_12
REMARK    6  A    between atoms: C_11  and  C_14
REMARK    7  A    between atoms: C_12  and  C_30
REMARK    8  A    between atoms: C_13  and  C_14
REMARK    9  A    between atoms: C_13  and  O_16
REMARK   10  A    between atoms: C_15  and  O_16
REMARK   11  A    between atoms: C_20  and  C_21
REMARK   12  A    between atoms: C_21  and  C_29
REMARK   13  A    between atoms: C_23  and  C_24
REMARK   14  A    between atoms: C_23  and  C_29
REMARK                            x       y       z     vdW  Elec       q    Type
REMARK                         _______ _______ _______ _____ _____    ______ ____
ROOT
ATOM      1  C   UNL     1      -0.217   0.667   0.000  0.00  0.00    +0.000 C 
ATOM      2  C   UNL     1       0.568   0.412   0.000  0.00  0.00    +0.000 C 
ATOM      3  C   UNL     1       0.568  -0.412   0.000  0.00  0.00    +0.000 C 
ATOM      4  C   UNL     1      -0.702   0.000   0.000  0.00  0.00    +0.000 C 
ATOM      5  C   UNL     1      -0.217  -0.667   0.000  0.00  0.00    +0.000 C 
ATOM      6  O   UNL     1      -0.472   1.452   0.000  0.00  0.00    +0.000 OA
ATOM      7  O   UNL     1      -0.472  -1.452   0.000  0.00  0.00    +0.000 OA
ENDROOT
BRANCH   2   8
ATOM      8  C   UNL     1       1.282   0.825   0.000  0.00  0.00    +0.000 C 
BRANCH   8   9
ATOM      9  C   UNL     1       1.997   0.412   0.000  0.00  0.00    +0.000 C 
ATOM     10  C   UNL     1       2.711   0.825   0.000  0.00  0.00    +0.000 C 
BRANCH  10  11
ATOM     11  C   UNL     1       2.711   1.650   0.000  0.00  0.00    +0.000 C 
BRANCH  11  12
ATOM     12  C   UNL     1       3.426   2.062   0.000  0.00  0.00    +0.000 C 
BRANCH  12  13
ATOM     13  C   UNL     1       4.140   1.650   0.000  0.00  0.00    +0.000 C 
BRANCH  13  14
ATOM     14  C   UNL     1       4.855   2.062   0.000  0.00  0.00    +0.000 C 
ATOM     15  O   UNL     1       4.855   2.888   0.000  0.00  0.00    +0.000 OA
BRANCH  14  16
ATOM     16  O   UNL     1       5.569   1.650   0.000  0.00  0.00    +0.000 OA
BRANCH  16  17
ATOM     17  C   UNL     1       6.284   2.062   0.000  0.00  0.00    +0.000 C 
ATOM     18  C   UNL     1       6.998   1.650   0.000  0.00  0.00    +0.000 C 
ATOM     19  C   UNL     1       6.284   2.888   0.000  0.00  0.00    +0.000 C 
ENDBRANCH  16  17
ENDBRANCH  14  16
ENDBRANCH  13  14
ENDBRANCH  12  13
ENDBRANCH  11  12
ENDBRANCH  10  11
ENDBRANCH   8   9
ENDBRANCH   2   8
BRANCH   3  20
ATOM     20  C   UNL     1       1.282  -0.825   0.000  0.00  0.00    +0.000 C 
BRANCH  20  21
ATOM     21  C   UNL     1       1.997  -0.412   0.000  0.00  0.00    +0.000 C 
BRANCH  21  22
ATOM     22  C   UNL     1       2.711  -0.825   0.000  0.00  0.00    +0.000 C 
ATOM     23  O   UNL     1       2.711  -1.650   0.000  0.00  0.00    +0.000 OA
BRANCH  22  24
ATOM     24  C   UNL     1       3.426  -0.412   0.000  0.00  0.00    +0.000 C 
BRANCH  24  25
ATOM     25  C   UNL     1       4.140  -0.825   0.000  0.00  0.00    +0.000 C 
BRANCH  25  26
ATOM     26  C   UNL     1       4.855  -0.412   0.000  0.00  0.00    +0.000 A 
ATOM     27  C   UNL     1       5.569  -0.825   0.000  0.00  0.00    +0.000 A 
ATOM     28  C   UNL     1       6.284  -0.412   0.000  0.00  0.00    +0.000 A 
ATOM     29  C   UNL     1       6.284   0.412   0.000  0.00  0.00    +0.000 A 
ATOM     30  C   UNL     1       5.569   0.825   0.000  0.00  0.00    +0.000 A 
ATOM     31  C   UNL     1       4.855   0.412   0.000  0.00  0.00    +0.000 A 
ENDBRANCH  25  26
ENDBRANCH  24  25
ENDBRANCH  22  24
ENDBRANCH  21  22
ENDBRANCH  20  21
ENDBRANCH   3  20
TORSDOF 14
