REMARK  Name = 
REMARK  8 active torsions:
REMARK  status: ('A' for Active; 'I' for Inactive)
REMARK    1  A    between atoms: C_2  and  C_4
REMARK    2  A    between atoms: C_7  and  O_8
REMARK    3  A    between atoms: O_8  and  C_9
REMARK    4  A    between atoms: C_9  and  C_10
REMARK    5  A    between atoms: C_10  and  C_11
REMARK    6  A    between atoms: C_11  and  O_12
REMARK    7  A    between atoms: O_12  and  C_13
REMARK    8  A    between atoms: C_16  and  C_20
REMARK                            x       y       z     vdW  Elec       q    Type
REMARK                         _______ _______ _______ _____ _____    ______ ____
ROOT
ATOM      1  C   UNL     1       3.572  -3.712   0.000  0.00  0.00    +0.000 C 
ENDROOT
BRANCH   1   2
ATOM      2  C   UNL     1       2.858  -4.125   0.000  0.00  0.00    +0.000 C 
BRANCH   2   3
ATOM      3  O   UNL     1       2.143  -3.712   0.000  0.00  0.00    +0.000 OA
BRANCH   3   7
ATOM      4  C   UNL     1       0.000  -4.950   0.000  0.00  0.00    +0.000 A 
ATOM      5  C   UNL     1       0.000  -4.125   0.000  0.00  0.00    +0.000 A 
ATOM      6  C   UNL     1       0.715  -3.712   0.000  0.00  0.00    +0.000 A 
ATOM      7  C   UNL     1       1.429  -4.125   0.000  0.00  0.00    +0.000 A 
ATOM      8  C   UNL     1       1.429  -4.950   0.000  0.00  0.00    +0.000 A 
ATOM      9 BR   UNL     1       2.143  -5.362   0.000  0.00  0.00    +0.000 Br
ATOM     10  C   UNL     1       0.715  -5.362   0.000  0.00  0.00    +0.000 A 
BRANCH   4  12
ATOM     11  N   UNL     1      -0.715  -6.188   0.000  0.00  0.00    +0.000 NA
ATOM     12  C   UNL     1      -0.715  -5.362   0.000  0.00  0.00    +0.000 C 
ATOM     13  N   UNL     1      -1.429  -4.950   0.000  0.00  0.00    +0.000 NA
ENDBRANCH   4  12
ENDBRANCH   3   7
ENDBRANCH   2   3
ENDBRANCH   1   2
BRANCH   1  14
ATOM     14  C   UNL     1       4.287  -4.125   0.000  0.00  0.00    +0.000 C 
BRANCH  14  15
ATOM     15  O   UNL     1       5.001  -3.712   0.000  0.00  0.00    +0.000 OA
BRANCH  15  16
ATOM     16  C   UNL     1       5.716  -4.125   0.000  0.00  0.00    +0.000 A 
ATOM     17  C   UNL     1       6.430  -3.712   0.000  0.00  0.00    +0.000 A 
ATOM     18  C   UNL     1       7.145  -4.125   0.000  0.00  0.00    +0.000 A 
ATOM     19  C   UNL     1       7.145  -4.950   0.000  0.00  0.00    +0.000 A 
ATOM     20  C   UNL     1       6.430  -5.362   0.000  0.00  0.00    +0.000 A 
ATOM     21  C   UNL     1       5.716  -4.950   0.000  0.00  0.00    +0.000 A 
ATOM     22 BR   UNL     1       5.001  -5.362   0.000  0.00  0.00    +0.000 Br
BRANCH  19  23
ATOM     23  C   UNL     1       7.859  -5.362   0.000  0.00  0.00    +0.000 C 
ATOM     24  N   UNL     1       8.574  -4.950   0.000  0.00  0.00    +0.000 NA
ATOM     25  N   UNL     1       7.859  -6.188   0.000  0.00  0.00    +0.000 NA
ENDBRANCH  19  23
ENDBRANCH  15  16
ENDBRANCH  14  15
ENDBRANCH   1  14
TORSDOF 8
