REMARK  Name = 
REMARK  8 active torsions:
REMARK  status: ('A' for Active; 'I' for Inactive)
REMARK    1  A    between atoms: C_2  and  C_4
REMARK    2  A    between atoms: C_10  and  C_11
REMARK    3  A    between atoms: C_11  and  C_13
REMARK    4  A    between atoms: C_17  and  C_21
REMARK    5  A    between atoms: C_21  and  O_23
REMARK    6  A    between atoms: O_23  and  C_24
REMARK    7  A    between atoms: C_30  and  N_31
REMARK    8  A    between atoms: C_32  and  C_34
REMARK                            x       y       z     vdW  Elec       q    Type
REMARK                         _______ _______ _______ _____ _____    ______ ____
ROOT
ATOM      1  C   UNL     1      -4.781  -4.853   0.000  0.00  0.00    +0.000 A 
ATOM      2  C   UNL     1      -4.781  -5.678   0.000  0.00  0.00    +0.000 A 
ATOM      3  O   UNL     1      -4.446  -6.432   0.000  0.00  0.00    +0.000 OA
ATOM      4  C   UNL     1      -5.496  -6.090   0.000  0.00  0.00    +0.000 A 
ATOM      5  C   UNL     1      -6.210  -5.678   0.000  0.00  0.00    +0.000 A 
ATOM      6  C   UNL     1      -6.210  -4.853   0.000  0.00  0.00    +0.000 A 
ATOM      7  C   UNL     1      -5.496  -4.441   0.000  0.00  0.00    +0.000 A 
ATOM      8  O   UNL     1      -5.496  -3.615   0.000  0.00  0.00    +0.000 OA
ENDROOT
BRANCH   1   9
ATOM      9  C   UNL     1      -4.067  -4.441   0.000  0.00  0.00    +0.000 C 
ATOM     10  O   UNL     1      -4.067  -3.615   0.000  0.00  0.00    +0.000 OA
BRANCH   9  17
ATOM     11  C   UNL     1      -2.638  -4.441   0.000  0.00  0.00    +0.000 A 
ATOM     12  C   UNL     1      -1.923  -4.853   0.000  0.00  0.00    +0.000 A 
ATOM     13  C   UNL     1      -1.923  -5.678   0.000  0.00  0.00    +0.000 A 
ATOM     14  C   UNL     1      -2.638  -6.090   0.000  0.00  0.00    +0.000 A 
ATOM     15  C   UNL     1      -3.352  -5.678   0.000  0.00  0.00    +0.000 A 
ATOM     16  O   UNL     1      -4.067  -6.090   0.000  0.00  0.00    +0.000 OA
ATOM     17  C   UNL     1      -3.352  -4.853   0.000  0.00  0.00    +0.000 A 
BRANCH  11  19
ATOM     18  O   UNL     1      -1.923  -3.203   0.000  0.00  0.00    +0.000 OA
ATOM     19  C   UNL     1      -2.638  -3.615   0.000  0.00  0.00    +0.000 C 
ATOM     20  O   UNL     1      -3.352  -3.203   0.000  0.00  0.00    +0.000 OA
ENDBRANCH  11  19
ENDBRANCH   9  17
ENDBRANCH   1   9
BRANCH   5  21
ATOM     21  C   UNL     1      -6.925  -6.090   0.000  0.00  0.00    +0.000 C 
ATOM     22  O   UNL     1      -6.925  -6.915   0.000  0.00  0.00    +0.000 OA
BRANCH  21  23
ATOM     23  O   UNL     1      -7.639  -5.678   0.000  0.00  0.00    +0.000 OA
BRANCH  23  24
ATOM     24  C   UNL     1      -8.354  -6.090   0.000  0.00  0.00    +0.000 C 
ATOM     25  C   UNL     1      -8.292  -6.913   0.000  0.00  0.00    +0.000 C 
ATOM     26  C   UNL     1      -8.897  -7.474   0.000  0.00  0.00    +0.000 C 
ATOM     27  C   UNL     1      -9.713  -7.351   0.000  0.00  0.00    +0.000 C 
ATOM     28  N   UNL     1     -10.125  -6.637   0.000  0.00  0.00    +0.000 NA
ATOM     29  C   UNL     1      -9.824  -5.869   0.000  0.00  0.00    +0.000 C 
ATOM     30  C   UNL     1      -9.035  -5.626   0.000  0.00  0.00    +0.000 C 
BRANCH  30  31
ATOM     31  N   UNL     1      -8.912  -4.810   0.000  0.00  0.00    +0.000 NA
ATOM     32  C   UNL     1      -9.557  -4.296   0.000  0.00  0.00    +0.000 C 
ATOM     33  O   UNL     1     -10.325  -4.597   0.000  0.00  0.00    +0.000 OA
BRANCH  32  34
ATOM     34  C   UNL     1      -9.434  -3.480   0.000  0.00  0.00    +0.000 A 
ATOM     35  C   UNL     1     -10.079  -2.965   0.000  0.00  0.00    +0.000 A 
ATOM     36  C   UNL     1      -9.957  -2.150   0.000  0.00  0.00    +0.000 A 
ATOM     37  C   UNL     1      -9.188  -1.848   0.000  0.00  0.00    +0.000 A 
ATOM     38  O   UNL     1      -9.066  -1.032   0.000  0.00  0.00    +0.000 OA
ATOM     39  C   UNL     1      -8.543  -2.363   0.000  0.00  0.00    +0.000 A 
ATOM     40  C   UNL     1      -8.666  -3.178   0.000  0.00  0.00    +0.000 A 
ENDBRANCH  32  34
ENDBRANCH  30  31
ENDBRANCH  23  24
ENDBRANCH  21  23
ENDBRANCH   5  21
TORSDOF 8
