REMARK  Name = 
REMARK  8 active torsions:
REMARK  status: ('A' for Active; 'I' for Inactive)
REMARK    1  A    between atoms: N_6  and  CA_10
REMARK    2  A    between atoms: CB_9  and  CA_10
REMARK    3  A    between atoms: CB_9  and  CG_11
REMARK    4  A    between atoms: CA_10  and  C_20
REMARK    5  A    between atoms: C_14  and  C_15
REMARK    6  A    between atoms: C_14  and  C_17
REMARK    7  A    between atoms: C_15  and  CA_18
REMARK    8  A    between atoms: CA_18  and  C_24
REMARK                            x       y       z     vdW  Elec       q    Type
REMARK                         _______ _______ _______ _____ _____    ______ ____
ROOT
ATOM      1  CA  UNL     1       4.923  -0.512   0.000  0.00  0.00    +0.000 C 
ENDROOT
BRANCH   1   4
ATOM      2  O   UNL     1       6.281  -0.956   0.000  0.00  0.00    +0.000 OA
ATOM      3  OXT UNL     1       5.218  -1.911   0.000  0.00  0.00    +0.000 OA
ATOM      4  C   UNL     1       5.474  -1.126   0.000  0.00  0.00    +0.000 C 
ENDBRANCH   1   4
BRANCH   1   6
ATOM      5  O   UNL     1       6.538  -0.172   0.000  0.00  0.00    +0.000 OA
ATOM      6  N   UNL     1       5.179   0.272   0.000  0.00  0.00    +0.000 NA
ATOM      7  C   UNL     1       5.987   0.442   0.000  0.00  0.00    +0.000 C 
BRANCH   7   8
ATOM      8  C   UNL     1       6.243   1.226   0.000  0.00  0.00    +0.000 C 
BRANCH   8   9
ATOM      9  C   UNL     1       7.050   1.396   0.000  0.00  0.00    +0.000 C 
BRANCH   9  11
ATOM     10  N   UNL     1       6.756   2.795   0.000  0.00  0.00    +0.000 NA
ATOM     11  CA  UNL     1       7.307   2.180   0.000  0.00  0.00    +0.000 C 
BRANCH  11  14
ATOM     12  O   UNL     1       8.370   3.135   0.000  0.00  0.00    +0.000 OA
ATOM     13  OXT UNL     1       8.665   1.737   0.000  0.00  0.00    +0.000 OA
ATOM     14  C   UNL     1       8.114   2.351   0.000  0.00  0.00    +0.000 C 
ENDBRANCH  11  14
ENDBRANCH   9  11
ENDBRANCH   8   9
ENDBRANCH   7   8
ENDBRANCH   1   6
BRANCH   1  15
ATOM     15  CB  UNL     1       4.116  -0.682   0.000  0.00  0.00    +0.000 C 
BRANCH  15  17
ATOM     16  NE1 UNL     1       3.860  -2.795   0.000  0.00  0.00    +0.000 NA
ATOM     17  CG  UNL     1       3.860  -1.467   0.000  0.00  0.00    +0.000 A 
ATOM     18  CD2 UNL     1       3.079  -1.718   0.000  0.00  0.00    +0.000 A 
ATOM     19  CE2 UNL     1       3.079  -2.543   0.000  0.00  0.00    +0.000 A 
ATOM     20  CD1 UNL     1       4.341  -2.131   0.000  0.00  0.00    +0.000 A 
ATOM     21  CE3 UNL     1       2.365  -1.306   0.000  0.00  0.00    +0.000 A 
ATOM     22  CZ2 UNL     1       2.365  -2.956   0.000  0.00  0.00    +0.000 A 
ATOM     23  CZ3 UNL     1       1.650  -1.718   0.000  0.00  0.00    +0.000 A 
ATOM     24  CH2 UNL     1       1.650  -2.543   0.000  0.00  0.00    +0.000 A 
ENDBRANCH  15  17
ENDBRANCH   1  15
TORSDOF 8
