REMARK  Name = 
REMARK  4 active torsions:
REMARK  status: ('A' for Active; 'I' for Inactive)
REMARK    1  A    between atoms: C_13  and  C_15
REMARK    2  A    between atoms: C_14  and  C_16
REMARK    3  A    between atoms: C_17  and  N_21
REMARK    4  A    between atoms: C_18  and  N_22
REMARK                            x       y       z     vdW  Elec       q    Type
REMARK                         _______ _______ _______ _____ _____    ______ ____
ROOT
ATOM      1  C   UNL     1      -2.473   0.317   0.000  0.00  0.00    +0.000 A 
ATOM      2  C   UNL     1      -2.473  -0.508   0.000  0.00  0.00    +0.000 A 
ATOM      3  C   UNL     1      -1.759   0.730   0.000  0.00  0.00    +0.000 A 
ATOM      4  C   UNL     1      -1.759  -0.920   0.000  0.00  0.00    +0.000 A 
ATOM      5  C   UNL     1      -1.044   0.317   0.000  0.00  0.00    +0.000 A 
ATOM      6  C   UNL     1      -1.044  -0.508   0.000  0.00  0.00    +0.000 A 
ENDROOT
BRANCH   5   8
ATOM      7  C   UNL     1      -0.330   1.555   0.000  0.00  0.00    +0.000 C 
ATOM      8  N   UNL     1      -0.330   0.730   0.000  0.00  0.00    +0.000 NA
BRANCH   7  13
ATOM      9  C   UNL     1       1.814   1.967   0.000  0.00  0.00    +0.000 A 
ATOM     10  C   UNL     1       1.814   2.792   0.000  0.00  0.00    +0.000 A 
ATOM     11  C   UNL     1       1.099   1.555   0.000  0.00  0.00    +0.000 A 
ATOM     12  C   UNL     1       1.099   3.205   0.000  0.00  0.00    +0.000 A 
ATOM     13  C   UNL     1       0.385   1.967   0.000  0.00  0.00    +0.000 A 
ATOM     14  C   UNL     1       0.385   2.792   0.000  0.00  0.00    +0.000 A 
ATOM     15  O   UNL     1      -0.330   3.205   0.000  0.00  0.00    +0.000 OA
ENDBRANCH   7  13
ENDBRANCH   5   8
BRANCH   6  17
ATOM     16  C   UNL     1      -0.330  -1.745   0.000  0.00  0.00    +0.000 C 
ATOM     17  N   UNL     1      -0.330  -0.920   0.000  0.00  0.00    +0.000 NA
BRANCH  16  22
ATOM     18  C   UNL     1       1.099  -3.395   0.000  0.00  0.00    +0.000 A 
ATOM     19  C   UNL     1       1.814  -2.983   0.000  0.00  0.00    +0.000 A 
ATOM     20  C   UNL     1       0.385  -2.983   0.000  0.00  0.00    +0.000 A 
ATOM     21  C   UNL     1       1.814  -2.158   0.000  0.00  0.00    +0.000 A 
ATOM     22  C   UNL     1       0.385  -2.158   0.000  0.00  0.00    +0.000 A 
ATOM     23  C   UNL     1       1.099  -1.745   0.000  0.00  0.00    +0.000 A 
ATOM     24  O   UNL     1       1.099  -0.920   0.000  0.00  0.00    +0.000 OA
ENDBRANCH  16  22
ENDBRANCH   6  17
TORSDOF 4
REMARK  Name = 
REMARK  4 active torsions:
REMARK  status: ('A' for Active; 'I' for Inactive)
REMARK    1  A    between atoms: C_13  and  C_15
REMARK    2  A    between atoms: C_14  and  C_16
REMARK    3  A    between atoms: C_17  and  N_21
REMARK    4  A    between atoms: C_18  and  N_22
REMARK                            x       y       z     vdW  Elec       q    Type
REMARK                         _______ _______ _______ _____ _____    ______ ____
ROOT
ATOM      1 FE   UNL     1       4.171   0.000   0.000  0.00  0.00    +0.000 Fe
ENDROOT
TORSDOF 0
