REMARK  Name = 
REMARK  10 active torsions:
REMARK  status: ('A' for Active; 'I' for Inactive)
REMARK    1  A    between atoms: C_2  and  C_3
REMARK    2  A    between atoms: C_2  and  C_20
REMARK    3  A    between atoms: C_3  and  C_4
REMARK    4  A    between atoms: C_4  and  C_5
REMARK    5  A    between atoms: N_7  and  C_8
REMARK    6  A    between atoms: C_8  and  C_9
REMARK    7  A    between atoms: C_8  and  C_13
REMARK    8  A    between atoms: C_9  and  S_10
REMARK    9  A    between atoms: N_15  and  CA_16
REMARK   10  A    between atoms: CA_16  and  C_17
REMARK                            x       y       z     vdW  Elec       q    Type
REMARK                         _______ _______ _______ _____ _____    ______ ____
ROOT
ATOM      1  C   UNK A   1       9.045   3.572   0.000  0.00  0.00    +0.000 C 
ENDROOT
BRANCH   1   2
ATOM      2  C   UNK A   1       8.331   3.985   0.000  0.00  0.00    +0.000 C 
ATOM      3  O   UNK A   1       8.331   4.810   0.000  0.00  0.00    +0.000 OA
ATOM      4  N   GLY A   2       7.616   3.572   0.000  0.00  0.00    +0.000 NA
BRANCH   4   5
ATOM      5  CA  GLY A   2       6.902   3.985   0.000  0.00  0.00    +0.000 C 
BRANCH   5   6
ATOM      6  C   GLY A   2       6.188   3.572   0.000  0.00  0.00    +0.000 C 
ATOM      7  O   GLY A   2       5.473   3.985   0.000  0.00  0.00    +0.000 OA
ATOM      8  OXT GLY A   2       6.188   2.747   0.000  0.00  0.00    +0.000 OA
ENDBRANCH   5   6
ENDBRANCH   4   5
ENDBRANCH   1   2
BRANCH   1  11
ATOM      9  C   UNK A   1      10.474   3.572   0.000  0.00  0.00    +0.000 C 
ATOM     10  O   UNK A   1      10.474   2.747   0.000  0.00  0.00    +0.000 OA
ATOM     11  N   UNK A   1       9.760   3.985   0.000  0.00  0.00    +0.000 NA
BRANCH   9  12
ATOM     12  C   UNK A   1      11.189   3.985   0.000  0.00  0.00    +0.000 C 
BRANCH  12  13
ATOM     13  C   UNK A   1      11.903   3.572   0.000  0.00  0.00    +0.000 C 
BRANCH  13  15
ATOM     14  N   UNK A   1      12.618   4.810   0.000  0.00  0.00    +0.000 NA
ATOM     15  C   UNK A   1      12.618   3.985   0.000  0.00  0.00    +0.000 C 
BRANCH  15  16
ATOM     16  C   UNK A   1      13.332   3.572   0.000  0.00  0.00    +0.000 C 
ATOM     17  O   UNK A   1      14.047   3.985   0.000  0.00  0.00    +0.000 OA
ATOM     18  O   UNK A   1      13.332   2.747   0.000  0.00  0.00    +0.000 OA
ENDBRANCH  15  16
ENDBRANCH  13  15
ENDBRANCH  12  13
ENDBRANCH   9  12
ENDBRANCH   1  11
BRANCH   1  19
ATOM     19  C   UNK A   1       9.045   2.747   0.000  0.00  0.00    +0.000 C 
BRANCH  19  20
ATOM     20  S   UNK A   1       8.331   2.335   0.000  0.00  0.00    +0.000 S 
ATOM     21  O   UNK A   1       7.616   2.747   0.000  0.00  0.00    +0.000 OA
ATOM     22  O   UNK A   1       8.331   1.510   0.000  0.00  0.00    +0.000 OA
ENDBRANCH  19  20
ENDBRANCH   1  19
TORSDOF 10
