REMARK  Name = 
REMARK  3 active torsions:
REMARK  status: ('A' for Active; 'I' for Inactive)
REMARK    1  A    between atoms: C_2  and  C_4
REMARK    2  A    between atoms: C_4  and  C_5
REMARK    3  A    between atoms: C_5  and  C_6
REMARK                            x       y       z     vdW  Elec       q    Type
REMARK                         _______ _______ _______ _____ _____    ______ ____
ROOT
ATOM      1  C   UNL     1       1.238   0.715   0.000  0.00  0.00    +0.000 C 
ENDROOT
BRANCH   1   3
ATOM      2  C   UNL     1      -0.191   0.715   0.000  0.00  0.00    +0.000 C 
ATOM      3  C   UNL     1       0.523   1.127   0.000  0.00  0.00    +0.000 C 
ATOM      4  O   UNL     1       0.523   1.952   0.000  0.00  0.00    +0.000 OA
ENDBRANCH   1   3
BRANCH   1   5
ATOM      5  C   UNL     1       1.952   1.127   0.000  0.00  0.00    +0.000 C 
BRANCH   5   6
ATOM      6  C   UNL     1       2.666   0.715   0.000  0.00  0.00    +0.000 C 
ATOM      7  O   UNL     1       3.381   1.127   0.000  0.00  0.00    +0.000 OA
ATOM      8  O   UNL     1       2.666  -0.111   0.000  0.00  0.00    +0.000 OA
ENDBRANCH   5   6
ENDBRANCH   1   5
TORSDOF 3
