REMARK  Name = 
REMARK  6 active torsions:
REMARK  status: ('A' for Active; 'I' for Inactive)
REMARK    1  A    between atoms: C_1  and  C_2
REMARK    2  A    between atoms: C_1  and  B_6
REMARK    3  A    between atoms: C_2  and  S_13
REMARK    4  A    between atoms: C_3  and  C_4
REMARK    5  A    between atoms: C_3  and  S_13
REMARK    6  A    between atoms: C_4  and  C_5
REMARK                            x       y       z     vdW  Elec       q    Type
REMARK                         _______ _______ _______ _____ _____    ______ ____
ROOT
ATOM      1  S   UNK     1       2.666   0.715   0.000  0.00  0.00    +0.000 S 
ENDROOT
BRANCH   1   2
ATOM      2  C   UNK     1       1.952   1.127   0.000  0.00  0.00    +0.000 C 
BRANCH   2   3
ATOM      3  C   UNK     1       1.238   0.715   0.000  0.00  0.00    +0.000 C 
ATOM      4  N   UNK     1       1.238  -0.111   0.000  0.00  0.00    +0.000 NA
BRANCH   3   5
ATOM      5  C   UNK     1       0.523   1.127   0.000  0.00  0.00    +0.000 C 
ATOM      6  O   UNK     1      -0.191   0.715   0.000  0.00  0.00    +0.000 OA
ATOM      7  O   UNK     1       0.523   1.952   0.000  0.00  0.00    +0.000 OA
ENDBRANCH   3   5
ENDBRANCH   2   3
ENDBRANCH   1   2
BRANCH   1   8
ATOM      8  C   UNK     1       3.381   1.127   0.000  0.00  0.00    +0.000 C 
BRANCH   8   9
ATOM      9  C   UNK     1       4.095   0.715   0.000  0.00  0.00    +0.000 C 
BRANCH   9  10
ATOM     10  B   UNK     1       4.810   1.127   0.000  0.00  0.00    +0.000 B 
ATOM     11  O   UNK     1       5.524   1.540   0.000  0.00  0.00    +0.000 OA
ATOM     12  O   UNK     1       5.222   0.412   0.000  0.00  0.00    +0.000 OA
ATOM     13  O   UNK     1       4.397   1.841   0.000  0.00  0.00    +0.000 OA
ENDBRANCH   9  10
ENDBRANCH   8   9
ENDBRANCH   1   8
TORSDOF 6
