REMARK  Name = 
REMARK  4 active torsions:
REMARK  status: ('A' for Active; 'I' for Inactive)
REMARK    1  A    between atoms: CA_2  and  C_3
REMARK    2  A    between atoms: CA_2  and  C_13
REMARK    3  A    between atoms: C_3  and  N_4
REMARK    4  A    between atoms: C_5  and  C_7
REMARK                            x       y       z     vdW  Elec       q    Type
REMARK                         _______ _______ _______ _____ _____    ______ ____
ROOT
ATOM      1  N   UNL     1       0.000   0.000   0.000  0.00  0.00    +0.000 NA
ATOM      2  C   UNL     1      -0.715  -0.412   0.000  0.00  0.00    +0.000 C 
ATOM      3  O   UNL     1      -0.715  -1.238   0.000  0.00  0.00    +0.000 OA
ENDROOT
BRANCH   2   4
ATOM      4  C   UNL     1      -1.429   0.000   0.000  0.00  0.00    +0.000 A 
ATOM      5  C   UNL     1      -2.143  -0.412   0.000  0.00  0.00    +0.000 A 
ATOM      6  C   UNL     1      -2.858   0.000   0.000  0.00  0.00    +0.000 A 
ATOM      7  C   UNL     1      -2.858   0.825   0.000  0.00  0.00    +0.000 A 
ATOM      8  C   UNL     1      -2.143   1.238   0.000  0.00  0.00    +0.000 A 
ATOM      9  C   UNL     1      -1.429   0.825   0.000  0.00  0.00    +0.000 A 
ENDBRANCH   2   4
BRANCH   1  10
ATOM     10  C   UNL     1       0.715  -0.412   0.000  0.00  0.00    +0.000 C 
BRANCH  10  12
ATOM     11  N   UNL     1       1.429   0.825   0.000  0.00  0.00    +0.000 NA
ATOM     12  CA  UNL     1       1.429   0.000   0.000  0.00  0.00    +0.000 C 
BRANCH  12  13
ATOM     13  C   UNL     1       2.143  -0.412   0.000  0.00  0.00    +0.000 C 
ATOM     14  O   UNL     1       2.858   0.000   0.000  0.00  0.00    +0.000 OA
ATOM     15  OXT UNL     1       2.143  -1.238   0.000  0.00  0.00    +0.000 OA
ENDBRANCH  12  13
ENDBRANCH  10  12
ENDBRANCH   1  10
TORSDOF 4
