REMARK  Name = 
REMARK  42 active torsions:
REMARK  status: ('A' for Active; 'I' for Inactive)
REMARK    1  A    between atoms: C_2  and  C_3
REMARK    2  A    between atoms: C_3  and  C_4
REMARK    3  A    between atoms: C_4  and  C_5
REMARK    4  A    between atoms: C_5  and  C_6
REMARK    5  A    between atoms: C_6  and  C_7
REMARK    6  A    between atoms: C_7  and  C_8
REMARK    7  A    between atoms: C_8  and  C_9
REMARK    8  A    between atoms: C_10  and  C_11
REMARK    9  A    between atoms: C_11  and  C_12
REMARK   10  A    between atoms: C_12  and  C_13
REMARK   11  A    between atoms: C_13  and  C_14
REMARK   12  A    between atoms: C_14  and  C_15
REMARK   13  A    between atoms: C_15  and  C_16
REMARK   14  A    between atoms: C_16  and  C_17
REMARK   15  A    between atoms: C_17  and  C_18
REMARK   16  A    between atoms: C_18  and  O_20
REMARK   17  A    between atoms: O_20  and  C_21
REMARK   18  A    between atoms: C_21  and  C_22
REMARK   19  A    between atoms: C_22  and  C_23
REMARK   20  A    between atoms: C_22  and  O_35
REMARK   21  A    between atoms: C_23  and  O_24
REMARK   22  A    between atoms: O_24  and  P_25
REMARK   23  A    between atoms: P_25  and  O_28
REMARK   24  A    between atoms: O_28  and  C_29
REMARK   25  A    between atoms: C_29  and  C_30
REMARK   26  A    between atoms: C_30  and  N_31
REMARK   27  A    between atoms: O_35  and  C_36
REMARK   28  A    between atoms: C_36  and  C_38
REMARK   29  A    between atoms: C_38  and  C_39
REMARK   30  A    between atoms: C_39  and  C_40
REMARK   31  A    between atoms: C_40  and  C_41
REMARK   32  A    between atoms: C_41  and  C_42
REMARK   33  A    between atoms: C_42  and  C_43
REMARK   34  A    between atoms: C_43  and  C_44
REMARK   35  A    between atoms: C_44  and  C_45
REMARK   36  A    between atoms: C_46  and  C_47
REMARK   37  A    between atoms: C_47  and  C_48
REMARK   38  A    between atoms: C_48  and  C_49
REMARK   39  A    between atoms: C_49  and  C_50
REMARK   40  A    between atoms: C_50  and  C_51
REMARK   41  A    between atoms: C_51  and  C_52
REMARK   42  A    between atoms: C_52  and  C_53
REMARK                            x       y       z     vdW  Elec       q    Type
REMARK                         _______ _______ _______ _____ _____    ______ ____
ROOT
ATOM      1  C   UNL     1      17.568  -6.843   0.000  0.00  0.00    +0.000 C 
ENDROOT
BRANCH   1   2
ATOM      2  C   UNL     1      16.853  -6.430   0.000  0.00  0.00    +0.000 C 
BRANCH   2   3
ATOM      3  O   UNL     1      16.139  -6.843   0.000  0.00  0.00    +0.000 OA
BRANCH   3   4
ATOM      4  C   UNL     1      15.424  -6.430   0.000  0.00  0.00    +0.000 C 
ATOM      5  O   UNL     1      15.424  -5.605   0.000  0.00  0.00    +0.000 OA
BRANCH   4   6
ATOM      6  C   UNL     1      14.710  -6.843   0.000  0.00  0.00    +0.000 C 
BRANCH   6   7
ATOM      7  C   UNL     1      13.995  -6.430   0.000  0.00  0.00    +0.000 C 
BRANCH   7   8
ATOM      8  C   UNL     1      13.281  -6.843   0.000  0.00  0.00    +0.000 C 
BRANCH   8   9
ATOM      9  C   UNL     1      12.566  -6.430   0.000  0.00  0.00    +0.000 C 
BRANCH   9  10
ATOM     10  C   UNL     1      11.852  -6.843   0.000  0.00  0.00    +0.000 C 
BRANCH  10  11
ATOM     11  C   UNL     1      11.137  -6.430   0.000  0.00  0.00    +0.000 C 
BRANCH  11  12
ATOM     12  C   UNL     1      10.423  -6.843   0.000  0.00  0.00    +0.000 C 
BRANCH  12  14
ATOM     13  C   UNL     1       9.709  -8.080   0.000  0.00  0.00    +0.000 C 
ATOM     14  C   UNL     1      10.423  -7.668   0.000  0.00  0.00    +0.000 C 
BRANCH  13  15
ATOM     15  C   UNL     1       8.994  -7.668   0.000  0.00  0.00    +0.000 C 
BRANCH  15  16
ATOM     16  C   UNL     1       8.280  -8.080   0.000  0.00  0.00    +0.000 C 
BRANCH  16  17
ATOM     17  C   UNL     1       7.565  -7.668   0.000  0.00  0.00    +0.000 C 
BRANCH  17  18
ATOM     18  C   UNL     1       6.851  -8.080   0.000  0.00  0.00    +0.000 C 
BRANCH  18  19
ATOM     19  C   UNL     1       6.136  -7.668   0.000  0.00  0.00    +0.000 C 
BRANCH  19  20
ATOM     20  C   UNL     1       5.422  -8.080   0.000  0.00  0.00    +0.000 C 
BRANCH  20  22
ATOM     21  C   UNL     1       3.993  -8.080   0.000  0.00  0.00    +0.000 C 
ATOM     22  C   UNL     1       4.707  -7.668   0.000  0.00  0.00    +0.000 C 
ENDBRANCH  20  22
ENDBRANCH  19  20
ENDBRANCH  18  19
ENDBRANCH  17  18
ENDBRANCH  16  17
ENDBRANCH  15  16
ENDBRANCH  13  15
ENDBRANCH  12  14
ENDBRANCH  11  12
ENDBRANCH  10  11
ENDBRANCH   9  10
ENDBRANCH   8   9
ENDBRANCH   7   8
ENDBRANCH   6   7
ENDBRANCH   4   6
ENDBRANCH   3   4
ENDBRANCH   2   3
ENDBRANCH   1   2
BRANCH   1  23
ATOM     23  C   UNL     1      17.568  -7.668   0.000  0.00  0.00    +0.000 C 
BRANCH  23  24
ATOM     24  O   UNL     1      18.282  -8.080   0.000  0.00  0.00    +0.000 OA
BRANCH  24  25
ATOM     25  P   UNL     1      18.282  -8.905   0.000  0.00  0.00    +0.000 P 
ATOM     26  O   UNL     1      19.107  -8.905   0.000  0.00  0.00    +0.000 OA
ATOM     27  O   UNL     1      17.457  -8.905   0.000  0.00  0.00    +0.000 OA
BRANCH  25  28
ATOM     28  O   UNL     1      18.282  -9.730   0.000  0.00  0.00    +0.000 OA
BRANCH  28  29
ATOM     29  C   UNL     1      17.568 -10.143   0.000  0.00  0.00    +0.000 C 
BRANCH  29  30
ATOM     30  C   UNL     1      17.568 -10.968   0.000  0.00  0.00    +0.000 C 
BRANCH  30  31
ATOM     31  N   UNL     1      16.853 -11.380   0.000  0.00  0.00    +0.000 N 
ATOM     32  C   UNL     1      16.441 -10.666   0.000  0.00  0.00    +0.000 C 
ATOM     33  C   UNL     1      17.266 -12.095   0.000  0.00  0.00    +0.000 C 
ATOM     34  C   UNL     1      16.139 -11.793   0.000  0.00  0.00    +0.000 C 
ENDBRANCH  30  31
ENDBRANCH  29  30
ENDBRANCH  28  29
ENDBRANCH  25  28
ENDBRANCH  24  25
ENDBRANCH  23  24
ENDBRANCH   1  23
BRANCH   1  35
ATOM     35  O   UNL     1      18.282  -6.430   0.000  0.00  0.00    +0.000 OA
BRANCH  35  36
ATOM     36  C   UNL     1      18.997  -6.843   0.000  0.00  0.00    +0.000 C 
ATOM     37  O   UNL     1      18.997  -7.668   0.000  0.00  0.00    +0.000 OA
BRANCH  36  38
ATOM     38  C   UNL     1      19.711  -6.430   0.000  0.00  0.00    +0.000 C 
BRANCH  38  39
ATOM     39  C   UNL     1      20.426  -6.843   0.000  0.00  0.00    +0.000 C 
BRANCH  39  40
ATOM     40  C   UNL     1      21.140  -6.430   0.000  0.00  0.00    +0.000 C 
BRANCH  40  41
ATOM     41  C   UNL     1      21.855  -6.843   0.000  0.00  0.00    +0.000 C 
BRANCH  41  42
ATOM     42  C   UNL     1      22.569  -6.430   0.000  0.00  0.00    +0.000 C 
BRANCH  42  43
ATOM     43  C   UNL     1      23.284  -6.843   0.000  0.00  0.00    +0.000 C 
BRANCH  43  44
ATOM     44  C   UNL     1      23.998  -6.430   0.000  0.00  0.00    +0.000 C 
BRANCH  44  45
ATOM     45  C   UNL     1      24.712  -6.843   0.000  0.00  0.00    +0.000 C 
ATOM     46  C   UNL     1      25.427  -6.430   0.000  0.00  0.00    +0.000 C 
BRANCH  46  47
ATOM     47  C   UNL     1      25.427  -5.605   0.000  0.00  0.00    +0.000 C 
BRANCH  47  48
ATOM     48  C   UNL     1      26.141  -5.193   0.000  0.00  0.00    +0.000 C 
BRANCH  48  49
ATOM     49  C   UNL     1      26.856  -5.605   0.000  0.00  0.00    +0.000 C 
BRANCH  49  50
ATOM     50  C   UNL     1      27.570  -5.193   0.000  0.00  0.00    +0.000 C 
BRANCH  50  51
ATOM     51  C   UNL     1      28.285  -5.605   0.000  0.00  0.00    +0.000 C 
BRANCH  51  52
ATOM     52  C   UNL     1      28.999  -5.193   0.000  0.00  0.00    +0.000 C 
BRANCH  52  53
ATOM     53  C   UNL     1      29.714  -5.605   0.000  0.00  0.00    +0.000 C 
ATOM     54  C   UNL     1      30.428  -5.193   0.000  0.00  0.00    +0.000 C 
ENDBRANCH  52  53
ENDBRANCH  51  52
ENDBRANCH  50  51
ENDBRANCH  49  50
ENDBRANCH  48  49
ENDBRANCH  47  48
ENDBRANCH  46  47
ENDBRANCH  44  45
ENDBRANCH  43  44
ENDBRANCH  42  43
ENDBRANCH  41  42
ENDBRANCH  40  41
ENDBRANCH  39  40
ENDBRANCH  38  39
ENDBRANCH  36  38
ENDBRANCH  35  36
ENDBRANCH   1  35
TORSDOF 42
