REMARK  Name = 
REMARK  3 active torsions:
REMARK  status: ('A' for Active; 'I' for Inactive)
REMARK    1  A    between atoms: C_2  and  C_4
REMARK    2  A    between atoms: C_4  and  C_5
REMARK    3  A    between atoms: C_5  and  C_6
REMARK                            x       y       z     vdW  Elec       q    Type
REMARK                         _______ _______ _______ _____ _____    ______ ____
ROOT
ATOM      1  C   UNL     1       3.095  -1.921   0.000  0.00  0.00    +0.000 C 
ATOM      2  C   UNL     1       3.095  -1.096   0.000  0.00  0.00    +0.000 C 
ATOM      3  O   UNL     1       2.380  -0.683   0.000  0.00  0.00    +0.000 OA
ATOM      4  N   UNL     1       3.809  -0.683   0.000  0.00  0.00    +0.000 NA
ATOM      5  C   UNL     1       4.523  -1.096   0.000  0.00  0.00    +0.000 C 
ATOM      6  O   UNL     1       5.238  -0.683   0.000  0.00  0.00    +0.000 OA
ATOM      7  N   UNL     1       4.523  -1.921   0.000  0.00  0.00    +0.000 NA
ATOM      8  C   UNL     1       3.809  -2.333   0.000  0.00  0.00    +0.000 C 
ATOM      9  O   UNL     1       3.809  -3.158   0.000  0.00  0.00    +0.000 OA
ENDROOT
BRANCH   1  11
ATOM     10  C   UNL     1       1.857  -2.635   0.000  0.00  0.00    +0.000 C 
ATOM     11  C   UNL     1       2.269  -1.921   0.000  0.00  0.00    +0.000 C 
ATOM     12  C   UNL     1       1.857  -1.206   0.000  0.00  0.00    +0.000 C 
ENDBRANCH   1  11
BRANCH   1  13
ATOM     13  C   UNL     1       2.682  -2.635   0.000  0.00  0.00    +0.000 C 
BRANCH  13  14
ATOM     14  C   UNL     1       3.095  -3.350   0.000  0.00  0.00    +0.000 C 
ATOM     15  C   UNL     1       2.682  -4.064   0.000  0.00  0.00    +0.000 C 
ENDBRANCH  13  14
ENDBRANCH   1  13
TORSDOF 3
