REMARK  Name = 
REMARK  9 active torsions:
REMARK  status: ('A' for Active; 'I' for Inactive)
REMARK    1  A    between atoms: C_1  and  N_2
REMARK    2  A    between atoms: C_7  and  C_13
REMARK    3  A    between atoms: C_13  and  O_16
REMARK    4  A    between atoms: O_16  and  P_18
REMARK    5  A    between atoms: P_18  and  O_19
REMARK    6  A    between atoms: O_19  and  P_22
REMARK    7  A    between atoms: P_22  and  O_23
REMARK    8  A    between atoms: O_23  and  C_26
REMARK    9  A    between atoms: C_29  and  C_33
REMARK                            x       y       z     vdW  Elec       q    Type
REMARK                         _______ _______ _______ _____ _____    ______ ____
ROOT
ATOM      1  P   UNL     1      13.737  -9.608   0.000  0.00  0.00    +0.000 P 
ATOM      2  O   UNL     1      13.733 -10.433   0.000  0.00  0.00    +0.000 OA
ATOM      3  O   UNL     1      13.733  -8.783   0.000  0.00  0.00    +0.000 OA
ENDROOT
BRANCH   1   4
ATOM      4  O   UNL     1      14.562  -9.608   0.000  0.00  0.00    +0.000 OA
BRANCH   4   5
ATOM      5  C   UNL     1      15.148  -9.033   0.000  0.00  0.00    +0.000 C 
BRANCH   5   9
ATOM      6  C   UNL     1      17.252  -9.269   0.000  0.00  0.00    +0.000 C 
ATOM      7  O   UNL     1      16.611  -8.794   0.000  0.00  0.00    +0.000 OA
ATOM      8  C   UNL     1      17.009 -10.076   0.000  0.00  0.00    +0.000 C 
ATOM      9  C   UNL     1      15.935  -9.286   0.000  0.00  0.00    +0.000 C 
ATOM     10  C   UNL     1      16.184 -10.076   0.000  0.00  0.00    +0.000 C 
ATOM     11  O   UNL     1      17.495 -10.741   0.000  0.00  0.00    +0.000 OA
ATOM     12  O   UNL     1      15.692 -10.738   0.000  0.00  0.00    +0.000 OA
BRANCH   6  13
ATOM     13  N   UNL     1      18.212  -9.040   0.000  0.00  0.00    +0.000 N 
ATOM     14  C   UNL     1      18.931  -9.442   0.000  0.00  0.00    +0.000 A 
ATOM     15  C   UNL     1      18.205  -8.214   0.000  0.00  0.00    +0.000 A 
ATOM     16  N   UNL     1      19.651  -9.019   0.000  0.00  0.00    +0.000 NA
ATOM     17  O   UNL     1      18.945 -10.266   0.000  0.00  0.00    +0.000 OA
ATOM     18  C   UNL     1      18.913  -7.785   0.000  0.00  0.00    +0.000 A 
ATOM     19  C   UNL     1      19.640  -8.191   0.000  0.00  0.00    +0.000 A 
ATOM     20  O   UNL     1      20.355  -7.772   0.000  0.00  0.00    +0.000 OA
ENDBRANCH   6  13
ENDBRANCH   5   9
ENDBRANCH   4   5
ENDBRANCH   1   4
BRANCH   1  21
ATOM     21  O   UNL     1      12.912  -9.608   0.000  0.00  0.00    +0.000 OA
BRANCH  21  22
ATOM     22  P   UNL     1      12.090  -9.605   0.000  0.00  0.00    +0.000 P 
ATOM     23  O   UNL     1      12.084 -10.426   0.000  0.00  0.00    +0.000 OA
ATOM     24  O   UNL     1      12.084  -8.780   0.000  0.00  0.00    +0.000 OA
BRANCH  22  25
ATOM     25  O   UNL     1      11.262  -9.605   0.000  0.00  0.00    +0.000 OA
BRANCH  25  26
ATOM     26  C   UNL     1      10.548 -10.014   0.000  0.00  0.00    +0.000 C 
ATOM     27  O   UNL     1       9.837  -9.605   0.000  0.00  0.00    +0.000 OA
ATOM     28  C   UNL     1      10.548 -10.838   0.000  0.00  0.00    +0.000 C 
ATOM     29  C   UNL     1       9.123 -10.014   0.000  0.00  0.00    +0.000 C 
ATOM     30  C   UNL     1       9.837 -11.252   0.000  0.00  0.00    +0.000 C 
ATOM     31  O   UNL     1      11.262 -11.252   0.000  0.00  0.00    +0.000 OA
ATOM     32  C   UNL     1       9.123 -10.838   0.000  0.00  0.00    +0.000 C 
ATOM     33  O   UNL     1       9.837 -12.076   0.000  0.00  0.00    +0.000 OA
ATOM     34  O   UNL     1       8.409 -11.252   0.000  0.00  0.00    +0.000 OA
BRANCH  29  35
ATOM     35  C   UNL     1       8.409  -9.605   0.000  0.00  0.00    +0.000 C 
ATOM     36  O   UNL     1       7.699 -10.014   0.000  0.00  0.00    +0.000 OA
ENDBRANCH  29  35
ENDBRANCH  25  26
ENDBRANCH  22  25
ENDBRANCH  21  22
ENDBRANCH   1  21
TORSDOF 9
