REMARK  Name = 
REMARK  12 active torsions:
REMARK  status: ('A' for Active; 'I' for Inactive)
REMARK    1  A    between atoms: C_10  and  C_11
REMARK    2  A    between atoms: C_10  and  C_29
REMARK    3  A    between atoms: C_17  and  C_23
REMARK    4  A    between atoms: C_17  and  C_28
REMARK    5  A    between atoms: C_20  and  C_25
REMARK    6  A    between atoms: C_21  and  C_26
REMARK    7  A    between atoms: C_22  and  C_27
REMARK    8  A    between atoms: C_24  and  C_31
REMARK    9  A    between atoms: C_28  and  C_32
REMARK   10  A    between atoms: C_28  and  N_36
REMARK   11  A    between atoms: C_30  and  S_43
REMARK   12  A    between atoms: N_36  and  S_43
REMARK                            x       y       z     vdW  Elec       q    Type
REMARK                         _______ _______ _______ _____ _____    ______ ____
ROOT
ATOM      1  C   UNL     1       4.287   5.775   0.000  0.00  0.00    +0.000 C 
ENDROOT
BRANCH   1   7
ATOM      2  C   UNL     1       6.430   7.013   0.000  0.00  0.00    +0.000 C 
ATOM      3  C   UNL     1       7.145   5.775   0.000  0.00  0.00    +0.000 C 
ATOM      4  C   UNL     1       5.716   6.600   0.000  0.00  0.00    +0.000 C 
ATOM      5  C   UNL     1       6.430   5.362   0.000  0.00  0.00    +0.000 C 
ATOM      6  C   UNL     1       7.859   7.013   0.000  0.00  0.00    +0.000 C 
ATOM      7  C   UNL     1       5.001   5.362   0.000  0.00  0.00    +0.000 C 
ATOM      8  N   UNL     1       7.145   6.600   0.000  0.00  0.00    +0.000 N 
ATOM      9  N   UNL     1       5.716   5.775   0.000  0.00  0.00    +0.000 N 
ATOM     10  O   UNL     1       8.574   6.600   0.000  0.00  0.00    +0.000 OA
ATOM     11  O   UNL     1       5.001   4.537   0.000  0.00  0.00    +0.000 OA
BRANCH   6  12
ATOM     12  C   UNL     1       7.859   7.838   0.000  0.00  0.00    +0.000 C 
BRANCH  12  13
ATOM     13  C   UNL     1       8.574   8.250   0.000  0.00  0.00    +0.000 C 
ATOM     14  N   UNL     1       8.574   9.075   0.000  0.00  0.00    +0.000 NA
ENDBRANCH  12  13
ENDBRANCH   6  12
ENDBRANCH   1   7
BRANCH   1  15
ATOM     15  C   UNL     1       3.572   5.362   0.000  0.00  0.00    +0.000 C 
BRANCH  15  20
ATOM     16  C   UNL     1       2.858   3.300   0.000  0.00  0.00    +0.000 A 
ATOM     17  C   UNL     1       2.858   4.125   0.000  0.00  0.00    +0.000 A 
ATOM     18  C   UNL     1       3.572   2.888   0.000  0.00  0.00    +0.000 A 
ATOM     19  C   UNL     1       4.287   4.125   0.000  0.00  0.00    +0.000 A 
ATOM     20  C   UNL     1       3.572   4.537   0.000  0.00  0.00    +0.000 A 
ATOM     21  C   UNL     1       4.287   3.300   0.000  0.00  0.00    +0.000 A 
BRANCH  21  22
ATOM     22  C   UNL     1       5.001   2.888   0.000  0.00  0.00    +0.000 C 
ATOM     23  N   UNL     1       5.716   3.300   0.000  0.00  0.00    +0.000 NA
ATOM     24  N   UNL     1       5.001   2.062   0.000  0.00  0.00    +0.000 NA
ENDBRANCH  21  22
ENDBRANCH  15  20
ENDBRANCH   1  15
BRANCH   1  25
ATOM     25  N   UNL     1       4.287   6.600   0.000  0.00  0.00    +0.000 NA
BRANCH  25  28
ATOM     26  O   UNL     1       3.160   6.298   0.000  0.00  0.00    +0.000 OA
ATOM     27  O   UNL     1       3.985   7.727   0.000  0.00  0.00    +0.000 OA
ATOM     28  S   UNL     1       3.572   7.013   0.000  0.00  0.00    +0.000 S 
BRANCH  28  34
ATOM     29  C   UNL     1       2.143   8.662   0.000  0.00  0.00    +0.000 A 
ATOM     30  C   UNL     1       1.429   7.425   0.000  0.00  0.00    +0.000 A 
ATOM     31  C   UNL     1       1.429   8.250   0.000  0.00  0.00    +0.000 A 
ATOM     32  C   UNL     1       2.858   8.250   0.000  0.00  0.00    +0.000 A 
ATOM     33  C   UNL     1       2.143   7.013   0.000  0.00  0.00    +0.000 A 
ATOM     34  C   UNL     1       2.858   7.425   0.000  0.00  0.00    +0.000 A 
BRANCH  33  37
ATOM     35  C   UNL     1       2.858   5.775   0.000  0.00  0.00    +0.000 C 
ATOM     36  C   UNL     1       1.429   5.775   0.000  0.00  0.00    +0.000 C 
ATOM     37  C   UNL     1       2.143   6.188   0.000  0.00  0.00    +0.000 C 
ENDBRANCH  33  37
BRANCH  32  40
ATOM     38  C   UNL     1       4.287   8.250   0.000  0.00  0.00    +0.000 C 
ATOM     39  C   UNL     1       3.572   9.488   0.000  0.00  0.00    +0.000 C 
ATOM     40  C   UNL     1       3.572   8.662   0.000  0.00  0.00    +0.000 C 
ENDBRANCH  32  40
BRANCH  31  43
ATOM     41  C   UNL     1       0.000   8.250   0.000  0.00  0.00    +0.000 C 
ATOM     42  C   UNL     1       0.715   9.488   0.000  0.00  0.00    +0.000 C 
ATOM     43  C   UNL     1       0.715   8.662   0.000  0.00  0.00    +0.000 C 
ENDBRANCH  31  43
ENDBRANCH  28  34
ENDBRANCH  25  28
ENDBRANCH   1  25
TORSDOF 12
