REMARK  Name = 
REMARK  12 active torsions:
REMARK  status: ('A' for Active; 'I' for Inactive)
REMARK    1  A    between atoms: C_1  and  C_2
REMARK    2  A    between atoms: C_1  and  C_4
REMARK    3  A    between atoms: C_2  and  C_7
REMARK    4  A    between atoms: C_4  and  C_8
REMARK    5  A    between atoms: C_7  and  C_11
REMARK    6  A    between atoms: C_8  and  C_14
REMARK    7  A    between atoms: C_11  and  O_32
REMARK    8  A    between atoms: C_12  and  C_15
REMARK    9  A    between atoms: C_13  and  C_16
REMARK   10  A    between atoms: C_22  and  O_35
REMARK   11  A    between atoms: C_23  and  O_32
REMARK   12  A    between atoms: C_24  and  O_35
REMARK                            x       y       z     vdW  Elec       q    Type
REMARK                         _______ _______ _______ _____ _____    ______ ____
ROOT
ATOM      1  C   UNL     1      -0.715   3.712   0.000  0.00  0.00    +0.000 C 
ATOM      2  C   UNL     1      -1.429   2.475   0.000  0.00  0.00    +0.000 C 
ATOM      3  C   UNL     1      -0.715   2.062   0.000  0.00  0.00    +0.000 C 
ATOM      4  C   UNL     1      -1.429   3.300   0.000  0.00  0.00    +0.000 C 
ATOM      5  C   UNL     1       0.000   2.475   0.000  0.00  0.00    +0.000 C 
ATOM      6  O   UNL     1      -2.143   2.062   0.000  0.00  0.00    +0.000 OA
ATOM      7  O   UNL     1      -0.715   1.238   0.000  0.00  0.00    +0.000 OA
ATOM      8  O   UNL     1       0.000   3.300   0.000  0.00  0.00    +0.000 OA
ENDROOT
BRANCH   1   9
ATOM      9  C   UNL     1      -0.715   4.537   0.000  0.00  0.00    +0.000 C 
ATOM     10  O   UNL     1       0.000   4.950   0.000  0.00  0.00    +0.000 OA
ENDBRANCH   1   9
BRANCH   5  11
ATOM     11  O   UNL     1       0.715   2.062   0.000  0.00  0.00    +0.000 OA
BRANCH  11  12
ATOM     12  C   UNL     1       1.429   2.475   0.000  0.00  0.00    +0.000 C 
BRANCH  12  13
ATOM     13  C   UNL     1       2.143   2.062   0.000  0.00  0.00    +0.000 C 
BRANCH  13  14
ATOM     14  C   UNL     1       2.858   2.475   0.000  0.00  0.00    +0.000 C 
BRANCH  14  15
ATOM     15  C   UNL     1       3.572   2.062   0.000  0.00  0.00    +0.000 C 
BRANCH  15  16
ATOM     16  C   UNL     1       4.287   2.475   0.000  0.00  0.00    +0.000 C 
BRANCH  16  17
ATOM     17  C   UNL     1       5.001   2.062   0.000  0.00  0.00    +0.000 C 
BRANCH  17  23
ATOM     18  C   UNL     1       7.145   3.300   0.000  0.00  0.00    +0.000 C 
ATOM     19  C   UNL     1       6.430   3.712   0.000  0.00  0.00    +0.000 C 
ATOM     20  C   UNL     1       7.145   2.475   0.000  0.00  0.00    +0.000 C 
ATOM     21  C   UNL     1       5.716   3.300   0.000  0.00  0.00    +0.000 C 
ATOM     22  C   UNL     1       6.430   2.062   0.000  0.00  0.00    +0.000 C 
ATOM     23  C   UNL     1       5.716   2.475   0.000  0.00  0.00    +0.000 C 
ENDBRANCH  17  23
ENDBRANCH  16  17
ENDBRANCH  15  16
ENDBRANCH  14  15
ENDBRANCH  13  14
ENDBRANCH  12  13
ENDBRANCH  11  12
ENDBRANCH   5  11
BRANCH   4  24
ATOM     24  O   UNL     1      -2.143   3.712   0.000  0.00  0.00    +0.000 OA
BRANCH  24  29
ATOM     25  C   UNL     1      -3.572   2.062   0.000  0.00  0.00    +0.000 C 
ATOM     26  C   UNL     1      -4.287   2.475   0.000  0.00  0.00    +0.000 C 
ATOM     27  C   UNL     1      -4.287   3.300   0.000  0.00  0.00    +0.000 C 
ATOM     28  C   UNL     1      -3.572   3.712   0.000  0.00  0.00    +0.000 C 
ATOM     29  C   UNL     1      -2.858   3.300   0.000  0.00  0.00    +0.000 C 
ATOM     30  O   UNL     1      -5.001   2.062   0.000  0.00  0.00    +0.000 OA
ATOM     31  O   UNL     1      -5.001   3.712   0.000  0.00  0.00    +0.000 OA
ATOM     32  O   UNL     1      -3.572   4.537   0.000  0.00  0.00    +0.000 OA
ATOM     33  O   UNL     1      -2.858   2.475   0.000  0.00  0.00    +0.000 OA
BRANCH  25  34
ATOM     34  C   UNL     1      -3.572   1.238   0.000  0.00  0.00    +0.000 C 
ATOM     35  O   UNL     1      -4.287   0.825   0.000  0.00  0.00    +0.000 OA
ENDBRANCH  25  34
ENDBRANCH  24  29
ENDBRANCH   4  24
TORSDOF 12
