REMARK  Name = 
REMARK  4 active torsions:
REMARK  status: ('A' for Active; 'I' for Inactive)
REMARK    1  A    between atoms: CA_6  and  CB_7
REMARK    2  A    between atoms: CA_6  and  C_9
REMARK    3  A    between atoms: CB_7  and  CG_8
REMARK    4  A    between atoms: CG_8  and  CD_10
REMARK                            x       y       z     vdW  Elec       q    Type
REMARK                         _______ _______ _______ _____ _____    ______ ____
ROOT
ATOM      1  N   GLU A   1      28.424 -10.728   0.000  0.00  0.00    +0.000 NA
ATOM      2  CA  GLU A   1      29.138 -11.141   0.000  0.00  0.00    +0.000 C 
ENDROOT
BRANCH   2   5
ATOM      3  O   GLU A   1      30.567 -11.141   0.000  0.00  0.00    +0.000 OA
ATOM      4  OXT GLU A   1      29.852  -9.903   0.000  0.00  0.00    +0.000 OA
ATOM      5  C   GLU A   1      29.852 -10.728   0.000  0.00  0.00    +0.000 C 
ENDBRANCH   2   5
BRANCH   2   6
ATOM      6  CB  GLU A   1      29.138 -11.966   0.000  0.00  0.00    +0.000 C 
BRANCH   6   7
ATOM      7  CG  GLU A   1      28.424 -12.378   0.000  0.00  0.00    +0.000 C 
BRANCH   7  10
ATOM      8  OE1 GLU A   1      27.709 -13.616   0.000  0.00  0.00    +0.000 OA
ATOM      9  OE2 GLU A   1      29.138 -13.616   0.000  0.00  0.00    +0.000 OA
ATOM     10  CD  GLU A   1      28.424 -13.203   0.000  0.00  0.00    +0.000 C 
ENDBRANCH   7  10
ENDBRANCH   6   7
ENDBRANCH   2   6
TORSDOF 4
