REMARK  Name = 
REMARK  2 active torsions:
REMARK  status: ('A' for Active; 'I' for Inactive)
REMARK    1  A    between atoms: C_9  and  O_16
REMARK    2  A    between atoms: C_10  and  O_17
REMARK                            x       y       z     vdW  Elec       q    Type
REMARK                         _______ _______ _______ _____ _____    ______ ____
ROOT
ATOM      1  C   UNL     1       2.040  -1.821   0.000  0.00  0.00    +0.000 C 
ATOM      2  C   UNL     1       2.751   3.115   0.000  0.00  0.00    +0.000 C 
ATOM      3  C   UNL     1       0.884  -0.982   0.000  0.00  0.00    +0.000 A 
ATOM      4  C   UNL     1       3.419   1.805   0.000  0.00  0.00    +0.000 A 
ATOM      5  C   UNL     1       1.704  -1.068   0.000  0.00  0.00    +0.000 A 
ATOM      6  C   UNL     1       2.751   2.290   0.000  0.00  0.00    +0.000 A 
ATOM      7  C   UNL     1       0.548  -0.228   0.000  0.00  0.00    +0.000 A 
ATOM      8  C   UNL     1       3.164   1.021   0.000  0.00  0.00    +0.000 A 
ATOM      9  C   UNL     1       1.854   0.353   0.000  0.00  0.00    +0.000 A 
ATOM     10  N   UNL     1       2.189  -0.400   0.000  0.00  0.00    +0.000 NA
ATOM     11  N   UNL     1       1.033   0.439   0.000  0.00  0.00    +0.000 NA
ATOM     12  N   UNL     1       2.084   1.805   0.000  0.00  0.00    +0.000 NA
ATOM     13  N   UNL     1       2.339   1.021   0.000  0.00  0.00    +0.000 N 
ENDROOT
BRANCH   7  15
ATOM     14  C   UNL     1      -0.757  -0.809   0.000  0.00  0.00    +0.000 C 
ATOM     15  O   UNL     1      -0.272  -0.142   0.000  0.00  0.00    +0.000 OA
ENDBRANCH   7  15
BRANCH   8  17
ATOM     16  C   UNL     1       3.313  -0.400   0.000  0.00  0.00    +0.000 C 
ATOM     17  O   UNL     1       3.649   0.353   0.000  0.00  0.00    +0.000 OA
ENDBRANCH   8  17
TORSDOF 2
