REMARK  Name = 
REMARK  0 active torsions:
REMARK  status: ('A' for Active; 'I' for Inactive)
REMARK                            x       y       z     vdW  Elec       q    Type
REMARK                         _______ _______ _______ _____ _____    ______ ____
ROOT
ATOM      1  C   UNL     1       1.644   0.357   0.000  0.00  0.00    +0.000 C 
ATOM      2  C   UNL     1       0.253   0.254   0.000  0.00  0.00    +0.000 C 
ATOM      3  C   UNL     1       0.909  -2.495   0.000  0.00  0.00    +0.000 C 
ATOM      4  C   UNL     1       1.936  -1.415   0.000  0.00  0.00    +0.000 C 
ATOM      5  C   UNL     1       1.641  -2.040   0.000  0.00  0.00    +0.000 C 
ATOM      6  C   UNL     1       0.500  -1.400   0.000  0.00  0.00    +0.000 C 
ATOM      7  C   UNL     1       1.141  -0.950   0.000  0.00  0.00    +0.000 C 
ATOM      8  C   UNL     1       0.981  -0.134   0.000  0.00  0.00    +0.000 C 
ATOM      9  C   UNL     1       0.911  -1.670   0.000  0.00  0.00    +0.000 C 
ATOM     10  N   UNL     1       0.135  -2.060   0.000  0.00  0.00    +0.000 NA
ENDROOT
TORSDOF 0
