REMARK  Name = 
REMARK  8 active torsions:
REMARK  status: ('A' for Active; 'I' for Inactive)
REMARK    1  A    between atoms: N_1  and  C_2
REMARK    2  A    between atoms: C_10  and  C_13
REMARK    3  A    between atoms: C_13  and  O_16
REMARK    4  A    between atoms: O_16  and  P_17
REMARK    5  A    between atoms: P_17  and  O_18
REMARK    6  A    between atoms: O_18  and  P_21
REMARK    7  A    between atoms: P_21  and  O_22
REMARK    8  A    between atoms: O_22  and  P_25
REMARK                            x       y       z     vdW  Elec       q    Type
REMARK                         _______ _______ _______ _____ _____    ______ ____
ROOT
ATOM      1  C   UNL     1       2.148   0.134   0.000  0.00  0.00    +0.000 C 
ATOM      2  O   UNL     1       1.504   0.606   0.000  0.00  0.00    +0.000 OA
ATOM      3  C   UNL     1       1.907  -0.675   0.000  0.00  0.00    +0.000 C 
ATOM      4  C   UNL     1       0.829   0.114   0.000  0.00  0.00    +0.000 C 
ATOM      5  C   UNL     1       1.077  -0.675   0.000  0.00  0.00    +0.000 C 
ATOM      6  O   UNL     1       0.589  -1.339   0.000  0.00  0.00    +0.000 OA
ENDROOT
BRANCH   1   7
ATOM      7  N   UNL     1       2.936   0.392   0.000  0.00  0.00    +0.000 N 
ATOM      8  C   UNL     1       3.559  -0.158   0.000  0.00  0.00    +0.000 A 
ATOM      9  C   UNL     1       3.111   1.198   0.000  0.00  0.00    +0.000 A 
ATOM     10  N   UNL     1       4.347   0.100   0.000  0.00  0.00    +0.000 NA
ATOM     11  O   UNL     1       3.393  -0.967   0.000  0.00  0.00    +0.000 OA
ATOM     12  C   UNL     1       3.889   1.463   0.000  0.00  0.00    +0.000 A 
ATOM     13  C   UNL     1       4.515   0.912   0.000  0.00  0.00    +0.000 A 
ATOM     14  O   UNL     1       5.300   1.167   0.000  0.00  0.00    +0.000 OA
ENDBRANCH   1   7
BRANCH   4  15
ATOM     15  C   UNL     1       0.045   0.368   0.000  0.00  0.00    +0.000 C 
BRANCH  15  16
ATOM     16  O   UNL     1      -0.540  -0.206   0.000  0.00  0.00    +0.000 OA
BRANCH  16  17
ATOM     17  P   UNL     1      -1.363  -0.206   0.000  0.00  0.00    +0.000 P 
ATOM     18  O   UNL     1      -1.366  -1.029   0.000  0.00  0.00    +0.000 OA
ATOM     19  O   UNL     1      -1.366   0.616   0.000  0.00  0.00    +0.000 OA
BRANCH  17  20
ATOM     20  O   UNL     1      -2.186  -0.206   0.000  0.00  0.00    +0.000 OA
BRANCH  20  21
ATOM     21  P   UNL     1      -3.011  -0.203   0.000  0.00  0.00    +0.000 P 
ATOM     22  O   UNL     1      -3.015  -1.026   0.000  0.00  0.00    +0.000 OA
ATOM     23  O   UNL     1      -3.015   0.620   0.000  0.00  0.00    +0.000 OA
BRANCH  21  24
ATOM     24  O   UNL     1      -3.834  -0.203   0.000  0.00  0.00    +0.000 OA
BRANCH  24  25
ATOM     25  P   UNL     1      -4.657  -0.200   0.000  0.00  0.00    +0.000 P 
ATOM     26  O   UNL     1      -4.660  -1.022   0.000  0.00  0.00    +0.000 OA
ATOM     27  O   UNL     1      -5.479  -0.196   0.000  0.00  0.00    +0.000 OA
ATOM     28  O   UNL     1      -4.660   0.623   0.000  0.00  0.00    +0.000 OA
ENDBRANCH  24  25
ENDBRANCH  21  24
ENDBRANCH  20  21
ENDBRANCH  17  20
ENDBRANCH  16  17
ENDBRANCH  15  16
ENDBRANCH   4  15
TORSDOF 8
