REMARK  Name = 
REMARK  5 active torsions:
REMARK  status: ('A' for Active; 'I' for Inactive)
REMARK    1  A    between atoms: N_4  and  C_14
REMARK    2  A    between atoms: N_5  and  C_23
REMARK    3  A    between atoms: N_6  and  C_16
REMARK    4  A    between atoms: C_8  and  C_13
REMARK    5  A    between atoms: C_14  and  C_16
REMARK                            x       y       z     vdW  Elec       q    Type
REMARK                         _______ _______ _______ _____ _____    ______ ____
ROOT
ATOM      1 CL   UNL     1       1.650  -0.341   0.000  0.00  0.00    +0.000 Cl
ATOM      2  N   UNL     1       4.574  -1.830   0.000  0.00  0.00    +0.000 N 
ATOM      3  C   UNL     1       4.574  -0.502   0.000  0.00  0.00    +0.000 A 
ATOM      4  C   UNL     1       3.793  -0.754   0.000  0.00  0.00    +0.000 A 
ATOM      5  C   UNL     1       5.056  -1.166   0.000  0.00  0.00    +0.000 A 
ATOM      6  C   UNL     1       3.793  -1.579   0.000  0.00  0.00    +0.000 A 
ATOM      7  C   UNL     1       3.079  -0.341   0.000  0.00  0.00    +0.000 A 
ATOM      8  C   UNL     1       3.079  -1.991   0.000  0.00  0.00    +0.000 A 
ATOM      9  C   UNL     1       2.365  -0.754   0.000  0.00  0.00    +0.000 A 
ATOM     10  C   UNL     1       2.365  -1.579   0.000  0.00  0.00    +0.000 A 
ENDROOT
BRANCH   2  12
ATOM     11  F   UNL     1       5.599  -4.967   0.000  0.00  0.00    +0.000 F 
ATOM     12  C   UNL     1       4.830  -2.615   0.000  0.00  0.00    +0.000 A 
ATOM     13  C   UNL     1       5.638  -2.785   0.000  0.00  0.00    +0.000 A 
ATOM     14  C   UNL     1       4.279  -3.229   0.000  0.00  0.00    +0.000 A 
ATOM     15  C   UNL     1       5.894  -3.569   0.000  0.00  0.00    +0.000 A 
ATOM     16  C   UNL     1       4.536  -4.013   0.000  0.00  0.00    +0.000 A 
ATOM     17  C   UNL     1       5.343  -4.183   0.000  0.00  0.00    +0.000 A 
ENDBRANCH   2  12
BRANCH   3  19
ATOM     18  N   UNL     1       5.343   1.850   0.000  0.00  0.00    +0.000 NA
ATOM     19  C   UNL     1       4.830   0.282   0.000  0.00  0.00    +0.000 C 
ATOM     20  C   UNL     1       4.279   0.896   0.000  0.00  0.00    +0.000 C 
ATOM     21  C   UNL     1       5.638   0.452   0.000  0.00  0.00    +0.000 C 
ATOM     22  C   UNL     1       4.536   1.680   0.000  0.00  0.00    +0.000 C 
ATOM     23  C   UNL     1       5.894   1.236   0.000  0.00  0.00    +0.000 C 
BRANCH  18  24
ATOM     24  C   UNL     1       5.599   2.634   0.000  0.00  0.00    +0.000 C 
BRANCH  24  25
ATOM     25  C   UNL     1       6.407   2.804   0.000  0.00  0.00    +0.000 C 
BRANCH  25  27
ATOM     26  O   UNL     1       8.114   3.356   0.000  0.00  0.00    +0.000 OA
ATOM     27  N   UNL     1       6.663   3.588   0.000  0.00  0.00    +0.000 N 
ATOM     28  N   UNL     1       7.449   4.667   0.000  0.00  0.00    +0.000 NA
ATOM     29  C   UNL     1       6.179   4.257   0.000  0.00  0.00    +0.000 C 
ATOM     30  C   UNL     1       6.665   4.923   0.000  0.00  0.00    +0.000 C 
ATOM     31  C   UNL     1       7.448   3.842   0.000  0.00  0.00    +0.000 C 
ENDBRANCH  25  27
ENDBRANCH  24  25
ENDBRANCH  18  24
ENDBRANCH   3  19
TORSDOF 5
