REMARK  Name = 
REMARK  1 active torsions:
REMARK  status: ('A' for Active; 'I' for Inactive)
REMARK    1  A    between atoms: C_6  and  C_7
REMARK                            x       y       z     vdW  Elec       q    Type
REMARK                         _______ _______ _______ _____ _____    ______ ____
ROOT
ATOM      1  C   UNL     1       2.560  -1.072   0.000  0.00  0.00    +0.000 C 
ATOM      2  C   UNL     1       2.560   0.032   0.000  0.00  0.00    +0.000 C 
ATOM      3  C   UNL     1      -0.148  -0.107   0.000  0.00  0.00    +0.000 C 
ATOM      4  C   UNL     1      -0.148  -0.932   0.000  0.00  0.00    +0.000 C 
ATOM      5  C   UNL     1       0.677  -0.107   0.000  0.00  0.00    +0.000 C 
ATOM      6  C   UNL     1       1.462  -1.187   0.000  0.00  0.00    +0.000 C 
ATOM      7  C   UNL     1       1.947  -0.520   0.000  0.00  0.00    +0.000 C 
ATOM      8  N   UNL     1       0.677  -0.932   0.000  0.00  0.00    +0.000 N 
ATOM      9  O   UNL     1      -0.731  -1.516   0.000  0.00  0.00    +0.000 OA
ATOM     10  O   UNL     1       1.299   0.956   0.000  0.00  0.00    +0.000 OA
ATOM     11  O   UNL     1       2.069   0.706   0.000  0.00  0.00    +0.000 OA
ATOM     12  S   UNL     1       1.462   0.148   0.000  0.00  0.00    +0.000 S 
ENDROOT
BRANCH   6  13
ATOM     13  C   UNL     1       1.717  -1.972   0.000  0.00  0.00    +0.000 C 
ATOM     14  O   UNL     1       1.165  -2.585   0.000  0.00  0.00    +0.000 OA
ATOM     15  O   UNL     1       2.524  -2.143   0.000  0.00  0.00    +0.000 OA
ENDBRANCH   6  13
TORSDOF 1
