REMARK  Name = 
REMARK  6 active torsions:
REMARK  status: ('A' for Active; 'I' for Inactive)
REMARK    1  A    between atoms: C_3  and  C_4
REMARK    2  A    between atoms: C_3  and  C_5
REMARK    3  A    between atoms: C_4  and  C_6
REMARK    4  A    between atoms: C_5  and  C_7
REMARK    5  A    between atoms: C_6  and  N_10
REMARK    6  A    between atoms: C_7  and  C_8
REMARK                            x       y       z     vdW  Elec       q    Type
REMARK                         _______ _______ _______ _____ _____    ______ ____
ROOT
ATOM      1  C   UNK     1       2.143   0.412   0.000  0.00  0.00    +0.000 C 
ENDROOT
BRANCH   1   2
ATOM      2  C   UNK     1       1.429   0.000   0.000  0.00  0.00    +0.000 C 
BRANCH   2   3
ATOM      3  C   UNK     1       0.715   0.412   0.000  0.00  0.00    +0.000 C 
BRANCH   3   6
ATOM      4  C   UNK     1      -0.715   0.412   0.000  0.00  0.00    +0.000 C 
ATOM      5  C   UNK     1       0.000  -0.825   0.000  0.00  0.00    +0.000 C 
ATOM      6  N   UNK     1       0.000   0.000   0.000  0.00  0.00    +0.000 NA
ENDBRANCH   3   6
ENDBRANCH   2   3
ENDBRANCH   1   2
BRANCH   1   7
ATOM      7  C   UNK     1       2.858   0.000   0.000  0.00  0.00    +0.000 C 
BRANCH   7   8
ATOM      8  C   UNK     1       3.572   0.412   0.000  0.00  0.00    +0.000 C 
ATOM      9  N   UNK     1       3.572   1.238   0.000  0.00  0.00    +0.000 NA
BRANCH   8  10
ATOM     10  C   UNK     1       4.287   0.000   0.000  0.00  0.00    +0.000 C 
ATOM     11  O   UNK     1       5.001   0.412   0.000  0.00  0.00    +0.000 OA
ATOM     12  O   UNK     1       4.287  -0.825   0.000  0.00  0.00    +0.000 OA
ENDBRANCH   8  10
ENDBRANCH   7   8
ENDBRANCH   1   7
TORSDOF 6
