REMARK  Name = 
REMARK  13 active torsions:
REMARK  status: ('A' for Active; 'I' for Inactive)
REMARK    1  A    between atoms: C_3  and  C_4
REMARK    2  A    between atoms: C_3  and  C_5
REMARK    3  A    between atoms: C_4  and  C_6
REMARK    4  A    between atoms: C_5  and  C_7
REMARK    5  A    between atoms: C_6  and  C_15
REMARK    6  A    between atoms: C_7  and  C_16
REMARK    7  A    between atoms: C_9  and  C_14
REMARK    8  A    between atoms: C_9  and  N_19
REMARK    9  A    between atoms: C_10  and  C_13
REMARK   10  A    between atoms: C_10  and  O_27
REMARK   11  A    between atoms: C_11  and  C_15
REMARK   12  A    between atoms: C_11  and  N_19
REMARK   13  A    between atoms: O_27  and  P_28
REMARK                            x       y       z     vdW  Elec       q    Type
REMARK                         _______ _______ _______ _____ _____    ______ ____
ROOT
ATOM      1  C   UNL     1       2.143  -0.412   0.000  0.00  0.00    +0.000 C 
ENDROOT
BRANCH   1   6
ATOM      2  C   UNL     1       0.715   2.062   0.000  0.00  0.00    +0.000 C 
ATOM      3  C   UNL     1       0.000   0.000   0.000  0.00  0.00    +0.000 A 
ATOM      4  C   UNL     1       0.715   1.238   0.000  0.00  0.00    +0.000 A 
ATOM      5  C   UNL     1       0.715  -0.412   0.000  0.00  0.00    +0.000 A 
ATOM      6  C   UNL     1       1.429   0.000   0.000  0.00  0.00    +0.000 A 
ATOM      7  C   UNL     1       1.429   0.825   0.000  0.00  0.00    +0.000 A 
ATOM      8  N   UNL     1       0.000   0.825   0.000  0.00  0.00    +0.000 NA
ATOM      9  O   UNL     1       2.143   1.238   0.000  0.00  0.00    +0.000 OA
BRANCH   5  10
ATOM     10  C   UNL     1       0.715  -1.238   0.000  0.00  0.00    +0.000 C 
BRANCH  10  11
ATOM     11  O   UNL     1       0.000  -1.650   0.000  0.00  0.00    +0.000 OA
BRANCH  11  15
ATOM     12  O   UNL     1       0.000  -3.300   0.000  0.00  0.00    +0.000 OA
ATOM     13  O   UNL     1      -0.825  -2.475   0.000  0.00  0.00    +0.000 OA
ATOM     14  O   UNL     1       0.825  -2.475   0.000  0.00  0.00    +0.000 OA
ATOM     15  P   UNL     1       0.000  -2.475   0.000  0.00  0.00    +0.000 P 
ENDBRANCH  11  15
ENDBRANCH  10  11
ENDBRANCH   5  10
ENDBRANCH   1   6
BRANCH   1  16
ATOM     16  N   UNL     1       2.858   0.000   0.000  0.00  0.00    +0.000 NA
BRANCH  16  18
ATOM     17  C   UNL     1       3.572  -1.238   0.000  0.00  0.00    +0.000 C 
ATOM     18  C   UNL     1       3.572  -0.412   0.000  0.00  0.00    +0.000 C 
BRANCH  18  19
ATOM     19  C   UNL     1       4.287   0.000   0.000  0.00  0.00    +0.000 C 
ATOM     20  O   UNL     1       4.287   0.825   0.000  0.00  0.00    +0.000 OA
BRANCH  19  21
ATOM     21  C   UNL     1       5.001  -0.412   0.000  0.00  0.00    +0.000 C 
BRANCH  21  22
ATOM     22  C   UNL     1       5.716   0.000   0.000  0.00  0.00    +0.000 C 
BRANCH  22  23
ATOM     23  C   UNL     1       6.430  -0.412   0.000  0.00  0.00    +0.000 C 
BRANCH  23  24
ATOM     24  C   UNL     1       7.145   0.000   0.000  0.00  0.00    +0.000 C 
BRANCH  24  25
ATOM     25  C   UNL     1       7.859  -0.412   0.000  0.00  0.00    +0.000 C 
BRANCH  25  26
ATOM     26  C   UNL     1       8.574   0.000   0.000  0.00  0.00    +0.000 C 
ATOM     27  O   UNL     1       9.288  -0.412   0.000  0.00  0.00    +0.000 OA
ATOM     28  O   UNL     1       8.574   0.825   0.000  0.00  0.00    +0.000 OA
ENDBRANCH  25  26
ENDBRANCH  24  25
ENDBRANCH  23  24
ENDBRANCH  22  23
ENDBRANCH  21  22
ENDBRANCH  19  21
ENDBRANCH  18  19
ENDBRANCH  16  18
ENDBRANCH   1  16
TORSDOF 13
