REMARK  Name = 
REMARK  4 active torsions:
REMARK  status: ('A' for Active; 'I' for Inactive)
REMARK    1  A    between atoms: C_3  and  C_4
REMARK    2  A    between atoms: C_4  and  S_5
REMARK    3  A    between atoms: S_5  and  C_7
REMARK    4  A    between atoms: C_7  and  C_8
REMARK                            x       y       z     vdW  Elec       q    Type
REMARK                         _______ _______ _______ _____ _____    ______ ____
ROOT
ATOM      1  S   UNL     1       1.238   0.715   0.000  0.00  0.00    +0.000 S 
ATOM      2  O   UNL     1       1.238  -0.111   0.000  0.00  0.00    +0.000 OA
ENDROOT
BRANCH   1   3
ATOM      3  C   UNL     1       0.523   1.127   0.000  0.00  0.00    +0.000 C 
BRANCH   3   6
ATOM      4  S   UNL     1      -1.620   0.715   0.000  0.00  0.00    +0.000 S 
ATOM      5  C   UNL     1      -0.906   1.127   0.000  0.00  0.00    +0.000 C 
ATOM      6  C   UNL     1      -0.191   0.715   0.000  0.00  0.00    +0.000 C 
ENDBRANCH   3   6
ENDBRANCH   1   3
BRANCH   1   7
ATOM      7  C   UNL     1       1.952   1.127   0.000  0.00  0.00    +0.000 C 
BRANCH   7   8
ATOM      8  C   UNL     1       2.666   0.715   0.000  0.00  0.00    +0.000 C 
ATOM      9  C   UNL     1       3.381   1.127   0.000  0.00  0.00    +0.000 C 
ENDBRANCH   7   8
ENDBRANCH   1   7
TORSDOF 4
