REMARK  Name = 
REMARK  6 active torsions:
REMARK  status: ('A' for Active; 'I' for Inactive)
REMARK    1  A    between atoms: CA_4  and  N_7
REMARK    2  A    between atoms: C_5  and  C_9
REMARK    3  A    between atoms: CA_6  and  C_11
REMARK    4  A    between atoms: C_9  and  S_13
REMARK    5  A    between atoms: C_9  and  C_19
REMARK    6  A    between atoms: S_13  and  C_14
REMARK                            x       y       z     vdW  Elec       q    Type
REMARK                         _______ _______ _______ _____ _____    ______ ____
ROOT
ATOM      1  N   UNL     1       1.446  -0.534   0.000  0.00  0.00    +0.000 N 
ATOM      2  C   UNL     1       0.835  -0.010   0.000  0.00  0.00    +0.000 C 
ATOM      3  C   UNL     1       1.446  -1.330   0.000  0.00  0.00    +0.000 C 
ATOM      4  CA  UNL     1       0.010  -0.184   0.000  0.00  0.00    +0.000 C 
ATOM      5  CA  UNL     1       2.155  -0.116   0.000  0.00  0.00    +0.000 C 
ATOM      6  C   UNL     1       0.806  -1.854   0.000  0.00  0.00    +0.000 A 
ATOM      7  C   UNL     1       0.000  -1.669   0.000  0.00  0.00    +0.000 A 
ATOM      8  C   UNL     1      -0.340  -0.903   0.000  0.00  0.00    +0.000 C 
ATOM      9  O   UNL     1       1.019   0.786   0.000  0.00  0.00    +0.000 OA
ATOM     10  C   UNL     1       2.155  -1.766   0.000  0.00  0.00    +0.000 C 
ATOM     11  C   UNL     1       2.883  -0.543   0.000  0.00  0.00    +0.000 C 
ATOM     12  C   UNL     1       1.029  -2.650   0.000  0.00  0.00    +0.000 A 
ATOM     13  C   UNL     1      -0.573  -2.252   0.000  0.00  0.00    +0.000 A 
ATOM     14  C   UNL     1       2.883  -1.369   0.000  0.00  0.00    +0.000 C 
ATOM     15  C   UNL     1       0.456  -3.252   0.000  0.00  0.00    +0.000 A 
ATOM     16  C   UNL     1      -0.340  -3.067   0.000  0.00  0.00    +0.000 A 
ENDROOT
BRANCH   4  18
ATOM     17  C   UNL     1      -1.252   0.466   0.000  0.00  0.00    +0.000 C 
ATOM     18  N   UNL     1      -0.447   0.476   0.000  0.00  0.00    +0.000 NA
ATOM     19  O   UNL     1      -1.640  -0.243   0.000  0.00  0.00    +0.000 OA
BRANCH  17  20
ATOM     20  C   UNL     1      -1.660   1.155   0.000  0.00  0.00    +0.000 C 
BRANCH  20  21
ATOM     21  C   UNL     1      -2.475   1.155   0.000  0.00  0.00    +0.000 C 
ATOM     22  C   UNL     1      -2.883   0.456   0.000  0.00  0.00    +0.000 C 
ATOM     23  C   UNL     1      -2.883   1.864   0.000  0.00  0.00    +0.000 C 
ENDBRANCH  20  21
BRANCH  20  24
ATOM     24  S   UNL     1      -1.252   1.864   0.000  0.00  0.00    +0.000 S 
BRANCH  24  25
ATOM     25  C   UNL     1      -1.669   2.553   0.000  0.00  0.00    +0.000 C 
ATOM     26  O   UNL     1      -1.291   3.252   0.000  0.00  0.00    +0.000 OA
ATOM     27  C   UNL     1      -2.494   2.553   0.000  0.00  0.00    +0.000 C 
ENDBRANCH  24  25
ENDBRANCH  20  24
ENDBRANCH  17  20
ENDBRANCH   4  18
BRANCH   5  28
ATOM     28  C   UNL     1       2.155   0.699   0.000  0.00  0.00    +0.000 C 
ATOM     29  O   UNL     1       1.446   1.116   0.000  0.00  0.00    +0.000 OA
ATOM     30  OXT UNL     1       2.873   1.107   0.000  0.00  0.00    +0.000 OA
ENDBRANCH   5  28
TORSDOF 6
