REMARK  Name = 
REMARK  16 active torsions:
REMARK  status: ('A' for Active; 'I' for Inactive)
REMARK    1  A    between atoms: S_1  and  C_40
REMARK    2  A    between atoms: S_2  and  C_41
REMARK    3  A    between atoms: S_3  and  C_42
REMARK    4  A    between atoms: S_4  and  C_43
REMARK    5  A    between atoms: S_5  and  C_48
REMARK    6  A    between atoms: S_6  and  C_49
REMARK    7  A    between atoms: N_30  and  C_44
REMARK    8  A    between atoms: N_31  and  C_45
REMARK    9  A    between atoms: N_32  and  C_62
REMARK   10  A    between atoms: N_33  and  C_63
REMARK   11  A    between atoms: N_34  and  C_78
REMARK   12  A    between atoms: N_35  and  C_79
REMARK   13  A    between atoms: C_56  and  C_58
REMARK   14  A    between atoms: C_57  and  C_59
REMARK   15  A    between atoms: C_72  and  C_74
REMARK   16  A    between atoms: C_73  and  C_75
REMARK                            x       y       z     vdW  Elec       q    Type
REMARK                         _______ _______ _______ _____ _____    ______ ____
ROOT
ATOM      1  O   UNL     1      13.501   2.470   0.000  0.00  0.00    +0.000 OA
ATOM      2  N   UNL     1      13.484   1.041   0.000  0.00  0.00    +0.000 NA
ATOM      3  N   UNL     1      12.255   1.770   0.000  0.00  0.00    +0.000 NA
ATOM      4  C   UNL     1      13.080   1.760   0.000  0.00  0.00    +0.000 C 
ENDROOT
BRANCH   3   7
ATOM      5  C   UNL     1      10.622   3.217   0.000  0.00  0.00    +0.000 A 
ATOM      6  C   UNL     1      11.026   2.498   0.000  0.00  0.00    +0.000 A 
ATOM      7  C   UNL     1      11.851   2.489   0.000  0.00  0.00    +0.000 A 
ATOM      8  C   UNL     1      11.043   3.927   0.000  0.00  0.00    +0.000 A 
ATOM      9  C   UNL     1      12.272   3.198   0.000  0.00  0.00    +0.000 A 
ATOM     10  C   UNL     1      11.867   3.918   0.000  0.00  0.00    +0.000 A 
BRANCH   5  13
ATOM     11  O   UNL     1       9.393   3.946   0.000  0.00  0.00    +0.000 OA
ATOM     12  N   UNL     1       9.376   2.517   0.000  0.00  0.00    +0.000 NA
ATOM     13  C   UNL     1       9.797   3.227   0.000  0.00  0.00    +0.000 C 
BRANCH  12  16
ATOM     14  C   UNL     1       7.322   3.256   0.000  0.00  0.00    +0.000 A 
ATOM     15  C   UNL     1       8.147   3.246   0.000  0.00  0.00    +0.000 A 
ATOM     16  C   UNL     1       8.551   2.527   0.000  0.00  0.00    +0.000 A 
ATOM     17  C   UNL     1       6.901   2.546   0.000  0.00  0.00    +0.000 A 
ATOM     18  C   UNL     1       8.130   1.817   0.000  0.00  0.00    +0.000 A 
ATOM     19  C   UNL     1       7.306   1.827   0.000  0.00  0.00    +0.000 A 
ATOM     20  C   UNL     1       8.535   1.098   0.000  0.00  0.00    +0.000 C 
BRANCH  14  23
ATOM     21  O   UNL     1       7.338   4.684   0.000  0.00  0.00    +0.000 OA
ATOM     22  N   UNL     1       6.093   3.984   0.000  0.00  0.00    +0.000 NA
ATOM     23  C   UNL     1       6.918   3.975   0.000  0.00  0.00    +0.000 C 
BRANCH  22  28
ATOM     24  C   UNL     1       4.951   5.145   0.000  0.00  0.00    +0.000 A 
ATOM     25  C   UNL     1       4.951   5.970   0.000  0.00  0.00    +0.000 A 
ATOM     26  C   UNL     1       4.237   4.732   0.000  0.00  0.00    +0.000 A 
ATOM     27  C   UNL     1       5.689   6.411   0.000  0.00  0.00    +0.000 A 
ATOM     28  C   UNL     1       5.689   4.704   0.000  0.00  0.00    +0.000 A 
ATOM     29  C   UNL     1       4.237   6.382   0.000  0.00  0.00    +0.000 A 
ATOM     30  C   UNL     1       3.522   5.970   0.000  0.00  0.00    +0.000 A 
ATOM     31  C   UNL     1       3.522   5.145   0.000  0.00  0.00    +0.000 A 
ATOM     32  C   UNL     1       6.436   5.987   0.000  0.00  0.00    +0.000 A 
ATOM     33  C   UNL     1       6.436   5.128   0.000  0.00  0.00    +0.000 A 
BRANCH  26  34
ATOM     34  S   UNL     1       3.824   4.018   0.000  0.00  0.00    +0.000 S 
ATOM     35  O   UNL     1       3.412   3.303   0.000  0.00  0.00    +0.000 OA
ATOM     36  O   UNL     1       4.538   3.605   0.000  0.00  0.00    +0.000 OA
ATOM     37  O   UNL     1       3.110   4.430   0.000  0.00  0.00    +0.000 OA
ENDBRANCH  26  34
BRANCH  30  38
ATOM     38  S   UNL     1       2.808   6.382   0.000  0.00  0.00    +0.000 S 
ATOM     39  O   UNL     1       2.093   6.795   0.000  0.00  0.00    +0.000 OA
ATOM     40  O   UNL     1       3.220   7.097   0.000  0.00  0.00    +0.000 OA
ATOM     41  O   UNL     1       2.395   5.668   0.000  0.00  0.00    +0.000 OA
ENDBRANCH  30  38
BRANCH  27  42
ATOM     42  S   UNL     1       5.679   7.236   0.000  0.00  0.00    +0.000 S 
ATOM     43  O   UNL     1       5.669   8.061   0.000  0.00  0.00    +0.000 OA
ATOM     44  O   UNL     1       6.504   7.245   0.000  0.00  0.00    +0.000 OA
ATOM     45  O   UNL     1       4.854   7.226   0.000  0.00  0.00    +0.000 OA
ENDBRANCH  27  42
ENDBRANCH  22  28
ENDBRANCH  14  23
ENDBRANCH  12  16
ENDBRANCH   5  13
ENDBRANCH   3   7
BRANCH   2  48
ATOM     46  C   UNL     1      15.539   0.302   0.000  0.00  0.00    +0.000 A 
ATOM     47  C   UNL     1      14.713   0.312   0.000  0.00  0.00    +0.000 A 
ATOM     48  C   UNL     1      14.309   1.031   0.000  0.00  0.00    +0.000 A 
ATOM     49  C   UNL     1      15.959   1.012   0.000  0.00  0.00    +0.000 A 
ATOM     50  C   UNL     1      14.730   1.741   0.000  0.00  0.00    +0.000 A 
ATOM     51  C   UNL     1      15.555   1.731   0.000  0.00  0.00    +0.000 A 
BRANCH  46  54
ATOM     52  O   UNL     1      15.522  -1.126   0.000  0.00  0.00    +0.000 OA
ATOM     53  N   UNL     1      16.768  -0.426   0.000  0.00  0.00    +0.000 NA
ATOM     54  C   UNL     1      15.943  -0.417   0.000  0.00  0.00    +0.000 C 
BRANCH  53  57
ATOM     55  C   UNL     1      17.155  -2.574   0.000  0.00  0.00    +0.000 A 
ATOM     56  C   UNL     1      16.751  -1.855   0.000  0.00  0.00    +0.000 A 
ATOM     57  C   UNL     1      17.172  -1.145   0.000  0.00  0.00    +0.000 A 
ATOM     58  C   UNL     1      17.980  -2.584   0.000  0.00  0.00    +0.000 A 
ATOM     59  C   UNL     1      17.997  -1.155   0.000  0.00  0.00    +0.000 A 
ATOM     60  C   UNL     1      18.401  -1.874   0.000  0.00  0.00    +0.000 A 
ATOM     61  C   UNL     1      18.418  -0.445   0.000  0.00  0.00    +0.000 C 
BRANCH  55  64
ATOM     62  O   UNL     1      15.910  -3.275   0.000  0.00  0.00    +0.000 OA
ATOM     63  N   UNL     1      17.139  -4.003   0.000  0.00  0.00    +0.000 NA
ATOM     64  C   UNL     1      16.735  -3.284   0.000  0.00  0.00    +0.000 C 
BRANCH  63  69
ATOM     65  C   UNL     1      17.136  -5.464   0.000  0.00  0.00    +0.000 A 
ATOM     66  C   UNL     1      16.724  -6.178   0.000  0.00  0.00    +0.000 A 
ATOM     67  C   UNL     1      17.961  -5.464   0.000  0.00  0.00    +0.000 A 
ATOM     68  C   UNL     1      15.864  -6.191   0.000  0.00  0.00    +0.000 A 
ATOM     69  C   UNL     1      16.718  -4.713   0.000  0.00  0.00    +0.000 A 
ATOM     70  C   UNL     1      17.136  -6.893   0.000  0.00  0.00    +0.000 A 
ATOM     71  C   UNL     1      17.961  -6.893   0.000  0.00  0.00    +0.000 A 
ATOM     72  C   UNL     1      18.374  -6.178   0.000  0.00  0.00    +0.000 A 
ATOM     73  C   UNL     1      15.429  -5.450   0.000  0.00  0.00    +0.000 A 
ATOM     74  C   UNL     1      15.859  -4.706   0.000  0.00  0.00    +0.000 A 
BRANCH  67  75
ATOM     75  S   UNL     1      18.676  -5.051   0.000  0.00  0.00    +0.000 S 
ATOM     76  O   UNL     1      19.088  -5.766   0.000  0.00  0.00    +0.000 OA
ATOM     77  O   UNL     1      19.390  -4.639   0.000  0.00  0.00    +0.000 OA
ATOM     78  O   UNL     1      18.263  -4.337   0.000  0.00  0.00    +0.000 OA
ENDBRANCH  67  75
BRANCH  71  79
ATOM     79  S   UNL     1      18.374  -7.607   0.000  0.00  0.00    +0.000 S 
ATOM     80  O   UNL     1      18.786  -8.322   0.000  0.00  0.00    +0.000 OA
ATOM     81  O   UNL     1      17.659  -8.020   0.000  0.00  0.00    +0.000 OA
ATOM     82  O   UNL     1      19.088  -7.195   0.000  0.00  0.00    +0.000 OA
ENDBRANCH  71  79
BRANCH  68  83
ATOM     83  S   UNL     1      15.460  -6.911   0.000  0.00  0.00    +0.000 S 
ATOM     84  O   UNL     1      15.056  -7.630   0.000  0.00  0.00    +0.000 OA
ATOM     85  O   UNL     1      14.741  -6.506   0.000  0.00  0.00    +0.000 OA
ATOM     86  O   UNL     1      16.179  -7.315   0.000  0.00  0.00    +0.000 OA
ENDBRANCH  68  83
ENDBRANCH  63  69
ENDBRANCH  55  64
ENDBRANCH  53  57
ENDBRANCH  46  54
ENDBRANCH   2  48
TORSDOF 16
