REMARK  Name = 
REMARK  7 active torsions:
REMARK  status: ('A' for Active; 'I' for Inactive)
REMARK    1  A    between atoms: C_2  and  C_3
REMARK    2  A    between atoms: C_2  and  O_17
REMARK    3  A    between atoms: C_4  and  O_18
REMARK    4  A    between atoms: O_17  and  P_20
REMARK    5  A    between atoms: O_18  and  P_22
REMARK    6  A    between atoms: O_19  and  P_21
REMARK    7  A    between atoms: O_19  and  P_22
REMARK                            x       y       z     vdW  Elec       q    Type
REMARK                         _______ _______ _______ _____ _____    ______ ____
ROOT
ATOM      1  C   UNL     1       1.235   0.629   0.000  0.00  0.00    +0.000 C 
ATOM      2  C   UNL     1       0.568   1.114   0.000  0.00  0.00    +0.000 C 
ATOM      3  C   UNL     1       0.980  -0.155   0.000  0.00  0.00    +0.000 C 
ATOM      4  C   UNL     1      -0.100   0.629   0.000  0.00  0.00    +0.000 C 
ATOM      5  C   UNL     1       0.155  -0.155   0.000  0.00  0.00    +0.000 C 
ATOM      6  O   UNL     1      -0.884   0.884   0.000  0.00  0.00    +0.000 OA
ATOM      7  O   UNL     1      -0.330  -0.823   0.000  0.00  0.00    +0.000 OA
ENDROOT
BRANCH   2   8
ATOM      8  C   UNL     1       0.568   1.939   0.000  0.00  0.00    +0.000 C 
BRANCH   8   9
ATOM      9  O   UNL     1      -0.147   2.352   0.000  0.00  0.00    +0.000 OA
BRANCH   9  13
ATOM     10  O   UNL     1      -0.147   4.002   0.000  0.00  0.00    +0.000 OA
ATOM     11  O   UNL     1      -0.972   3.177   0.000  0.00  0.00    +0.000 OA
ATOM     12  O   UNL     1       0.678   3.177   0.000  0.00  0.00    +0.000 OA
ATOM     13  P   UNL     1      -0.147   3.177   0.000  0.00  0.00    +0.000 P 
ENDBRANCH   9  13
ENDBRANCH   8   9
ENDBRANCH   2   8
BRANCH   3  14
ATOM     14  O   UNL     1       1.465  -0.823   0.000  0.00  0.00    +0.000 OA
BRANCH  14  17
ATOM     15  O   UNL     1       0.376  -1.241   0.000  0.00  0.00    +0.000 OA
ATOM     16  O   UNL     1       1.883  -1.912   0.000  0.00  0.00    +0.000 OA
ATOM     17  P   UNL     1       1.130  -1.576   0.000  0.00  0.00    +0.000 P 
BRANCH  17  18
ATOM     18  O   UNL     1       0.794  -2.330   0.000  0.00  0.00    +0.000 OA
BRANCH  18  22
ATOM     19  O   UNL     1       1.764  -3.665   0.000  0.00  0.00    +0.000 OA
ATOM     20  O   UNL     1       0.612  -3.482   0.000  0.00  0.00    +0.000 OA
ATOM     21  O   UNL     1       1.946  -2.513   0.000  0.00  0.00    +0.000 OA
ATOM     22  P   UNL     1       1.279  -2.998   0.000  0.00  0.00    +0.000 P 
ENDBRANCH  18  22
ENDBRANCH  17  18
ENDBRANCH  14  17
ENDBRANCH   3  14
TORSDOF 7
