REMARK  Name = 
REMARK  4 active torsions:
REMARK  status: ('A' for Active; 'I' for Inactive)
REMARK    1  A    between atoms: N_10  and  C_15
REMARK    2  A    between atoms: C_15  and  C_16
REMARK    3  A    between atoms: C_19  and  C_22
REMARK    4  A    between atoms: C_22  and  N_23
REMARK                            x       y       z     vdW  Elec       q    Type
REMARK                         _______ _______ _______ _____ _____    ______ ____
ROOT
ATOM      1  C   UNL     1       0.000  -1.650   0.000  0.00  0.00    +0.000 A 
ATOM      2  C   UNL     1       0.715  -2.062   0.000  0.00  0.00    +0.000 A 
ATOM      3  C   UNL     1       0.715  -2.888   0.000  0.00  0.00    +0.000 A 
ATOM      4  C   UNL     1       0.000  -3.300   0.000  0.00  0.00    +0.000 A 
ATOM      5  C   UNL     1      -0.715  -2.888   0.000  0.00  0.00    +0.000 A 
ATOM      6  C   UNL     1      -0.715  -2.062   0.000  0.00  0.00    +0.000 A 
ENDROOT
BRANCH   1   7
ATOM      7  C   UNL     1       0.000  -0.825   0.000  0.00  0.00    +0.000 C 
BRANCH   7  17
ATOM      8  C   UNL     1      -3.572   0.412   0.000  0.00  0.00    +0.000 C 
ATOM      9  C   UNL     1      -4.287   0.825   0.000  0.00  0.00    +0.000 C 
ATOM     10  N   UNL     1      -4.287   1.650   0.000  0.00  0.00    +0.000 NA
ATOM     11  C   UNL     1      -3.572   2.062   0.000  0.00  0.00    +0.000 C 
ATOM     12  C   UNL     1      -2.858   1.650   0.000  0.00  0.00    +0.000 C 
ATOM     13  N   UNL     1      -2.143   2.062   0.000  0.00  0.00    +0.000 NA
ATOM     14  C   UNL     1      -1.429   1.650   0.000  0.00  0.00    +0.000 C 
ATOM     15  C   UNL     1      -1.429   0.825   0.000  0.00  0.00    +0.000 C 
ATOM     16  C   UNL     1      -0.715   0.412   0.000  0.00  0.00    +0.000 C 
ATOM     17  N   UNL     1      -0.715  -0.412   0.000  0.00  0.00    +0.000 NA
ATOM     18  C   UNL     1      -1.429  -0.825   0.000  0.00  0.00    +0.000 C 
ATOM     19  C   UNL     1      -2.143  -0.412   0.000  0.00  0.00    +0.000 C 
ATOM     20  N   UNL     1      -2.858  -0.825   0.000  0.00  0.00    +0.000 NA
ATOM     21  C   UNL     1      -3.572  -0.412   0.000  0.00  0.00    +0.000 C 
ENDBRANCH   7  17
ENDBRANCH   1   7
BRANCH   4  22
ATOM     22  C   UNL     1       0.000  -4.125   0.000  0.00  0.00    +0.000 C 
BRANCH  22  23
ATOM     23  N   UNL     1      -0.715  -4.537   0.000  0.00  0.00    +0.000 NA
ATOM     24  C   UNL     1       0.000  -4.950   0.000  0.00  0.00    +0.000 C 
ATOM     25  C   UNL     1       0.000  -5.775   0.000  0.00  0.00    +0.000 C 
ATOM     26  C   UNL     1      -0.715  -6.188   0.000  0.00  0.00    +0.000 C 
ATOM     27  N   UNL     1      -1.429  -5.775   0.000  0.00  0.00    +0.000 NA
ATOM     28  C   UNL     1      -2.143  -6.188   0.000  0.00  0.00    +0.000 C 
ATOM     29  C   UNL     1      -2.858  -5.775   0.000  0.00  0.00    +0.000 C 
ATOM     30  N   UNL     1      -2.858  -4.950   0.000  0.00  0.00    +0.000 NA
ATOM     31  C   UNL     1      -3.572  -4.537   0.000  0.00  0.00    +0.000 C 
ATOM     32  C   UNL     1      -3.572  -3.712   0.000  0.00  0.00    +0.000 C 
ATOM     33  C   UNL     1      -2.858  -3.300   0.000  0.00  0.00    +0.000 C 
ATOM     34  N   UNL     1      -2.143  -3.712   0.000  0.00  0.00    +0.000 NA
ATOM     35  C   UNL     1      -1.429  -3.300   0.000  0.00  0.00    +0.000 C 
ATOM     36  C   UNL     1      -0.715  -3.712   0.000  0.00  0.00    +0.000 C 
ENDBRANCH  22  23
ENDBRANCH   4  22
TORSDOF 4
