REMARK  Name = 
REMARK  4 active torsions:
REMARK  status: ('A' for Active; 'I' for Inactive)
REMARK    1  A    between atoms: C_21  and  C_22
REMARK    2  A    between atoms: C_23  and  O_33
REMARK    3  A    between atoms: C_24  and  O_34
REMARK    4  A    between atoms: C_27  and  O_35
REMARK                            x       y       z     vdW  Elec       q    Type
REMARK                         _______ _______ _______ _____ _____    ______ ____
ROOT
ATOM      1  C   UNL     1       2.408   3.786   0.000  0.00  0.00    +0.000 C 
ATOM      2  C   UNL     1       1.544   2.648   0.000  0.00  0.00    +0.000 C 
ATOM      3  C   UNL     1       4.932   0.971   0.000  0.00  0.00    +0.000 C 
ATOM      4  C   UNL     1       6.350   0.792   0.000  0.00  0.00    +0.000 C 
ATOM      5  C   UNL     1       6.454   1.610   0.000  0.00  0.00    +0.000 C 
ATOM      6  C   UNL     1       5.589   0.472   0.000  0.00  0.00    +0.000 C 
ATOM      7  C   UNL     1       5.797   2.109   0.000  0.00  0.00    +0.000 C 
ATOM      8  C   UNL     1       3.826   3.606   0.000  0.00  0.00    +0.000 C 
ATOM      9  C   UNL     1       4.483   3.107   0.000  0.00  0.00    +0.000 C 
ATOM     10  C   UNL     1       3.065   3.287   0.000  0.00  0.00    +0.000 C 
ATOM     11  C   UNL     1       2.201   2.149   0.000  0.00  0.00    +0.000 C 
ATOM     12  C   UNL     1       4.172   0.652   0.000  0.00  0.00    +0.000 C 
ATOM     13  C   UNL     1       5.486  -0.346   0.000  0.00  0.00    +0.000 C 
ATOM     14  C   UNL     1       5.901   2.928   0.000  0.00  0.00    +0.000 C 
ATOM     15  C   UNL     1       5.244   3.427   0.000  0.00  0.00    +0.000 C 
ATOM     16  C   UNL     1       2.097   1.331   0.000  0.00  0.00    +0.000 C 
ATOM     17  C   UNL     1       2.962   2.469   0.000  0.00  0.00    +0.000 C 
ATOM     18  C   UNL     1       2.754   0.832   0.000  0.00  0.00    +0.000 C 
ATOM     19  C   UNL     1       4.068  -0.167   0.000  0.00  0.00    +0.000 C 
ATOM     20  C   UNL     1       3.515   1.151   0.000  0.00  0.00    +0.000 C 
ATOM     21  O   UNL     1       1.337   1.011   0.000  0.00  0.00    +0.000 OA
ATOM     22  O   UNL     1       3.307  -0.486   0.000  0.00  0.00    +0.000 OA
ATOM     23  O   UNL     1       3.411   0.333   0.000  0.00  0.00    +0.000 OA
ATOM     24  O   UNL     1       4.725  -0.666   0.000  0.00  0.00    +0.000 OA
ATOM     25  O   UNL     1       3.619   1.969   0.000  0.00  0.00    +0.000 OA
ENDROOT
BRANCH  13  31
ATOM     26  C   UNL     1       7.456  -1.843   0.000  0.00  0.00    +0.000 A 
ATOM     27  C   UNL     1       7.560  -1.025   0.000  0.00  0.00    +0.000 A 
ATOM     28  C   UNL     1       6.696  -2.163   0.000  0.00  0.00    +0.000 A 
ATOM     29  C   UNL     1       6.903  -0.526   0.000  0.00  0.00    +0.000 A 
ATOM     30  C   UNL     1       6.039  -1.664   0.000  0.00  0.00    +0.000 A 
ATOM     31  C   UNL     1       6.143  -0.845   0.000  0.00  0.00    +0.000 A 
ENDBRANCH  13  31
BRANCH  14  33
ATOM     32  C   UNL     1       6.765   4.065   0.000  0.00  0.00    +0.000 C 
ATOM     33  O   UNL     1       6.661   3.247   0.000  0.00  0.00    +0.000 OA
ENDBRANCH  14  33
BRANCH  15  35
ATOM     34  C   UNL     1       6.108   4.564   0.000  0.00  0.00    +0.000 C 
ATOM     35  O   UNL     1       5.347   4.245   0.000  0.00  0.00    +0.000 OA
ENDBRANCH  15  35
BRANCH  18  37
ATOM     36  C   UNL     1       1.890  -0.306   0.000  0.00  0.00    +0.000 C 
ATOM     37  O   UNL     1       2.650   0.013   0.000  0.00  0.00    +0.000 OA
ENDBRANCH  18  37
TORSDOF 4
