REMARK  Name = 
REMARK  9 active torsions:
REMARK  status: ('A' for Active; 'I' for Inactive)
REMARK    1  A    between atoms: O_1  and  C_14
REMARK    2  A    between atoms: N_5  and  C_10
REMARK    3  A    between atoms: C_9  and  C_10
REMARK    4  A    between atoms: C_9  and  C_11
REMARK    5  A    between atoms: C_9  and  C_14
REMARK    6  A    between atoms: C_11  and  C_13
REMARK    7  A    between atoms: C_16  and  C_19
REMARK    8  A    between atoms: C_18  and  C_25
REMARK    9  A    between atoms: C_24  and  C_29
REMARK                            x       y       z     vdW  Elec       q    Type
REMARK                         _______ _______ _______ _____ _____    ______ ____
ROOT
ATOM      1  C   UNL     1       3.079   1.188   0.000  0.00  0.00    +0.000 C 
ATOM      2  C   UNL     1       2.365   1.601   0.000  0.00  0.00    +0.000 C 
ENDROOT
BRANCH   1   4
ATOM      3  O   UNL     1       1.650   0.363   0.000  0.00  0.00    +0.000 OA
ATOM      4  N   UNL     1       3.079   0.363   0.000  0.00  0.00    +0.000 NA
ATOM      5  C   UNL     1       2.365  -0.050   0.000  0.00  0.00    +0.000 C 
BRANCH   5   6
ATOM      6  C   UNL     1       2.365  -0.875   0.000  0.00  0.00    +0.000 A 
ATOM      7  C   UNL     1       1.650  -1.287   0.000  0.00  0.00    +0.000 A 
ATOM      8  C   UNL     1       3.079  -1.287   0.000  0.00  0.00    +0.000 A 
ATOM      9  C   UNL     1       2.365  -2.525   0.000  0.00  0.00    +0.000 A 
ATOM     10  C   UNL     1       1.650  -2.112   0.000  0.00  0.00    +0.000 A 
ATOM     11  C   UNL     1       3.079  -2.112   0.000  0.00  0.00    +0.000 A 
BRANCH   9  14
ATOM     12  O   UNL     1       2.365  -5.824   0.000  0.00  0.00    +0.000 OA
ATOM     13  N   UNL     1       2.365  -5.000   0.000  0.00  0.00    +0.000 N 
ATOM     14  C   UNL     1       2.365  -3.349   0.000  0.00  0.00    +0.000 A 
ATOM     15  C   UNL     1       3.079  -3.762   0.000  0.00  0.00    +0.000 A 
ATOM     16  C   UNL     1       1.650  -3.762   0.000  0.00  0.00    +0.000 A 
ATOM     17  C   UNL     1       3.079  -4.587   0.000  0.00  0.00    +0.000 A 
ATOM     18  C   UNL     1       1.650  -4.587   0.000  0.00  0.00    +0.000 A 
ENDBRANCH   9  14
ENDBRANCH   5   6
ENDBRANCH   1   4
BRANCH   1  19
ATOM     19  C   UNL     1       3.793   1.601   0.000  0.00  0.00    +0.000 C 
BRANCH  19  21
ATOM     20  O   UNL     1       5.222   1.601   0.000  0.00  0.00    +0.000 OA
ATOM     21  C   UNL     1       4.508   1.188   0.000  0.00  0.00    +0.000 C 
BRANCH  21  22
ATOM     22  O   UNL     1       4.508   0.363   0.000  0.00  0.00    +0.000 OA
ATOM     23  C   UNL     1       5.222  -0.050   0.000  0.00  0.00    +0.000 C 
ENDBRANCH  21  22
ENDBRANCH  19  21
BRANCH  19  24
ATOM     24  C   UNL     1       3.793   2.425   0.000  0.00  0.00    +0.000 C 
BRANCH  24  25
ATOM     25  C   UNL     1       4.508   2.838   0.000  0.00  0.00    +0.000 A 
ATOM     26  C   UNL     1       4.508   3.663   0.000  0.00  0.00    +0.000 A 
ATOM     27  C   UNL     1       5.222   2.425   0.000  0.00  0.00    +0.000 A 
ATOM     28  C   UNL     1       5.222   4.075   0.000  0.00  0.00    +0.000 A 
ATOM     29  C   UNL     1       5.937   2.838   0.000  0.00  0.00    +0.000 A 
ATOM     30  C   UNL     1       5.937   3.663   0.000  0.00  0.00    +0.000 A 
BRANCH  28  33
ATOM     31  N   UNL     1       5.937   5.313   0.000  0.00  0.00    +0.000 NA
ATOM     32  N   UNL     1       4.508   5.313   0.000  0.00  0.00    +0.000 NA
ATOM     33  C   UNL     1       5.222   4.901   0.000  0.00  0.00    +0.000 C 
ENDBRANCH  28  33
ENDBRANCH  24  25
ENDBRANCH  19  24
ENDBRANCH   1  19
TORSDOF 9
