REMARK  Name = 
REMARK  15 active torsions:
REMARK  status: ('A' for Active; 'I' for Inactive)
REMARK    1  A    between atoms: C_11  and  C_13
REMARK    2  A    between atoms: C_13  and  C_37
REMARK    3  A    between atoms: C_15  and  C_16
REMARK    4  A    between atoms: C_15  and  C_27
REMARK    5  A    between atoms: C_16  and  C_35
REMARK    6  A    between atoms: C_17  and  N_48
REMARK    7  A    between atoms: C_21  and  C_38
REMARK    8  A    between atoms: C_21  and  C_39
REMARK    9  A    between atoms: C_25  and  N_48
REMARK   10  A    between atoms: C_27  and  C_38
REMARK   11  A    between atoms: C_28  and  C_35
REMARK   12  A    between atoms: C_28  and  C_37
REMARK   13  A    between atoms: C_37  and  O_55
REMARK   14  A    between atoms: C_38  and  O_56
REMARK   15  A    between atoms: C_42  and  O_57
REMARK                            x       y       z     vdW  Elec       q    Type
REMARK                         _______ _______ _______ _____ _____    ______ ____
ROOT
ATOM      1  C   UNL     1      17.147   4.950   0.000  0.00  0.00    +0.000 C 
ATOM      2  C   UNL     1      20.005   4.950   0.000  0.00  0.00    +0.000 C 
ATOM      3  C   UNL     1      17.147   3.300   0.000  0.00  0.00    +0.000 C 
ATOM      4  C   UNL     1      17.147   2.475   0.000  0.00  0.00    +0.000 C 
ATOM      5  C   UNL     1      16.433   3.712   0.000  0.00  0.00    +0.000 C 
ATOM      6  C   UNL     1      17.862   2.062   0.000  0.00  0.00    +0.000 C 
ATOM      7  C   UNL     1      17.862   7.013   0.000  0.00  0.00    +0.000 C 
ATOM      8  C   UNL     1      18.576   5.775   0.000  0.00  0.00    +0.000 C 
ATOM      9  C   UNL     1      16.433   7.013   0.000  0.00  0.00    +0.000 C 
ATOM     10  C   UNL     1      20.812   3.471   0.000  0.00  0.00    +0.000 A 
ATOM     11  C   UNL     1      19.301   0.545   0.000  0.00  0.00    +0.000 A 
ATOM     12  C   UNL     1      19.948   1.529   0.000  0.00  0.00    +0.000 A 
ATOM     13  C   UNL     1      16.433   4.537   0.000  0.00  0.00    +0.000 C 
ATOM     14  C   UNL     1      19.291   4.537   0.000  0.00  0.00    +0.000 C 
ATOM     15  C   UNL     1      17.862   6.188   0.000  0.00  0.00    +0.000 C 
ATOM     16  C   UNL     1      17.147   7.425   0.000  0.00  0.00    +0.000 C 
ATOM     17  C   UNL     1      20.005   3.300   0.000  0.00  0.00    +0.000 A 
ATOM     18  C   UNL     1      18.878  -0.032   0.000  0.00  0.00    +0.000 A 
ATOM     19  C   UNL     1      20.720   1.238   0.000  0.00  0.00    +0.000 A 
ATOM     20  C   UNL     1      18.576   4.950   0.000  0.00  0.00    +0.000 C 
ATOM     21  C   UNL     1      15.718   4.950   0.000  0.00  0.00    +0.000 C 
ATOM     22  C   UNL     1      17.862   1.238   0.000  0.00  0.00    +0.000 A 
ATOM     23  C   UNL     1      16.433   6.188   0.000  0.00  0.00    +0.000 C 
ATOM     24  C   UNL     1      19.291   3.712   0.000  0.00  0.00    +0.000 C 
ATOM     25  C   UNL     1      19.703  -0.032   0.000  0.00  0.00    +0.000 A 
ATOM     26  C   UNL     1      20.720   2.062   0.000  0.00  0.00    +0.000 A 
ATOM     27  N   UNL     1      18.623   0.753   0.000  0.00  0.00    +0.000 NA
ATOM     28  N   UNL     1      20.005   2.475   0.000  0.00  0.00    +0.000 NA
ATOM     29  N   UNL     1      19.958   0.753   0.000  0.00  0.00    +0.000 NA
ATOM     30  O   UNL     1      17.147   5.775   0.000  0.00  0.00    +0.000 OA
ATOM     31  O   UNL     1      17.147   8.250   0.000  0.00  0.00    +0.000 OA
ATOM     32  O   UNL     1      17.862   4.537   0.000  0.00  0.00    +0.000 OA
ATOM     33  O   UNL     1      16.768   5.434   0.000  0.00  0.00    +0.000 OA
ATOM     34  O   UNL     1      18.816   1.301   0.000  0.00  0.00    +0.000 OA
ATOM     35  O   UNL     1      21.225   2.757   0.000  0.00  0.00    +0.000 OA
ATOM     36  O   UNL     1      19.432   0.885   0.000  0.00  0.00    +0.000 OA
ATOM     37  O   UNL     1      15.718   5.775   0.000  0.00  0.00    +0.000 OA
ENDROOT
BRANCH  24  39
ATOM     38  C   UNL     1      20.812   3.954   0.000  0.00  0.00    +0.000 C 
ATOM     39  O   UNL     1      20.005   4.125   0.000  0.00  0.00    +0.000 OA
ENDBRANCH  24  39
BRANCH  21  40
ATOM     40  C   UNL     1      15.004   4.537   0.000  0.00  0.00    +0.000 C 
BRANCH  40  41
ATOM     41  C   UNL     1      14.289   4.950   0.000  0.00  0.00    +0.000 C 
BRANCH  41  43
ATOM     42  C   UNL     1      13.575   3.712   0.000  0.00  0.00    +0.000 C 
ATOM     43  C   UNL     1      13.575   4.537   0.000  0.00  0.00    +0.000 C 
BRANCH  43  44
ATOM     44  C   UNL     1      12.861   4.950   0.000  0.00  0.00    +0.000 C 
BRANCH  44  45
ATOM     45  C   UNL     1      12.146   4.537   0.000  0.00  0.00    +0.000 C 
BRANCH  45  46
ATOM     46  C   UNL     1      11.431   4.950   0.000  0.00  0.00    +0.000 C 
ATOM     47  O   UNL     1      11.431   5.775   0.000  0.00  0.00    +0.000 OA
BRANCH  46  49
ATOM     48  C   UNL     1      10.717   3.712   0.000  0.00  0.00    +0.000 C 
ATOM     49  C   UNL     1      10.717   4.537   0.000  0.00  0.00    +0.000 C 
BRANCH  49  50
ATOM     50  C   UNL     1      10.003   4.950   0.000  0.00  0.00    +0.000 C 
BRANCH  50  52
ATOM     51  C   UNL     1       9.288   6.188   0.000  0.00  0.00    +0.000 C 
ATOM     52  O   UNL     1      10.003   5.775   0.000  0.00  0.00    +0.000 OA
ENDBRANCH  50  52
BRANCH  50  53
ATOM     53  C   UNL     1       9.288   4.537   0.000  0.00  0.00    +0.000 C 
BRANCH  53  54
ATOM     54  C   UNL     1       8.574   4.950   0.000  0.00  0.00    +0.000 C 
ATOM     55  C   UNL     1       8.574   5.775   0.000  0.00  0.00    +0.000 C 
BRANCH  55  57
ATOM     56  C   UNL     1       7.859   7.013   0.000  0.00  0.00    +0.000 C 
ATOM     57  N   UNL     1       7.859   6.188   0.000  0.00  0.00    +0.000 N 
BRANCH  57  58
ATOM     58  C   UNL     1       7.145   5.775   0.000  0.00  0.00    +0.000 C 
ATOM     59  O   UNL     1       7.145   4.950   0.000  0.00  0.00    +0.000 OA
ENDBRANCH  57  58
ENDBRANCH  55  57
ENDBRANCH  53  54
ENDBRANCH  50  53
ENDBRANCH  49  50
ENDBRANCH  46  49
ENDBRANCH  45  46
ENDBRANCH  44  45
ENDBRANCH  43  44
ENDBRANCH  41  43
BRANCH  41  61
ATOM     60  C   UNL     1      15.004   6.188   0.000  0.00  0.00    +0.000 C 
ATOM     61  O   UNL     1      14.289   5.775   0.000  0.00  0.00    +0.000 OA
ENDBRANCH  41  61
ENDBRANCH  40  41
ENDBRANCH  21  40
TORSDOF 15
