REMARK  Name = 
REMARK  2 active torsions:
REMARK  status: ('A' for Active; 'I' for Inactive)
REMARK    1  A    between atoms: C_6  and  C_7
REMARK    2  A    between atoms: C_6  and  C_8
REMARK                            x       y       z     vdW  Elec       q    Type
REMARK                         _______ _______ _______ _____ _____    ______ ____
ROOT
ATOM      1  C   UNL     1      13.905 -11.281   0.000  0.00  0.00    +0.000 A 
ATOM      2  C   UNL     1      13.080 -11.281   0.000  0.00  0.00    +0.000 A 
ATOM      3  C   UNL     1      14.317 -11.995   0.000  0.00  0.00    +0.000 A 
ATOM      4  C   UNL     1      12.668 -11.995   0.000  0.00  0.00    +0.000 A 
ATOM      5  C   UNL     1      13.905 -12.710   0.000  0.00  0.00    +0.000 A 
ATOM      6  C   UNL     1      13.080 -12.710   0.000  0.00  0.00    +0.000 A 
ENDROOT
BRANCH   6   7
ATOM      7  C   UNL     1      12.668 -13.424   0.000  0.00  0.00    +0.000 C 
BRANCH   7   8
ATOM      8  C   UNL     1      11.843 -13.424   0.000  0.00  0.00    +0.000 C 
ATOM      9  N   UNL     1      11.430 -14.138   0.000  0.00  0.00    +0.000 NA
ENDBRANCH   7   8
ENDBRANCH   6   7
TORSDOF 2
