REMARK  Name = 
REMARK  12 active torsions:
REMARK  status: ('A' for Active; 'I' for Inactive)
REMARK    1  A    between atoms: C_3  and  C_8
REMARK    2  A    between atoms: C_4  and  C_10
REMARK    3  A    between atoms: C_5  and  C_11
REMARK    4  A    between atoms: C_6  and  C_12
REMARK    5  A    between atoms: C_9  and  N_32
REMARK    6  A    between atoms: C_13  and  N_32
REMARK    7  A    between atoms: C_25  and  O_53
REMARK    8  A    between atoms: C_26  and  O_54
REMARK    9  A    between atoms: C_27  and  O_55
REMARK   10  A    between atoms: C_29  and  O_54
REMARK   11  A    between atoms: C_30  and  O_55
REMARK   12  A    between atoms: C_31  and  O_53
REMARK                            x       y       z     vdW  Elec       q    Type
REMARK                         _______ _______ _______ _____ _____    ______ ____
ROOT
ATOM      1  C   UNL     1      -1.429   2.475   0.000  0.00  0.00    +0.000 C 
ATOM      2  C   UNL     1      -1.429   3.300   0.000  0.00  0.00    +0.000 C 
ATOM      3  C   UNL     1      -0.715   2.062   0.000  0.00  0.00    +0.000 C 
ATOM      4  C   UNL     1       0.000   2.475   0.000  0.00  0.00    +0.000 C 
ATOM      5  C   UNL     1       0.000   3.300   0.000  0.00  0.00    +0.000 C 
ATOM      6  C   UNL     1      -0.715   3.712   0.000  0.00  0.00    +0.000 C 
ATOM      7  O   UNL     1       0.715   2.062   0.000  0.00  0.00    +0.000 OA
ATOM      8  O   UNL     1       0.715   3.712   0.000  0.00  0.00    +0.000 OA
ENDROOT
BRANCH   2   9
ATOM      9  C   UNL     1      -2.143   3.712   0.000  0.00  0.00    +0.000 C 
ATOM     10  O   UNL     1      -2.143   4.537   0.000  0.00  0.00    +0.000 OA
ENDBRANCH   2   9
BRANCH   3  11
ATOM     11  N   UNL     1      -0.715   1.238   0.000  0.00  0.00    +0.000 NA
BRANCH  11  14
ATOM     12  C   UNL     1      -0.715  -0.412   0.000  0.00  0.00    +0.000 C 
ATOM     13  C   UNL     1      -1.429   0.000   0.000  0.00  0.00    +0.000 C 
ATOM     14  C   UNL     1      -1.429   0.825   0.000  0.00  0.00    +0.000 C 
ATOM     15  C   UNL     1      -2.143   1.238   0.000  0.00  0.00    +0.000 C 
ATOM     16  C   UNL     1      -2.858   0.825   0.000  0.00  0.00    +0.000 C 
ATOM     17  C   UNL     1      -2.858   0.000   0.000  0.00  0.00    +0.000 C 
ATOM     18  O   UNL     1      -2.143   2.062   0.000  0.00  0.00    +0.000 OA
ATOM     19  O   UNL     1      -3.572   1.238   0.000  0.00  0.00    +0.000 OA
ATOM     20  O   UNL     1      -2.143  -0.412   0.000  0.00  0.00    +0.000 OA
BRANCH  17  21
ATOM     21  O   UNL     1      -3.572  -0.412   0.000  0.00  0.00    +0.000 OA
BRANCH  21  25
ATOM     22  C   UNL     1      -4.287  -1.650   0.000  0.00  0.00    +0.000 C 
ATOM     23  C   UNL     1      -2.858  -1.650   0.000  0.00  0.00    +0.000 C 
ATOM     24  C   UNL     1      -2.858  -2.475   0.000  0.00  0.00    +0.000 C 
ATOM     25  C   UNL     1      -3.572  -1.238   0.000  0.00  0.00    +0.000 C 
ATOM     26  C   UNL     1      -3.572  -2.888   0.000  0.00  0.00    +0.000 C 
ATOM     27  O   UNL     1      -2.143  -1.238   0.000  0.00  0.00    +0.000 OA
ATOM     28  O   UNL     1      -2.143  -2.888   0.000  0.00  0.00    +0.000 OA
ATOM     29  O   UNL     1      -3.572  -3.712   0.000  0.00  0.00    +0.000 OA
ATOM     30  O   UNL     1      -4.287  -2.475   0.000  0.00  0.00    +0.000 OA
BRANCH  22  31
ATOM     31  C   UNL     1      -5.001  -1.238   0.000  0.00  0.00    +0.000 C 
ATOM     32  O   UNL     1      -5.716  -1.650   0.000  0.00  0.00    +0.000 OA
ENDBRANCH  22  31
ENDBRANCH  21  25
ENDBRANCH  17  21
ENDBRANCH  11  14
ENDBRANCH   3  11
BRANCH   6  33
ATOM     33  O   UNL     1      -0.715   4.537   0.000  0.00  0.00    +0.000 OA
BRANCH  33  38
ATOM     34  C   UNL     1       1.429   4.950   0.000  0.00  0.00    +0.000 C 
ATOM     35  C   UNL     1       0.715   6.188   0.000  0.00  0.00    +0.000 C 
ATOM     36  C   UNL     1       0.000   5.775   0.000  0.00  0.00    +0.000 C 
ATOM     37  C   UNL     1       1.429   5.775   0.000  0.00  0.00    +0.000 C 
ATOM     38  C   UNL     1       0.000   4.950   0.000  0.00  0.00    +0.000 C 
ATOM     39  O   UNL     1       0.715   7.013   0.000  0.00  0.00    +0.000 OA
ATOM     40  O   UNL     1      -0.715   6.188   0.000  0.00  0.00    +0.000 OA
ATOM     41  O   UNL     1       0.715   4.537   0.000  0.00  0.00    +0.000 OA
BRANCH  34  42
ATOM     42  C   UNL     1       2.143   4.537   0.000  0.00  0.00    +0.000 C 
ATOM     43  O   UNL     1       2.143   3.712   0.000  0.00  0.00    +0.000 OA
ENDBRANCH  34  42
BRANCH  37  44
ATOM     44  O   UNL     1       2.143   6.188   0.000  0.00  0.00    +0.000 OA
BRANCH  44  49
ATOM     45  C   UNL     1       1.429   8.250   0.000  0.00  0.00    +0.000 C 
ATOM     46  C   UNL     1       2.143   8.662   0.000  0.00  0.00    +0.000 C 
ATOM     47  C   UNL     1       2.858   8.250   0.000  0.00  0.00    +0.000 C 
ATOM     48  C   UNL     1       2.858   7.425   0.000  0.00  0.00    +0.000 C 
ATOM     49  C   UNL     1       2.143   7.013   0.000  0.00  0.00    +0.000 C 
ATOM     50  O   UNL     1       2.143   9.488   0.000  0.00  0.00    +0.000 OA
ATOM     51  O   UNL     1       3.572   8.662   0.000  0.00  0.00    +0.000 OA
ATOM     52  O   UNL     1       3.572   7.013   0.000  0.00  0.00    +0.000 OA
ATOM     53  O   UNL     1       1.429   7.425   0.000  0.00  0.00    +0.000 OA
BRANCH  45  54
ATOM     54  C   UNL     1       0.715   8.662   0.000  0.00  0.00    +0.000 C 
ATOM     55  O   UNL     1       0.715   9.488   0.000  0.00  0.00    +0.000 OA
ENDBRANCH  45  54
ENDBRANCH  44  49
ENDBRANCH  37  44
ENDBRANCH  33  38
ENDBRANCH   6  33
TORSDOF 12
