REMARK  Name = 
REMARK  8 active torsions:
REMARK  status: ('A' for Active; 'I' for Inactive)
REMARK    1  A    between atoms: C_12  and  C_17
REMARK    2  A    between atoms: C_13  and  C_18
REMARK    3  A    between atoms: C_14  and  C_18
REMARK    4  A    between atoms: C_15  and  O_27
REMARK    5  A    between atoms: C_16  and  O_27
REMARK    6  A    between atoms: C_18  and  O_28
REMARK    7  A    between atoms: C_20  and  C_21
REMARK    8  A    between atoms: C_21  and  O_28
REMARK                            x       y       z     vdW  Elec       q    Type
REMARK                         _______ _______ _______ _____ _____    ______ ____
ROOT
ATOM      1  C   UNL     1       2.143  -0.412   0.000  0.00  0.00    +0.000 C 
ENDROOT
BRANCH   1   6
ATOM      2  C   UNL     1       0.715  -2.062   0.000  0.00  0.00    +0.000 A 
ATOM      3  C   UNL     1       1.429  -1.650   0.000  0.00  0.00    +0.000 A 
ATOM      4  C   UNL     1       0.000  -1.650   0.000  0.00  0.00    +0.000 A 
ATOM      5  C   UNL     1       0.715  -0.412   0.000  0.00  0.00    +0.000 A 
ATOM      6  C   UNL     1       1.429  -0.825   0.000  0.00  0.00    +0.000 A 
ATOM      7  C   UNL     1       0.000  -0.825   0.000  0.00  0.00    +0.000 A 
BRANCH   7   8
ATOM      8  O   UNL     1      -0.715  -0.412   0.000  0.00  0.00    +0.000 OA
BRANCH   8  14
ATOM      9  C   UNL     1      -2.858  -1.650   0.000  0.00  0.00    +0.000 A 
ATOM     10  C   UNL     1      -2.143  -2.062   0.000  0.00  0.00    +0.000 A 
ATOM     11  C   UNL     1      -2.858  -0.825   0.000  0.00  0.00    +0.000 A 
ATOM     12  C   UNL     1      -1.429  -1.650   0.000  0.00  0.00    +0.000 A 
ATOM     13  C   UNL     1      -2.143  -0.412   0.000  0.00  0.00    +0.000 A 
ATOM     14  C   UNL     1      -1.429  -0.825   0.000  0.00  0.00    +0.000 A 
ENDBRANCH   8  14
ENDBRANCH   7   8
ENDBRANCH   1   6
BRANCH   1  15
ATOM     15  C   UNL     1       2.143   0.412   0.000  0.00  0.00    +0.000 C 
ATOM     16  N   UNL     1       2.143   1.238   0.000  0.00  0.00    +0.000 NA
ENDBRANCH   1  15
BRANCH   1  17
ATOM     17  O   UNL     1       2.858  -0.825   0.000  0.00  0.00    +0.000 OA
BRANCH  17  18
ATOM     18  C   UNL     1       3.572  -0.412   0.000  0.00  0.00    +0.000 C 
ATOM     19  O   UNL     1       3.572   0.412   0.000  0.00  0.00    +0.000 OA
BRANCH  18  23
ATOM     20  C   UNL     1       5.331  -2.070   0.000  0.00  0.00    +0.000 C 
ATOM     21  C   UNL     1       4.067  -2.070   0.000  0.00  0.00    +0.000 C 
ATOM     22  C   UNL     1       5.112  -0.825   0.000  0.00  0.00    +0.000 C 
ATOM     23  C   UNL     1       4.287  -0.825   0.000  0.00  0.00    +0.000 C 
ATOM     24  C   UNL     1       4.699  -1.540   0.000  0.00  0.00    +0.000 C 
BRANCH  22  25
ATOM     25  C   UNL     1       5.826  -0.412   0.000  0.00  0.00    +0.000 C 
ATOM     26  C   UNL     1       6.541  -0.825   0.000  0.00  0.00    +0.000 C 
ATOM     27 BR   UNL     1       7.255  -0.412   0.000  0.00  0.00    +0.000 Br
ATOM     28 BR   UNL     1       6.541  -1.650   0.000  0.00  0.00    +0.000 Br
ENDBRANCH  22  25
ENDBRANCH  18  23
ENDBRANCH  17  18
ENDBRANCH   1  17
TORSDOF 8
