REMARK  Name = 
REMARK  12 active torsions:
REMARK  status: ('A' for Active; 'I' for Inactive)
REMARK    1  A    between atoms: C_2  and  O_3
REMARK    2  A    between atoms: O_3  and  C_4
REMARK    3  A    between atoms: C_4  and  C_6
REMARK    4  A    between atoms: C_6  and  O_7
REMARK    5  A    between atoms: O_7  and  N_8
REMARK    6  A    between atoms: C_9  and  C_10
REMARK    7  A    between atoms: C_9  and  C_16
REMARK    8  A    between atoms: C_16  and  C_19
REMARK    9  A    between atoms: C_25  and  C_26
REMARK   10  A    between atoms: C_26  and  N_27
REMARK   11  A    between atoms: N_27  and  C_28
REMARK   12  A    between atoms: C_31  and  C_34
REMARK                            x       y       z     vdW  Elec       q    Type
REMARK                         _______ _______ _______ _____ _____    ______ ____
ROOT
ATOM      1  C   UNL     1       3.352   1.935   0.000  0.00  0.00    +0.000 A 
ATOM      2  C   UNL     1       3.352   1.110   0.000  0.00  0.00    +0.000 A 
ATOM      3  C   UNL     1       2.638   0.698   0.000  0.00  0.00    +0.000 A 
ATOM      4  C   UNL     1       1.923   1.110   0.000  0.00  0.00    +0.000 A 
ATOM      5  N   UNL     1       1.139   0.856   0.000  0.00  0.00    +0.000 N 
ATOM      6  C   UNL     1       0.884   0.071   0.000  0.00  0.00    +0.000 C 
ATOM      7  C   UNL     1       0.654   1.523   0.000  0.00  0.00    +0.000 A 
ATOM      8  N   UNL     1       1.139   2.190   0.000  0.00  0.00    +0.000 NA
ATOM      9  C   UNL     1       1.923   1.935   0.000  0.00  0.00    +0.000 A 
ATOM     10  C   UNL     1       2.638   2.348   0.000  0.00  0.00    +0.000 A 
ENDROOT
BRANCH   1  11
ATOM     11  C   UNL     1       4.067   2.348   0.000  0.00  0.00    +0.000 C 
ATOM     12  C   UNL     1       3.785   3.123   0.000  0.00  0.00    +0.000 C 
ATOM     13  C   UNL     1       4.597   2.980   0.000  0.00  0.00    +0.000 C 
BRANCH  11  15
ATOM     14  N   UNL     1       4.315   0.941   0.000  0.00  0.00    +0.000 NA
ATOM     15  C   UNL     1       4.597   1.716   0.000  0.00  0.00    +0.000 C 
BRANCH  15  16
ATOM     16  C   UNL     1       5.410   1.859   0.000  0.00  0.00    +0.000 A 
ATOM     17  C   UNL     1       5.692   2.635   0.000  0.00  0.00    +0.000 A 
ATOM     18  C   UNL     1       6.504   2.778   0.000  0.00  0.00    +0.000 A 
ATOM     19  C   UNL     1       7.035   2.146   0.000  0.00  0.00    +0.000 A 
ATOM     20  C   UNL     1       6.752   1.371   0.000  0.00  0.00    +0.000 A 
ATOM     21  N   UNL     1       5.940   1.227   0.000  0.00  0.00    +0.000 NA
ENDBRANCH  15  16
BRANCH  14  22
ATOM     22  O   UNL     1       3.502   0.797   0.000  0.00  0.00    +0.000 OA
BRANCH  22  23
ATOM     23  C   UNL     1       3.220   0.022   0.000  0.00  0.00    +0.000 C 
BRANCH  23  24
ATOM     24  C   UNL     1       2.408  -0.121   0.000  0.00  0.00    +0.000 C 
ATOM     25  O   UNL     1       1.877   0.511   0.000  0.00  0.00    +0.000 OA
BRANCH  24  26
ATOM     26  O   UNL     1       2.126  -0.896   0.000  0.00  0.00    +0.000 OA
BRANCH  26  28
ATOM     27  C   UNL     1       1.031  -1.815   0.000  0.00  0.00    +0.000 C 
ATOM     28  C   UNL     1       1.313  -1.040   0.000  0.00  0.00    +0.000 C 
ENDBRANCH  26  28
ENDBRANCH  24  26
ENDBRANCH  23  24
ENDBRANCH  22  23
ENDBRANCH  14  22
ENDBRANCH  11  15
ENDBRANCH   1  11
BRANCH   7  29
ATOM     29  C   UNL     1      -0.171   1.523   0.000  0.00  0.00    +0.000 C 
BRANCH  29  30
ATOM     30  N   UNL     1      -0.584   0.808   0.000  0.00  0.00    +0.000 NA
BRANCH  30  31
ATOM     31  C   UNL     1      -1.409   0.808   0.000  0.00  0.00    +0.000 A 
ATOM     32  C   UNL     1      -1.821   0.094   0.000  0.00  0.00    +0.000 A 
ATOM     33  C   UNL     1      -2.646   0.094   0.000  0.00  0.00    +0.000 A 
ATOM     34  C   UNL     1      -3.059   0.808   0.000  0.00  0.00    +0.000 A 
ATOM     35  C   UNL     1      -2.646   1.523   0.000  0.00  0.00    +0.000 A 
ATOM     36  C   UNL     1      -1.821   1.523   0.000  0.00  0.00    +0.000 A 
BRANCH  34  37
ATOM     37  C   UNL     1      -3.884   0.808   0.000  0.00  0.00    +0.000 C 
ATOM     38  N   UNL     1      -4.296   1.523   0.000  0.00  0.00    +0.000 NA
ATOM     39  N   UNL     1      -4.296   0.094   0.000  0.00  0.00    +0.000 NA
ENDBRANCH  34  37
ENDBRANCH  30  31
ENDBRANCH  29  30
ENDBRANCH   7  29
TORSDOF 12
