REMARK  Name = 
REMARK  10 active torsions:
REMARK  status: ('A' for Active; 'I' for Inactive)
REMARK    1  A    between atoms: P_2  and  C_5
REMARK    2  A    between atoms: C_5  and  C_8
REMARK    3  A    between atoms: C_11  and  C_12
REMARK    4  A    between atoms: C_12  and  C_13
REMARK    5  A    between atoms: C_13  and  C_14
REMARK    6  A    between atoms: C_13  and  N_28
REMARK    7  A    between atoms: C_13  and  C_37
REMARK    8  A    between atoms: C_14  and  C_15
REMARK    9  A    between atoms: C_18  and  C_21
REMARK   10  A    between atoms: C_21  and  P_24
REMARK                            x       y       z     vdW  Elec       q    Type
REMARK                         _______ _______ _______ _____ _____    ______ ____
ROOT
ATOM      1  C   UNL     1      -0.373   1.231   0.000  0.00  0.00    +0.000 C 
ENDROOT
BRANCH   1   2
ATOM      2  N   UNL     1      -0.118   0.447   0.000  0.00  0.00    +0.000 N 
ATOM      3  N   UNL     1      -0.603  -0.221   0.000  0.00  0.00    +0.000 NA
ATOM      4  N   UNL     1      -0.118  -0.888   0.000  0.00  0.00    +0.000 NA
ATOM      5  C   UNL     1       0.666  -0.633   0.000  0.00  0.00    +0.000 A 
ATOM      6  C   UNL     1       0.666   0.192   0.000  0.00  0.00    +0.000 A 
ATOM      7  C   UNL     1       1.381   0.604   0.000  0.00  0.00    +0.000 A 
ATOM      8  C   UNL     1       2.095   0.192   0.000  0.00  0.00    +0.000 A 
ATOM      9  C   UNL     1       2.095  -0.633   0.000  0.00  0.00    +0.000 A 
ATOM     10  C   UNL     1       1.381  -1.046   0.000  0.00  0.00    +0.000 A 
ENDBRANCH   1   2
BRANCH   1  11
ATOM     11  C   UNL     1      -0.373   2.056   0.000  0.00  0.00    +0.000 A 
ATOM     12  C   UNL     1      -1.088   2.469   0.000  0.00  0.00    +0.000 A 
ATOM     13  C   UNL     1      -1.088   3.294   0.000  0.00  0.00    +0.000 A 
ATOM     14  C   UNL     1      -0.373   3.706   0.000  0.00  0.00    +0.000 A 
ATOM     15  F   UNL     1      -0.373   4.531   0.000  0.00  0.00    +0.000 F 
ATOM     16  C   UNL     1       0.341   3.294   0.000  0.00  0.00    +0.000 A 
ATOM     17  F   UNL     1       1.056   3.706   0.000  0.00  0.00    +0.000 F 
ATOM     18  C   UNL     1       0.341   2.469   0.000  0.00  0.00    +0.000 A 
ENDBRANCH   1  11
BRANCH   1  19
ATOM     19  C   UNL     1      -1.198   1.231   0.000  0.00  0.00    +0.000 C 
BRANCH  19  23
ATOM     20  C   UNL     1      -2.436  -0.912   0.000  0.00  0.00    +0.000 A 
ATOM     21  C   UNL     1      -2.848  -0.198   0.000  0.00  0.00    +0.000 A 
ATOM     22  C   UNL     1      -2.436   0.517   0.000  0.00  0.00    +0.000 A 
ATOM     23  C   UNL     1      -1.611   0.517   0.000  0.00  0.00    +0.000 A 
ATOM     24  C   UNL     1      -1.198  -0.198   0.000  0.00  0.00    +0.000 A 
ATOM     25  C   UNL     1      -1.611  -0.912   0.000  0.00  0.00    +0.000 A 
BRANCH  20  26
ATOM     26  C   UNL     1      -2.848  -1.627   0.000  0.00  0.00    +0.000 C 
ATOM     27  F   UNL     1      -2.134  -2.039   0.000  0.00  0.00    +0.000 F 
ATOM     28  F   UNL     1      -3.563  -1.214   0.000  0.00  0.00    +0.000 F 
BRANCH  26  30
ATOM     29  O   UNL     1      -3.673  -3.056   0.000  0.00  0.00    +0.000 OA
ATOM     30  P   UNL     1      -3.261  -2.341   0.000  0.00  0.00    +0.000 P 
ATOM     31  O   UNL     1      -2.546  -2.754   0.000  0.00  0.00    +0.000 OA
ATOM     32  O   UNL     1      -3.975  -1.929   0.000  0.00  0.00    +0.000 OA
ENDBRANCH  26  30
ENDBRANCH  20  26
ENDBRANCH  19  23
ENDBRANCH   1  19
BRANCH   1  33
ATOM     33  C   UNL     1       0.452   1.231   0.000  0.00  0.00    +0.000 C 
BRANCH  33  34
ATOM     34  C   UNL     1       1.065   1.783   0.000  0.00  0.00    +0.000 A 
ATOM     35  C   UNL     1       0.893   2.590   0.000  0.00  0.00    +0.000 A 
ATOM     36  C   UNL     1       1.506   3.142   0.000  0.00  0.00    +0.000 A 
ATOM     37  C   UNL     1       2.291   2.887   0.000  0.00  0.00    +0.000 A 
ATOM     38  C   UNL     1       2.462   2.080   0.000  0.00  0.00    +0.000 A 
ATOM     39  C   UNL     1       1.849   1.528   0.000  0.00  0.00    +0.000 A 
BRANCH  37  40
ATOM     40  C   UNL     1       2.904   3.439   0.000  0.00  0.00    +0.000 C 
ATOM     41  F   UNL     1       3.456   2.826   0.000  0.00  0.00    +0.000 F 
ATOM     42  F   UNL     1       2.352   4.052   0.000  0.00  0.00    +0.000 F 
BRANCH  40  43
ATOM     43  P   UNL     1       3.517   3.991   0.000  0.00  0.00    +0.000 P 
ATOM     44  O   UNL     1       4.130   4.543   0.000  0.00  0.00    +0.000 OA
ATOM     45  O   UNL     1       4.069   3.378   0.000  0.00  0.00    +0.000 OA
ATOM     46  O   UNL     1       2.965   4.604   0.000  0.00  0.00    +0.000 OA
ENDBRANCH  40  43
ENDBRANCH  37  40
ENDBRANCH  33  34
ENDBRANCH   1  33
TORSDOF 10
