REMARK  Name = 
REMARK  4 active torsions:
REMARK  status: ('A' for Active; 'I' for Inactive)
REMARK    1  A    between atoms: C_3  and  C_14
REMARK    2  A    between atoms: N_4  and  C_12
REMARK    3  A    between atoms: C_13  and  C_25
REMARK    4  A    between atoms: N_20  and  O_27
REMARK                            x       y       z     vdW  Elec       q    Type
REMARK                         _______ _______ _______ _____ _____    ______ ____
ROOT
ATOM      1  C   UNL     1      13.465  -4.378   0.000  0.00  0.00    +0.000 A 
ATOM      2  C   UNL     1      13.465  -3.550   0.000  0.00  0.00    +0.000 A 
ATOM      3  C   UNL     1      14.897  -3.550   0.000  0.00  0.00    +0.000 A 
ATOM      4  N   UNL     1      14.177  -4.790   0.000  0.00  0.00    +0.000 N 
ATOM      5  N   UNL     1      12.741  -4.790   0.000  0.00  0.00    +0.000 NA
ATOM      6  N   UNL     1      11.277  -4.802   0.000  0.00  0.00    +0.000 N 
ATOM      7  C   UNL     1      14.177  -3.129   0.000  0.00  0.00    +0.000 A 
ATOM      8  C   UNL     1      12.038  -4.378   0.000  0.00  0.00    +0.000 A 
ATOM      9  C   UNL     1      14.897  -4.378   0.000  0.00  0.00    +0.000 A 
ATOM     10  C   UNL     1       9.945  -4.790   0.000  0.00  0.00    +0.000 C 
ATOM     11  C   UNL     1      12.741  -3.129   0.000  0.00  0.00    +0.000 A 
ATOM     12  C   UNL     1      10.195  -5.576   0.000  0.00  0.00    +0.000 C 
ATOM     13  C   UNL     1      12.038  -3.550   0.000  0.00  0.00    +0.000 A 
ATOM     14  C   UNL     1      10.607  -4.303   0.000  0.00  0.00    +0.000 C 
ATOM     15  C   UNL     1      11.019  -5.576   0.000  0.00  0.00    +0.000 C 
ATOM     16  N   UNL     1       9.167  -4.527   0.000  0.00  0.00    +0.000 NA
ATOM     17  O   UNL     1      14.177  -2.305   0.000  0.00  0.00    +0.000 OA
ATOM     18  F   UNL     1      11.314  -3.138   0.000  0.00  0.00    +0.000 F 
ENDROOT
BRANCH   4  19
ATOM     19  C   UNL     1      14.177  -5.613   0.000  0.00  0.00    +0.000 C 
ATOM     20  C   UNL     1      13.773  -6.325   0.000  0.00  0.00    +0.000 C 
ATOM     21  C   UNL     1      14.589  -6.325   0.000  0.00  0.00    +0.000 C 
ENDBRANCH   4  19
BRANCH   3  22
ATOM     22  C   UNL     1      15.620  -3.138   0.000  0.00  0.00    +0.000 C 
ATOM     23  O   UNL     1      15.620  -2.314   0.000  0.00  0.00    +0.000 OA
ATOM     24  O   UNL     1      16.324  -3.550   0.000  0.00  0.00    +0.000 OA
ENDBRANCH   3  22
BRANCH  12  25
ATOM     25  C   UNL     1       9.704  -6.237   0.000  0.00  0.00    +0.000 C 
ATOM     26  N   UNL     1      10.028  -6.986   0.000  0.00  0.00    +0.000 NA
ENDBRANCH  12  25
BRANCH  16  27
ATOM     27  O   UNL     1       8.954  -3.730   0.000  0.00  0.00    +0.000 OA
ATOM     28  C   UNL     1       8.157  -3.517   0.000  0.00  0.00    +0.000 C 
ENDBRANCH  16  27
TORSDOF 4
