REMARK  Name = 
REMARK  2 active torsions:
REMARK  status: ('A' for Active; 'I' for Inactive)
REMARK    1  A    between atoms: C_6  and  O_15
REMARK    2  A    between atoms: O_15  and  P_16
REMARK                            x       y       z     vdW  Elec       q    Type
REMARK                         _______ _______ _______ _____ _____    ______ ____
ROOT
ATOM      1  C   UNL     1       1.429   0.825   0.000  0.00  0.00    +0.000 C 
ATOM      2  C   UNL     1       0.715   1.238   0.000  0.00  0.00    +0.000 C 
ATOM      3  C   UNL     1       1.429   0.000   0.000  0.00  0.00    +0.000 C 
ATOM      4  C   UNL     1       0.000   0.825   0.000  0.00  0.00    +0.000 C 
ATOM      5  C   UNL     1       0.715  -0.412   0.000  0.00  0.00    +0.000 C 
ATOM      6  C   UNL     1       0.000   0.000   0.000  0.00  0.00    +0.000 C 
ATOM      7  O   UNL     1       2.143   1.238   0.000  0.00  0.00    +0.000 OA
ATOM      8  O   UNL     1       0.715   2.062   0.000  0.00  0.00    +0.000 OA
ATOM      9  O   UNL     1       2.143  -0.412   0.000  0.00  0.00    +0.000 OA
ATOM     10  O   UNL     1      -0.715   1.238   0.000  0.00  0.00    +0.000 OA
ATOM     11  O   UNL     1       0.715  -1.238   0.000  0.00  0.00    +0.000 OA
ENDROOT
BRANCH   6  12
ATOM     12  O   UNL     1      -0.715  -0.412   0.000  0.00  0.00    +0.000 OA
BRANCH  12  16
ATOM     13  O   UNL     1      -0.715  -2.062   0.000  0.00  0.00    +0.000 OA
ATOM     14  O   UNL     1      -1.540  -1.238   0.000  0.00  0.00    +0.000 OA
ATOM     15  O   UNL     1       0.111  -1.238   0.000  0.00  0.00    +0.000 OA
ATOM     16  P   UNL     1      -0.715  -1.238   0.000  0.00  0.00    +0.000 P 
ENDBRANCH  12  16
ENDBRANCH   6  12
TORSDOF 2
