REMARK  Name = 
REMARK  7 active torsions:
REMARK  status: ('A' for Active; 'I' for Inactive)
REMARK    1  A    between atoms: N_6  and  C_9
REMARK    2  A    between atoms: C_12  and  O_15
REMARK    3  A    between atoms: O_15  and  C_16
REMARK    4  A    between atoms: C_16  and  C_17
REMARK    5  A    between atoms: C_20  and  C_21
REMARK    6  A    between atoms: C_20  and  C_27
REMARK    7  A    between atoms: C_21  and  N_22
REMARK                            x       y       z     vdW  Elec       q    Type
REMARK                         _______ _______ _______ _____ _____    ______ ____
ROOT
ATOM      1  C   UNL     1      10.362  -6.619   0.000  0.00  0.00    +0.000 C 
ATOM      2  C   UNL     1      10.698  -5.865   0.000  0.00  0.00    +0.000 C 
ATOM      3  O   UNL     1      10.085  -5.313   0.000  0.00  0.00    +0.000 OA
ATOM      4  C   UNL     1       9.370  -5.726   0.000  0.00  0.00    +0.000 C 
ATOM      5  O   UNL     1       9.541  -6.533   0.000  0.00  0.00    +0.000 OA
ENDROOT
BRANCH   4   6
ATOM      6  C   UNL     1       8.550  -5.812   0.000  0.00  0.00    +0.000 A 
ATOM      7  C   UNL     1       8.065  -5.145   0.000  0.00  0.00    +0.000 A 
ATOM      8  C   UNL     1       7.245  -5.231   0.000  0.00  0.00    +0.000 A 
ATOM      9  C   UNL     1       6.909  -5.984   0.000  0.00  0.00    +0.000 A 
ATOM     10  C   UNL     1       7.394  -6.652   0.000  0.00  0.00    +0.000 A 
ATOM     11  C   UNL     1       8.214  -6.566   0.000  0.00  0.00    +0.000 A 
ATOM     12 CL   UNL     1       8.699  -7.233   0.000  0.00  0.00    +0.000 Cl
ATOM     13 CL   UNL     1       6.088  -6.071   0.000  0.00  0.00    +0.000 Cl
ENDBRANCH   4   6
BRANCH   1  14
ATOM     14  C   UNL     1      10.775  -7.334   0.000  0.00  0.00    +0.000 C 
BRANCH  14  15
ATOM     15  O   UNL     1      11.600  -7.334   0.000  0.00  0.00    +0.000 OA
BRANCH  15  19
ATOM     16  C   UNL     1      12.837  -9.477   0.000  0.00  0.00    +0.000 A 
ATOM     17  C   UNL     1      13.249  -8.763   0.000  0.00  0.00    +0.000 A 
ATOM     18  C   UNL     1      12.837  -8.048   0.000  0.00  0.00    +0.000 A 
ATOM     19  C   UNL     1      12.012  -8.048   0.000  0.00  0.00    +0.000 A 
ATOM     20  C   UNL     1      11.600  -8.763   0.000  0.00  0.00    +0.000 A 
ATOM     21  C   UNL     1      12.012  -9.477   0.000  0.00  0.00    +0.000 A 
BRANCH  16  27
ATOM     22  C   UNL     1      14.074 -13.049   0.000  0.00  0.00    +0.000 C 
ATOM     23  C   UNL     1      14.487 -12.335   0.000  0.00  0.00    +0.000 C 
ATOM     24  N   UNL     1      14.074 -11.620   0.000  0.00  0.00    +0.000 N 
ATOM     25  C   UNL     1      14.487 -10.906   0.000  0.00  0.00    +0.000 C 
ATOM     26  C   UNL     1      14.074 -10.191   0.000  0.00  0.00    +0.000 C 
ATOM     27  N   UNL     1      13.249 -10.191   0.000  0.00  0.00    +0.000 N 
ATOM     28  C   UNL     1      12.837 -10.906   0.000  0.00  0.00    +0.000 C 
ATOM     29  C   UNL     1      13.249 -11.620   0.000  0.00  0.00    +0.000 C 
ATOM     30  O   UNL     1      15.312 -12.335   0.000  0.00  0.00    +0.000 OA
ENDBRANCH  16  27
ENDBRANCH  15  19
ENDBRANCH  14  15
ENDBRANCH   1  14
BRANCH   4  31
ATOM     31  C   UNL     1       8.885  -5.059   0.000  0.00  0.00    +0.000 C 
BRANCH  31  32
ATOM     32  N   UNL     1       9.221  -4.305   0.000  0.00  0.00    +0.000 N 
ATOM     33  C   UNL     1      10.028  -4.134   0.000  0.00  0.00    +0.000 A 
ATOM     34  C   UNL     1      10.114  -3.313   0.000  0.00  0.00    +0.000 A 
ATOM     35  N   UNL     1       9.360  -2.978   0.000  0.00  0.00    +0.000 NA
ATOM     36  C   UNL     1       8.808  -3.590   0.000  0.00  0.00    +0.000 A 
ENDBRANCH  31  32
ENDBRANCH   4  31
TORSDOF 7
