REMARK  Name = 
REMARK  3 active torsions:
REMARK  status: ('A' for Active; 'I' for Inactive)
REMARK    1  A    between atoms: C_4  and  C_15
REMARK    2  A    between atoms: C_8  and  C_9
REMARK    3  A    between atoms: C_9  and  C_10
REMARK                            x       y       z     vdW  Elec       q    Type
REMARK                         _______ _______ _______ _____ _____    ______ ____
ROOT
ATOM      1  C   UNL     1       3.466   3.528   0.000  0.00  0.00    +0.000 C 
ATOM      2  C   UNL     1       4.180   3.115   0.000  0.00  0.00    +0.000 A 
ATOM      3  C   UNL     1       4.895   3.528   0.000  0.00  0.00    +0.000 A 
ATOM      4  C   UNL     1       5.609   3.115   0.000  0.00  0.00    +0.000 A 
ATOM      5  C   UNL     1       5.609   2.290   0.000  0.00  0.00    +0.000 A 
ATOM      6  C   UNL     1       4.895   1.878   0.000  0.00  0.00    +0.000 A 
ATOM      7  C   UNL     1       4.895   1.053   0.000  0.00  0.00    +0.000 C 
ATOM      8  C   UNL     1       4.180   2.290   0.000  0.00  0.00    +0.000 A 
ENDROOT
BRANCH   4   9
ATOM      9  C   UNL     1       6.324   3.528   0.000  0.00  0.00    +0.000 C 
ATOM     10  C   UNL     1       7.038   3.940   0.000  0.00  0.00    +0.000 C 
ATOM     11  C   UNL     1       6.736   2.813   0.000  0.00  0.00    +0.000 C 
ATOM     12  C   UNL     1       5.911   4.242   0.000  0.00  0.00    +0.000 C 
ENDBRANCH   4   9
BRANCH   8  13
ATOM     13  C   UNL     1       3.466   1.878   0.000  0.00  0.00    +0.000 C 
BRANCH  13  14
ATOM     14  C   UNL     1       3.466   1.053   0.000  0.00  0.00    +0.000 C 
ATOM     15  N   UNL     1       4.133   0.568   0.000  0.00  0.00    +0.000 NA
ATOM     16  C   UNL     1       3.878  -0.217   0.000  0.00  0.00    +0.000 C 
ATOM     17  C   UNL     1       3.053  -0.217   0.000  0.00  0.00    +0.000 C 
ATOM     18  N   UNL     1       2.798   0.568   0.000  0.00  0.00    +0.000 NA
ENDBRANCH  13  14
ENDBRANCH   8  13
TORSDOF 3
