REMARK  Name = 
REMARK  16 active torsions:
REMARK  status: ('A' for Active; 'I' for Inactive)
REMARK    1  A    between atoms: C_1  and  C_7
REMARK    2  A    between atoms: C_2  and  C_8
REMARK    3  A    between atoms: C_3  and  C_9
REMARK    4  A    between atoms: C_4  and  C_10
REMARK    5  A    between atoms: C_5  and  C_11
REMARK    6  A    between atoms: C_6  and  C_12
REMARK    7  A    between atoms: C_26  and  O_63
REMARK    8  A    between atoms: C_27  and  O_64
REMARK    9  A    between atoms: C_28  and  S_65
REMARK   10  A    between atoms: C_29  and  S_66
REMARK   11  A    between atoms: C_30  and  S_67
REMARK   12  A    between atoms: C_32  and  O_64
REMARK   13  A    between atoms: C_33  and  O_63
REMARK   14  A    between atoms: C_34  and  S_66
REMARK   15  A    between atoms: C_35  and  S_65
REMARK   16  A    between atoms: C_36  and  S_67
REMARK                            x       y       z     vdW  Elec       q    Type
REMARK                         _______ _______ _______ _____ _____    ______ ____
ROOT
ATOM      1  S   UNL     1       7.859  -8.662   0.000  0.00  0.00    +0.000 S 
ENDROOT
BRANCH   1   6
ATOM      2  C   UNL     1       6.430 -10.312   0.000  0.00  0.00    +0.000 C 
ATOM      3  C   UNL     1       5.716  -9.075   0.000  0.00  0.00    +0.000 C 
ATOM      4  C   UNL     1       6.430  -8.662   0.000  0.00  0.00    +0.000 C 
ATOM      5  C   UNL     1       5.716  -9.900   0.000  0.00  0.00    +0.000 C 
ATOM      6  C   UNL     1       7.145  -9.075   0.000  0.00  0.00    +0.000 C 
ATOM      7  O   UNL     1       5.001  -8.662   0.000  0.00  0.00    +0.000 OA
ATOM      8  O   UNL     1       6.430  -7.838   0.000  0.00  0.00    +0.000 OA
ATOM      9  O   UNL     1       7.145  -9.900   0.000  0.00  0.00    +0.000 OA
BRANCH   2  10
ATOM     10  C   UNL     1       6.430 -11.137   0.000  0.00  0.00    +0.000 C 
ATOM     11  O   UNL     1       5.716 -11.550   0.000  0.00  0.00    +0.000 OA
ENDBRANCH   2  10
BRANCH   5  12
ATOM     12  O   UNL     1       5.001 -10.312   0.000  0.00  0.00    +0.000 OA
BRANCH  12  17
ATOM     13  C   UNL     1       3.572  -8.662   0.000  0.00  0.00    +0.000 C 
ATOM     14  C   UNL     1       2.858  -9.900   0.000  0.00  0.00    +0.000 C 
ATOM     15  C   UNL     1       3.572 -10.312   0.000  0.00  0.00    +0.000 C 
ATOM     16  C   UNL     1       2.858  -9.075   0.000  0.00  0.00    +0.000 C 
ATOM     17  C   UNL     1       4.287  -9.900   0.000  0.00  0.00    +0.000 C 
ATOM     18  O   UNL     1       2.143 -10.312   0.000  0.00  0.00    +0.000 OA
ATOM     19  O   UNL     1       3.572 -11.137   0.000  0.00  0.00    +0.000 OA
ATOM     20  O   UNL     1       4.287  -9.075   0.000  0.00  0.00    +0.000 OA
BRANCH  13  21
ATOM     21  C   UNL     1       3.572  -7.838   0.000  0.00  0.00    +0.000 C 
ATOM     22  O   UNL     1       4.287  -7.425   0.000  0.00  0.00    +0.000 OA
ENDBRANCH  13  21
BRANCH  16  23
ATOM     23  S   UNL     1       2.143  -8.662   0.000  0.00  0.00    +0.000 S 
BRANCH  23  28
ATOM     24  C   UNL     1       2.858  -6.600   0.000  0.00  0.00    +0.000 C 
ATOM     25  C   UNL     1       2.143  -6.188   0.000  0.00  0.00    +0.000 C 
ATOM     26  C   UNL     1       1.429  -6.600   0.000  0.00  0.00    +0.000 C 
ATOM     27  C   UNL     1       1.429  -7.425   0.000  0.00  0.00    +0.000 C 
ATOM     28  C   UNL     1       2.143  -7.838   0.000  0.00  0.00    +0.000 C 
ATOM     29  O   UNL     1       2.143  -5.362   0.000  0.00  0.00    +0.000 OA
ATOM     30  O   UNL     1       0.715  -6.188   0.000  0.00  0.00    +0.000 OA
ATOM     31  O   UNL     1       0.715  -7.838   0.000  0.00  0.00    +0.000 OA
ATOM     32  O   UNL     1       2.858  -7.425   0.000  0.00  0.00    +0.000 OA
BRANCH  24  33
ATOM     33  C   UNL     1       3.572  -6.188   0.000  0.00  0.00    +0.000 C 
ATOM     34  O   UNL     1       3.572  -5.362   0.000  0.00  0.00    +0.000 OA
ENDBRANCH  24  33
ENDBRANCH  23  28
ENDBRANCH  16  23
ENDBRANCH  12  17
ENDBRANCH   5  12
ENDBRANCH   1   6
BRANCH   1  38
ATOM     35  C   UNL     1       9.288  -8.662   0.000  0.00  0.00    +0.000 C 
ATOM     36  C   UNL     1       8.574  -9.900   0.000  0.00  0.00    +0.000 C 
ATOM     37  C   UNL     1       9.288 -10.312   0.000  0.00  0.00    +0.000 C 
ATOM     38  C   UNL     1       8.574  -9.075   0.000  0.00  0.00    +0.000 C 
ATOM     39  C   UNL     1      10.003  -9.900   0.000  0.00  0.00    +0.000 C 
ATOM     40  O   UNL     1       7.859 -10.312   0.000  0.00  0.00    +0.000 OA
ATOM     41  O   UNL     1       9.288 -11.137   0.000  0.00  0.00    +0.000 OA
ATOM     42  O   UNL     1      10.003  -9.075   0.000  0.00  0.00    +0.000 OA
BRANCH  35  43
ATOM     43  C   UNL     1       9.288  -7.838   0.000  0.00  0.00    +0.000 C 
ATOM     44  O   UNL     1       8.574  -7.425   0.000  0.00  0.00    +0.000 OA
ENDBRANCH  35  43
BRANCH  39  45
ATOM     45  O   UNL     1      10.717 -10.312   0.000  0.00  0.00    +0.000 OA
BRANCH  45  49
ATOM     46  C   UNL     1      12.146 -10.312   0.000  0.00  0.00    +0.000 C 
ATOM     47  C   UNL     1      11.431  -9.075   0.000  0.00  0.00    +0.000 C 
ATOM     48  C   UNL     1      12.146  -8.662   0.000  0.00  0.00    +0.000 C 
ATOM     49  C   UNL     1      11.431  -9.900   0.000  0.00  0.00    +0.000 C 
ATOM     50  C   UNL     1      12.861  -9.075   0.000  0.00  0.00    +0.000 C 
ATOM     51  O   UNL     1      10.717  -8.662   0.000  0.00  0.00    +0.000 OA
ATOM     52  O   UNL     1      12.146  -7.838   0.000  0.00  0.00    +0.000 OA
ATOM     53  O   UNL     1      12.861  -9.900   0.000  0.00  0.00    +0.000 OA
BRANCH  46  54
ATOM     54  C   UNL     1      12.146 -11.137   0.000  0.00  0.00    +0.000 C 
ATOM     55  O   UNL     1      12.861 -11.550   0.000  0.00  0.00    +0.000 OA
ENDBRANCH  46  54
BRANCH  50  56
ATOM     56  S   UNL     1      13.575  -8.662   0.000  0.00  0.00    +0.000 S 
BRANCH  56  60
ATOM     57  C   UNL     1      15.004  -8.662   0.000  0.00  0.00    +0.000 C 
ATOM     58  C   UNL     1      14.289  -9.900   0.000  0.00  0.00    +0.000 C 
ATOM     59  C   UNL     1      15.004 -10.312   0.000  0.00  0.00    +0.000 C 
ATOM     60  C   UNL     1      14.289  -9.075   0.000  0.00  0.00    +0.000 C 
ATOM     61  C   UNL     1      15.718  -9.900   0.000  0.00  0.00    +0.000 C 
ATOM     62  O   UNL     1      13.575 -10.312   0.000  0.00  0.00    +0.000 OA
ATOM     63  O   UNL     1      15.004 -11.137   0.000  0.00  0.00    +0.000 OA
ATOM     64  O   UNL     1      16.433 -10.312   0.000  0.00  0.00    +0.000 OA
ATOM     65  O   UNL     1      15.718  -9.075   0.000  0.00  0.00    +0.000 OA
BRANCH  57  66
ATOM     66  C   UNL     1      15.004  -7.838   0.000  0.00  0.00    +0.000 C 
ATOM     67  O   UNL     1      15.718  -7.425   0.000  0.00  0.00    +0.000 OA
ENDBRANCH  57  66
ENDBRANCH  56  60
ENDBRANCH  50  56
ENDBRANCH  45  49
ENDBRANCH  39  45
ENDBRANCH   1  38
TORSDOF 16
