REMARK  Name = 
REMARK  6 active torsions:
REMARK  status: ('A' for Active; 'I' for Inactive)
REMARK    1  A    between atoms: C_3  and  C_4
REMARK    2  A    between atoms: C_4  and  C_7
REMARK    3  A    between atoms: C_7  and  O_15
REMARK    4  A    between atoms: C_9  and  C_10
REMARK    5  A    between atoms: C_9  and  O_15
REMARK    6  A    between atoms: C_12  and  O_14
REMARK                            x       y       z     vdW  Elec       q    Type
REMARK                         _______ _______ _______ _____ _____    ______ ____
ROOT
ATOM      1  C   UNL     1       0.000   0.000   0.000  0.00  0.00    +0.000 A 
ATOM      2  C   UNL     1       0.715  -0.412   0.000  0.00  0.00    +0.000 A 
ATOM      3  C   UNL     1       0.715   1.238   0.000  0.00  0.00    +0.000 A 
ATOM      4  C   UNL     1       0.000   0.825   0.000  0.00  0.00    +0.000 A 
ATOM      5  C   UNL     1       1.429   0.000   0.000  0.00  0.00    +0.000 A 
ATOM      6  C   UNL     1       1.429   0.825   0.000  0.00  0.00    +0.000 A 
ATOM      7  O   UNL     1       2.143  -0.412   0.000  0.00  0.00    +0.000 OA
ENDROOT
BRANCH   6   9
ATOM      8  C   UNL     1       2.143   2.062   0.000  0.00  0.00    +0.000 C 
ATOM      9  O   UNL     1       2.143   1.238   0.000  0.00  0.00    +0.000 OA
ENDBRANCH   6   9
BRANCH   4  10
ATOM     10  C   UNL     1      -0.715   1.238   0.000  0.00  0.00    +0.000 C 
BRANCH  10  11
ATOM     11  O   UNL     1      -1.429   0.825   0.000  0.00  0.00    +0.000 OA
BRANCH  11  12
ATOM     12  C   UNL     1      -2.143   1.238   0.000  0.00  0.00    +0.000 C 
BRANCH  12  13
ATOM     13  C   UNL     1      -2.858   0.825   0.000  0.00  0.00    +0.000 C 
BRANCH  13  15
ATOM     14  C   UNL     1      -4.287   0.825   0.000  0.00  0.00    +0.000 C 
ATOM     15  C   UNL     1      -3.572   1.238   0.000  0.00  0.00    +0.000 C 
ENDBRANCH  13  15
ENDBRANCH  12  13
ENDBRANCH  11  12
ENDBRANCH  10  11
ENDBRANCH   4  10
TORSDOF 6
