REMARK  Name = 
REMARK  1 active torsions:
REMARK  status: ('A' for Active; 'I' for Inactive)
REMARK    1  A    between atoms: C_5  and  S_9
REMARK                            x       y       z     vdW  Elec       q    Type
REMARK                         _______ _______ _______ _____ _____    ______ ____
ROOT
ATOM      1  N   UNL     1       2.143   1.238   0.000  0.00  0.00    +0.000 NA
ATOM      2  C   UNL     1       1.429   0.825   0.000  0.00  0.00    +0.000 A 
ATOM      3  C   UNL     1       1.429   0.000   0.000  0.00  0.00    +0.000 A 
ATOM      4  C   UNL     1       0.715  -0.412   0.000  0.00  0.00    +0.000 A 
ATOM      5  C   UNL     1       0.000   0.000   0.000  0.00  0.00    +0.000 A 
ATOM      6  C   UNL     1       0.000   0.825   0.000  0.00  0.00    +0.000 A 
ATOM      7  C   UNL     1       0.715   1.238   0.000  0.00  0.00    +0.000 A 
ATOM      8 HG   UNL     1       0.715   2.062   0.000  0.00  0.00    +0.000 Hg
ENDROOT
BRANCH   5   9
ATOM      9  S   UNL     1      -0.715  -0.412   0.000  0.00  0.00    +0.000 S 
ATOM     10  N   UNL     1      -1.429  -0.825   0.000  0.00  0.00    +0.000 NA
ATOM     11  O   UNL     1      -1.127   0.302   0.000  0.00  0.00    +0.000 OA
ATOM     12  O   UNL     1      -0.302  -1.127   0.000  0.00  0.00    +0.000 OA
ENDBRANCH   5   9
TORSDOF 1
