REMARK  Name = 
REMARK  9 active torsions:
REMARK  status: ('A' for Active; 'I' for Inactive)
REMARK    1  A    between atoms: C_8  and  O_31
REMARK    2  A    between atoms: C_22  and  C_26
REMARK    3  A    between atoms: O_31  and  C_32
REMARK    4  A    between atoms: C_39  and  O_40
REMARK    5  A    between atoms: O_40  and  C_41
REMARK    6  A    between atoms: C_48  and  O_49
REMARK    7  A    between atoms: O_49  and  C_50
REMARK    8  A    between atoms: C_57  and  O_58
REMARK    9  A    between atoms: O_58  and  C_59
REMARK                            x       y       z     vdW  Elec       q    Type
REMARK                         _______ _______ _______ _____ _____    ______ ____
ROOT
ATOM      1  C   UNL     1      -3.675  -0.850   0.000  0.00  0.00    +0.000 C 
ATOM      2  O   UNL     1      -3.675  -0.025   0.000  0.00  0.00    +0.000 OA
ATOM      3  C   UNL     1      -4.389  -1.262   0.000  0.00  0.00    +0.000 C 
ATOM      4  C   UNL     1      -4.389   0.388   0.000  0.00  0.00    +0.000 C 
ATOM      5  C   UNL     1      -4.389   1.212   0.000  0.00  0.00    +0.000 C 
ATOM      6  C   UNL     1      -5.104  -0.850   0.000  0.00  0.00    +0.000 C 
ATOM      7  O   UNL     1      -5.818  -1.262   0.000  0.00  0.00    +0.000 OA
ATOM      8  C   UNL     1      -5.104  -0.025   0.000  0.00  0.00    +0.000 C 
ENDROOT
BRANCH   1   9
ATOM      9  O   UNL     1      -2.960  -1.262   0.000  0.00  0.00    +0.000 OA
BRANCH   9  17
ATOM     10  C   UNL     1      -1.531   0.388   0.000  0.00  0.00    +0.000 C 
ATOM     11  C   UNL     1      -2.246  -0.025   0.000  0.00  0.00    +0.000 C 
ATOM     12  C   UNL     1      -1.531  -1.262   0.000  0.00  0.00    +0.000 C 
ATOM     13  C   UNL     1      -0.102  -1.262   0.000  0.00  0.00    +0.000 C 
ATOM     14  C   UNL     1       0.612  -0.850   0.000  0.00  0.00    +0.000 C 
ATOM     15  C   UNL     1      -0.102   1.212   0.000  0.00  0.00    +0.000 C 
ATOM     16  C   UNL     1       2.111   0.133   0.000  0.00  0.00    +0.000 C 
ATOM     17  C   UNL     1      -2.246  -0.850   0.000  0.00  0.00    +0.000 C 
ATOM     18  C   UNL     1      -0.817  -0.850   0.000  0.00  0.00    +0.000 C 
ATOM     19  C   UNL     1      -0.817  -0.025   0.000  0.00  0.00    +0.000 C 
ATOM     20  C   UNL     1      -0.817   0.800   0.000  0.00  0.00    +0.000 C 
ATOM     21  C   UNL     1      -0.102   0.388   0.000  0.00  0.00    +0.000 C 
ATOM     22  C   UNL     1       1.327   0.388   0.000  0.00  0.00    +0.000 C 
ATOM     23  O   UNL     1       1.327  -0.438   0.000  0.00  0.00    +0.000 OA
ATOM     24  C   UNL     1       0.612   1.625   0.000  0.00  0.00    +0.000 C 
ATOM     25  C   UNL     1       1.327   1.212   0.000  0.00  0.00    +0.000 C 
ATOM     26  C   UNL     1       1.327   2.038   0.000  0.00  0.00    +0.000 C 
ATOM     27  C   UNL     1       2.111   1.468   0.000  0.00  0.00    +0.000 C 
ATOM     28  C   UNL     1       0.612  -0.025   0.000  0.00  0.00    +0.000 C 
ATOM     29  C   UNL     1       2.596   0.800   0.000  0.00  0.00    +0.000 C 
BRANCH  27  32
ATOM     30  C   UNL     1       3.116   2.499   0.000  0.00  0.00    +0.000 C 
ATOM     31  C   UNL     1       1.857   2.944   0.000  0.00  0.00    +0.000 C 
ATOM     32  C   UNL     1       2.325   2.264   0.000  0.00  0.00    +0.000 C 
ATOM     33  O   UNL     1       3.137   3.323   0.000  0.00  0.00    +0.000 OA
ATOM     34  C   UNL     1       2.360   3.599   0.000  0.00  0.00    +0.000 C 
ATOM     35  O   UNL     1       2.084   4.364   0.000  0.00  0.00    +0.000 OA
ENDBRANCH  27  32
ENDBRANCH   9  17
ENDBRANCH   1   9
BRANCH   8  36
ATOM     36  O   UNL     1      -5.818   0.388   0.000  0.00  0.00    +0.000 OA
BRANCH  36  37
ATOM     37  C   UNL     1      -6.532  -0.025   0.000  0.00  0.00    +0.000 C 
ATOM     38  C   UNL     1      -7.247   0.388   0.000  0.00  0.00    +0.000 C 
ATOM     39  O   UNL     1      -6.532  -0.850   0.000  0.00  0.00    +0.000 OA
ATOM     40  C   UNL     1      -7.247  -1.262   0.000  0.00  0.00    +0.000 C 
ATOM     41  C   UNL     1      -7.247  -2.087   0.000  0.00  0.00    +0.000 C 
ATOM     42  C   UNL     1      -7.962  -0.025   0.000  0.00  0.00    +0.000 C 
ATOM     43  O   UNL     1      -8.676   0.388   0.000  0.00  0.00    +0.000 OA
ATOM     44  C   UNL     1      -7.962  -0.850   0.000  0.00  0.00    +0.000 C 
BRANCH  44  45
ATOM     45  O   UNL     1      -8.676  -1.262   0.000  0.00  0.00    +0.000 OA
BRANCH  45  46
ATOM     46  C   UNL     1      -9.390  -0.850   0.000  0.00  0.00    +0.000 C 
ATOM     47  C   UNL     1     -10.105  -1.262   0.000  0.00  0.00    +0.000 C 
ATOM     48  O   UNL     1      -9.390  -0.025   0.000  0.00  0.00    +0.000 OA
ATOM     49  C   UNL     1     -10.105   0.388   0.000  0.00  0.00    +0.000 C 
ATOM     50  C   UNL     1     -10.105   1.212   0.000  0.00  0.00    +0.000 C 
ATOM     51  C   UNL     1     -10.819  -0.025   0.000  0.00  0.00    +0.000 C 
ATOM     52  O   UNL     1     -11.534   0.388   0.000  0.00  0.00    +0.000 OA
ATOM     53  C   UNL     1     -10.819  -0.850   0.000  0.00  0.00    +0.000 C 
BRANCH  53  54
ATOM     54  O   UNL     1     -11.534  -1.262   0.000  0.00  0.00    +0.000 OA
BRANCH  54  55
ATOM     55  C   UNL     1     -12.248  -0.850   0.000  0.00  0.00    +0.000 C 
ATOM     56  C   UNL     1     -12.963  -1.262   0.000  0.00  0.00    +0.000 C 
ATOM     57  O   UNL     1     -12.248  -0.025   0.000  0.00  0.00    +0.000 OA
ENDBRANCH  54  55
ENDBRANCH  53  54
ENDBRANCH  45  46
ENDBRANCH  44  45
ENDBRANCH  36  37
ENDBRANCH   8  36
TORSDOF 9
