REMARK  Name = 
REMARK  2 active torsions:
REMARK  status: ('A' for Active; 'I' for Inactive)
REMARK    1  A    between atoms: C1*_1  and  N1_2
REMARK    2  A    between atoms: C4*_7  and  C5*_12
REMARK                            x       y       z     vdW  Elec       q    Type
REMARK                         _______ _______ _______ _____ _____    ______ ____
ROOT
ATOM      1  C1*   C A   1      -0.265  -0.010   0.000  0.00  0.00    +0.000 C 
ATOM      2  O4*   C A   1      -0.939   0.499   0.000  0.00  0.00    +0.000 OA
ATOM      3  C2*   C A   1      -0.509  -0.774   0.000  0.00  0.00    +0.000 C 
ATOM      4  C4*   C A   1      -1.603   0.003   0.000  0.00  0.00    +0.000 C 
ATOM      5  C3*   C A   1      -1.345  -0.774   0.000  0.00  0.00    +0.000 C 
ATOM      6  O3*   C A   1      -1.600  -1.579   0.000  0.00  0.00    +0.000 OA
ENDROOT
BRANCH   1   7
ATOM      7  N1    C A   1       0.520   0.241   0.000  0.00  0.00    +0.000 N 
ATOM      8  C2    C A   1       1.118  -0.320   0.000  0.00  0.00    +0.000 A 
ATOM      9  C6    C A   1       0.706   1.036   0.000  0.00  0.00    +0.000 A 
ATOM     10  N3    C A   1       1.910  -0.086   0.000  0.00  0.00    +0.000 NA
ATOM     11  O2    C A   1       0.936  -1.129   0.000  0.00  0.00    +0.000 OA
ATOM     12  C5    C A   1       1.493   1.280   0.000  0.00  0.00    +0.000 A 
ATOM     13  C4    C A   1       2.089   0.712   0.000  0.00  0.00    +0.000 A 
ATOM     14  N4    C A   1       2.887   0.946   0.000  0.00  0.00    +0.000 NA
ENDBRANCH   1   7
BRANCH   4  15
ATOM     15  C5*   C A   1      -2.392   0.255   0.000  0.00  0.00    +0.000 C 
ATOM     16  O5*   C A   1      -3.001  -0.299   0.000  0.00  0.00    +0.000 OA
ENDBRANCH   4  15
TORSDOF 2
