REMARK  Name = 
REMARK  9 active torsions:
REMARK  status: ('A' for Active; 'I' for Inactive)
REMARK    1  A    between atoms: C_1  and  C_2
REMARK    2  A    between atoms: C_1  and  C_5
REMARK    3  A    between atoms: C_2  and  S_17
REMARK    4  A    between atoms: C_3  and  C_6
REMARK    5  A    between atoms: C_4  and  C_7
REMARK    6  A    between atoms: C_4  and  S_17
REMARK    7  A    between atoms: C_5  and  C_9
REMARK    8  A    between atoms: C_6  and  C_8
REMARK    9  A    between atoms: C_7  and  C_8
REMARK                            x       y       z     vdW  Elec       q    Type
REMARK                         _______ _______ _______ _____ _____    ______ ____
ROOT
ATOM      1  C   UNK     1       4.618   1.841   0.000  0.00  0.00    +0.000 C 
ENDROOT
BRANCH   1   2
ATOM      2  C   UNK     1       3.904   1.429   0.000  0.00  0.00    +0.000 C 
ATOM      3  O   UNK     1       3.904   0.604   0.000  0.00  0.00    +0.000 OA
BRANCH   2   4
ATOM      4  C   UNK     1       3.189   1.841   0.000  0.00  0.00    +0.000 C 
ATOM      5  O   UNK     1       3.189   2.666   0.000  0.00  0.00    +0.000 OA
BRANCH   4   6
ATOM      6  C   UNK     1       2.475   1.429   0.000  0.00  0.00    +0.000 C 
ATOM      7  O   UNK     1       2.475   0.604   0.000  0.00  0.00    +0.000 OA
BRANCH   6   8
ATOM      8  C   UNK     1       1.760   1.841   0.000  0.00  0.00    +0.000 C 
ATOM      9  O   UNK     1       1.046   1.429   0.000  0.00  0.00    +0.000 OA
ENDBRANCH   6   8
ENDBRANCH   4   6
ENDBRANCH   2   4
ENDBRANCH   1   2
BRANCH   1  10
ATOM     10  S   UNK     1       5.333   1.429   0.000  0.00  0.00    +0.000 S 
BRANCH  10  11
ATOM     11  C   UNK     1       6.047   1.841   0.000  0.00  0.00    +0.000 C 
BRANCH  11  12
ATOM     12  C   UNK     1       6.762   1.429   0.000  0.00  0.00    +0.000 C 
BRANCH  12  13
ATOM     13  C   UNK     1       7.476   1.841   0.000  0.00  0.00    +0.000 C 
ATOM     14  N   UNK     1       7.476   2.666   0.000  0.00  0.00    +0.000 NA
BRANCH  13  15
ATOM     15  C   UNK     1       8.191   1.429   0.000  0.00  0.00    +0.000 C 
ATOM     16  O   UNK     1       8.905   1.841   0.000  0.00  0.00    +0.000 OA
ATOM     17  O   UNK     1       8.191   0.604   0.000  0.00  0.00    +0.000 OA
ENDBRANCH  13  15
ENDBRANCH  12  13
ENDBRANCH  11  12
ENDBRANCH  10  11
ENDBRANCH   1  10
TORSDOF 9
