REMARK  Name = 
REMARK  5 active torsions:
REMARK  status: ('A' for Active; 'I' for Inactive)
REMARK    1  A    between atoms: C_2  and  N_3
REMARK    2  A    between atoms: N_3  and  C_6
REMARK    3  A    between atoms: C_6  and  C_7
REMARK    4  A    between atoms: C_7  and  C_8
REMARK    5  A    between atoms: C_8  and  S_9
REMARK                            x       y       z     vdW  Elec       q    Type
REMARK                         _______ _______ _______ _____ _____    ______ ____
ROOT
ATOM      1  C   UNL     1       3.189  -1.841   0.000  0.00  0.00    +0.000 C 
ENDROOT
BRANCH   1   2
ATOM      2  N   UNL     1       2.475  -1.429   0.000  0.00  0.00    +0.000 N 
ATOM      3  C   UNL     1       2.062  -2.143   0.000  0.00  0.00    +0.000 C 
ATOM      4  C   UNL     1       2.888  -0.715   0.000  0.00  0.00    +0.000 C 
BRANCH   2   6
ATOM      5  C   UNL     1       1.046  -1.429   0.000  0.00  0.00    +0.000 C 
ATOM      6  C   UNL     1       1.760  -1.016   0.000  0.00  0.00    +0.000 C 
ENDBRANCH   2   6
ENDBRANCH   1   2
BRANCH   1   7
ATOM      7  C   UNL     1       3.904  -1.429   0.000  0.00  0.00    +0.000 C 
BRANCH   7   8
ATOM      8  C   UNL     1       4.618  -1.841   0.000  0.00  0.00    +0.000 C 
BRANCH   8   9
ATOM      9  S   UNL     1       5.333  -1.429   0.000  0.00  0.00    +0.000 S 
ATOM     10  O   UNL     1       6.047  -1.016   0.000  0.00  0.00    +0.000 OA
ATOM     11  O   UNL     1       5.745  -2.143   0.000  0.00  0.00    +0.000 OA
ATOM     12  O   UNL     1       4.920  -0.715   0.000  0.00  0.00    +0.000 OA
ENDBRANCH   8   9
ENDBRANCH   7   8
ENDBRANCH   1   7
TORSDOF 5
