REMARK  Name = 
REMARK  6 active torsions:
REMARK  status: ('A' for Active; 'I' for Inactive)
REMARK    1  A    between atoms: O_2  and  C_8
REMARK    2  A    between atoms: O_2  and  C_11
REMARK    3  A    between atoms: C_7  and  C_8
REMARK    4  A    between atoms: C_12  and  C_17
REMARK    5  A    between atoms: C_13  and  C_21
REMARK    6  A    between atoms: C_19  and  C_22
REMARK                            x       y       z     vdW  Elec       q    Type
REMARK                         _______ _______ _______ _____ _____    ______ ____
ROOT
ATOM      1  C   UNL     1       3.793  -1.345   0.000  0.00  0.00    +0.000 A 
ATOM      2  C   UNL     1       3.793   0.305   0.000  0.00  0.00    +0.000 A 
ATOM      3  C   UNL     1       3.079  -0.933   0.000  0.00  0.00    +0.000 A 
ATOM      4  C   UNL     1       4.508  -0.933   0.000  0.00  0.00    +0.000 A 
ATOM      5  C   UNL     1       3.079  -0.108   0.000  0.00  0.00    +0.000 A 
ATOM      6  C   UNL     1       4.508  -0.108   0.000  0.00  0.00    +0.000 A 
ENDROOT
BRANCH   2   9
ATOM      7  S   UNL     1       3.126   1.615   0.000  0.00  0.00    +0.000 S 
ATOM      8  N   UNL     1       4.461   1.615   0.000  0.00  0.00    +0.000 NA
ATOM      9  C   UNL     1       3.793   1.130   0.000  0.00  0.00    +0.000 A 
ATOM     10  C   UNL     1       4.206   2.399   0.000  0.00  0.00    +0.000 A 
ATOM     11  C   UNL     1       3.381   2.399   0.000  0.00  0.00    +0.000 A 
ATOM     12  C   UNL     1       4.691   3.067   0.000  0.00  0.00    +0.000 C 
BRANCH  11  15
ATOM     13  O   UNL     1       2.076   2.981   0.000  0.00  0.00    +0.000 OA
ATOM     14  O   UNL     1       3.232   3.820   0.000  0.00  0.00    +0.000 OA
ATOM     15  C   UNL     1       2.896   3.067   0.000  0.00  0.00    +0.000 C 
ENDBRANCH  11  15
ENDBRANCH   2   9
BRANCH   3  17
ATOM     16  N   UNL     1       1.650  -1.758   0.000  0.00  0.00    +0.000 NA
ATOM     17  C   UNL     1       2.365  -1.345   0.000  0.00  0.00    +0.000 C 
ENDBRANCH   3  17
BRANCH   1  18
ATOM     18  O   UNL     1       3.793  -2.170   0.000  0.00  0.00    +0.000 OA
BRANCH  18  19
ATOM     19  C   UNL     1       4.508  -2.583   0.000  0.00  0.00    +0.000 C 
BRANCH  19  20
ATOM     20  C   UNL     1       4.508  -3.408   0.000  0.00  0.00    +0.000 C 
ATOM     21  C   UNL     1       5.222  -3.820   0.000  0.00  0.00    +0.000 C 
ATOM     22  C   UNL     1       3.793  -3.820   0.000  0.00  0.00    +0.000 C 
ENDBRANCH  19  20
ENDBRANCH  18  19
ENDBRANCH   1  18
TORSDOF 6
