REMARK  Name = 
REMARK  5 active torsions:
REMARK  status: ('A' for Active; 'I' for Inactive)
REMARK    1  A    between atoms: O_1  and  C_7
REMARK    2  A    between atoms: O_1  and  C_12
REMARK    3  A    between atoms: C_12  and  C_13
REMARK    4  A    between atoms: C_13  and  C_14
REMARK    5  A    between atoms: C_13  and  C_15
REMARK                            x       y       z     vdW  Elec       q    Type
REMARK                         _______ _______ _______ _____ _____    ______ ____
ROOT
ATOM      1  O   UNL     1       3.381   0.015   0.000  0.00  0.00    +0.000 OA
ATOM      2  C   UNL     1       3.793   0.729   0.000  0.00  0.00    +0.000 C 
ENDROOT
BRANCH   2   3
ATOM      3  C   UNL     1       3.079   1.142   0.000  0.00  0.00    +0.000 A 
ATOM      4  C   UNL     1       2.365   0.729   0.000  0.00  0.00    +0.000 A 
ATOM      5  C   UNL     1       3.079   1.967   0.000  0.00  0.00    +0.000 A 
ATOM      6  C   UNL     1       1.650   1.142   0.000  0.00  0.00    +0.000 A 
ATOM      7  C   UNL     1       2.365   2.379   0.000  0.00  0.00    +0.000 A 
ATOM      8  C   UNL     1       1.650   1.967   0.000  0.00  0.00    +0.000 A 
ENDBRANCH   2   3
BRANCH   2   9
ATOM      9  C   UNL     1       4.206   1.444   0.000  0.00  0.00    +0.000 A 
ATOM     10  C   UNL     1       3.793   2.158   0.000  0.00  0.00    +0.000 A 
ATOM     11  C   UNL     1       5.031   1.444   0.000  0.00  0.00    +0.000 A 
ATOM     12  C   UNL     1       4.206   2.873   0.000  0.00  0.00    +0.000 A 
ATOM     13  C   UNL     1       5.444   2.158   0.000  0.00  0.00    +0.000 A 
ATOM     14  C   UNL     1       5.031   2.873   0.000  0.00  0.00    +0.000 A 
ENDBRANCH   2   9
BRANCH   2  16
ATOM     15  O   UNL     1       5.222   0.729   0.000  0.00  0.00    +0.000 OA
ATOM     16  C   UNL     1       4.508   0.317   0.000  0.00  0.00    +0.000 C 
BRANCH  16  17
ATOM     17  O   UNL     1       4.508  -0.508   0.000  0.00  0.00    +0.000 OA
BRANCH  17  21
ATOM     18  N   UNL     1       5.937  -2.158   0.000  0.00  0.00    +0.000 N 
ATOM     19  C   UNL     1       5.222  -1.746   0.000  0.00  0.00    +0.000 C 
ATOM     20  C   UNL     1       6.652  -1.746   0.000  0.00  0.00    +0.000 C 
ATOM     21  C   UNL     1       5.222  -0.921   0.000  0.00  0.00    +0.000 C 
ATOM     22  C   UNL     1       6.652  -0.921   0.000  0.00  0.00    +0.000 C 
ATOM     23  C   UNL     1       5.937  -0.508   0.000  0.00  0.00    +0.000 C 
ATOM     24  C   UNL     1       5.524  -2.873   0.000  0.00  0.00    +0.000 C 
ATOM     25  C   UNL     1       6.349  -2.873   0.000  0.00  0.00    +0.000 C 
ENDBRANCH  17  21
ENDBRANCH  16  17
ENDBRANCH   2  16
TORSDOF 5
