REMARK  Name = 
REMARK  5 active torsions:
REMARK  status: ('A' for Active; 'I' for Inactive)
REMARK    1  A    between atoms: C_4  and  C_10
REMARK    2  A    between atoms: C_7  and  C_10
REMARK    3  A    between atoms: C_9  and  C_11
REMARK    4  A    between atoms: N_13  and  C_14
REMARK    5  A    between atoms: N_13  and  C_15
REMARK                            x       y       z     vdW  Elec       q    Type
REMARK                         _______ _______ _______ _____ _____    ______ ____
ROOT
ATOM      1  C   UNL     1      13.736 -13.447   0.000  0.00  0.00    +0.000 C 
ATOM      2  C   UNL     1      14.560 -13.447   0.000  0.00  0.00    +0.000 C 
ATOM      3  C   UNL     1      14.148 -12.704   0.000  0.00  0.00    +0.000 C 
ENDROOT
BRANCH   3   7
ATOM      4  C   UNL     1      12.292 -11.178   0.000  0.00  0.00    +0.000 A 
ATOM      5  C   UNL     1      12.292 -12.003   0.000  0.00  0.00    +0.000 A 
ATOM      6  C   UNL     1      12.993 -12.416   0.000  0.00  0.00    +0.000 A 
ATOM      7  C   UNL     1      13.736 -12.003   0.000  0.00  0.00    +0.000 A 
ATOM      8  C   UNL     1      13.736 -11.178   0.000  0.00  0.00    +0.000 A 
ATOM      9  C   UNL     1      12.993 -10.766   0.000  0.00  0.00    +0.000 A 
ENDBRANCH   3   7
BRANCH   3  10
ATOM     10  C   UNL     1      14.560 -12.003   0.000  0.00  0.00    +0.000 C 
ATOM     11  O   UNL     1      14.560 -11.178   0.000  0.00  0.00    +0.000 OA
ATOM     12  N   UNL     1      15.386 -12.003   0.000  0.00  0.00    +0.000 N 
BRANCH  12  13
ATOM     13  C   UNL     1      15.798 -11.302   0.000  0.00  0.00    +0.000 C 
ATOM     14  C   UNL     1      16.623 -11.302   0.000  0.00  0.00    +0.000 C 
ENDBRANCH  12  13
BRANCH  12  15
ATOM     15  C   UNL     1      15.798 -12.704   0.000  0.00  0.00    +0.000 C 
ATOM     16  C   UNL     1      16.623 -12.704   0.000  0.00  0.00    +0.000 C 
ENDBRANCH  12  15
ENDBRANCH   3  10
BRANCH   2  17
ATOM     17  C   UNL     1      14.973 -14.148   0.000  0.00  0.00    +0.000 C 
ATOM     18  N   UNL     1      15.798 -14.148   0.000  0.00  0.00    +0.000 NA
ENDBRANCH   2  17
TORSDOF 5
