REMARK  Name = 
REMARK  3 active torsions:
REMARK  status: ('A' for Active; 'I' for Inactive)
REMARK    1  A    between atoms: C_2  and  C_4
REMARK    2  A    between atoms: C_2  and  C_6
REMARK    3  A    between atoms: C_6  and  C_8
REMARK                            x       y       z     vdW  Elec       q    Type
REMARK                         _______ _______ _______ _____ _____    ______ ____
ROOT
ATOM      1  C   UNL     1       1.650   0.000   0.000  0.00  0.00    +0.000 C 
ATOM      2  C   UNL     1       1.238   0.715   0.000  0.00  0.00    +0.000 C 
ATOM      3  C   UNL     1       0.825   1.429   0.000  0.00  0.00    +0.000 C 
ENDROOT
BRANCH   2   4
ATOM      4  C   UNL     1       0.523   0.302   0.000  0.00  0.00    +0.000 C 
ATOM      5  O   UNL     1      -0.191   0.715   0.000  0.00  0.00    +0.000 OA
ENDBRANCH   2   4
BRANCH   2   6
ATOM      6  C   UNL     1       1.952   1.127   0.000  0.00  0.00    +0.000 C 
ATOM      7  O   UNL     1       1.952   1.952   0.000  0.00  0.00    +0.000 OA
BRANCH   6   8
ATOM      8  C   UNL     1       2.666   0.715   0.000  0.00  0.00    +0.000 C 
ATOM      9  O   UNL     1       3.381   1.127   0.000  0.00  0.00    +0.000 OA
ATOM     10  O   UNL     1       2.666  -0.111   0.000  0.00  0.00    +0.000 OA
ENDBRANCH   6   8
ENDBRANCH   2   6
TORSDOF 3
