REMARK  Name = 
REMARK  0 active torsions:
REMARK  status: ('A' for Active; 'I' for Inactive)
REMARK                            x       y       z     vdW  Elec       q    Type
REMARK                         _______ _______ _______ _____ _____    ______ ____
ROOT
ATOM      1  N   UNL     1       3.599  -0.630   0.000  0.00  0.00    +0.000 N 
ATOM      2  N   UNL     1       2.252  -1.563   0.000  0.00  0.00    +0.000 NA
ATOM      3  C   UNL     1       2.885  -0.286   0.000  0.00  0.00    +0.000 C 
ATOM      4  C   UNL     1       2.196  -0.740   0.000  0.00  0.00    +0.000 C 
ATOM      5  C   UNL     1       3.673  -1.451   0.000  0.00  0.00    +0.000 C 
ATOM      6  C   UNL     1       2.709   0.486   0.000  0.00  0.00    +0.000 A 
ATOM      7  C   UNL     1       2.995  -1.921   0.000  0.00  0.00    +0.000 C 
ATOM      8  C   UNL     1       4.312  -0.286   0.000  0.00  0.00    +0.000 A 
ATOM      9  C   UNL     1       3.203   1.105   0.000  0.00  0.00    +0.000 A 
ATOM     10  C   UNL     1       3.995   1.105   0.000  0.00  0.00    +0.000 C 
ATOM     11  C   UNL     1       4.489   0.486   0.000  0.00  0.00    +0.000 A 
ATOM     12  C   UNL     1       1.596  -2.007   0.000  0.00  0.00    +0.000 C 
ATOM     13  C   UNL     1       1.891   0.596   0.000  0.00  0.00    +0.000 A 
ATOM     14  C   UNL     1       4.909  -0.857   0.000  0.00  0.00    +0.000 A 
ATOM     15  C   UNL     1       2.913   1.878   0.000  0.00  0.00    +0.000 A 
ATOM     16  C   UNL     1       5.273   0.741   0.000  0.00  0.00    +0.000 A 
ATOM     17  C   UNL     1       1.584   1.362   0.000  0.00  0.00    +0.000 A 
ATOM     18  C   UNL     1       2.098   2.007   0.000  0.00  0.00    +0.000 A 
ATOM     19  C   UNL     1       5.699  -0.620   0.000  0.00  0.00    +0.000 A 
ATOM     20  C   UNL     1       5.882   0.185   0.000  0.00  0.00    +0.000 A 
ENDROOT
TORSDOF 0
