REMARK  Name = 
REMARK  15 active torsions:
REMARK  status: ('A' for Active; 'I' for Inactive)
REMARK    1  A    between atoms: C_1  and  O_13
REMARK    2  A    between atoms: C_7  and  O_65
REMARK    3  A    between atoms: C_11  and  O_13
REMARK    4  A    between atoms: C_14  and  O_56
REMARK    5  A    between atoms: C_18  and  O_65
REMARK    6  A    between atoms: C_20  and  O_48
REMARK    7  A    between atoms: C_28  and  O_48
REMARK    8  A    between atoms: C_30  and  O_34
REMARK    9  A    between atoms: C_33  and  O_34
REMARK   10  A    between atoms: C_44  and  O_56
REMARK   11  A    between atoms: C_45  and  C_52
REMARK   12  A    between atoms: C_51  and  C_52
REMARK   13  A    between atoms: C_51  and  C_55
REMARK   14  A    between atoms: C_52  and  O_57
REMARK   15  A    between atoms: C_54  and  C_55
REMARK                            x       y       z     vdW  Elec       q    Type
REMARK                         _______ _______ _______ _____ _____    ______ ____
ROOT
ATOM      1  C   UNL     1      21.029 -10.205   0.000  0.00  0.00    +0.000 A 
ATOM      2  C   UNL     1      21.029  -9.380   0.000  0.00  0.00    +0.000 A 
ATOM      3  C   UNL     1      21.744 -10.617   0.000  0.00  0.00    +0.000 A 
ATOM      4  C   UNL     1      22.458 -10.205   0.000  0.00  0.00    +0.000 A 
ATOM      5  C   UNL     1      22.458  -9.380   0.000  0.00  0.00    +0.000 A 
ATOM      6  C   UNL     1      21.744  -8.967   0.000  0.00  0.00    +0.000 A 
ATOM      7  C   UNL     1      23.172 -10.617   0.000  0.00  0.00    +0.000 A 
ATOM      8  C   UNL     1      23.887 -10.205   0.000  0.00  0.00    +0.000 A 
ATOM      9  C   UNL     1      23.887  -9.380   0.000  0.00  0.00    +0.000 A 
ATOM     10  C   UNL     1      23.172  -8.967   0.000  0.00  0.00    +0.000 A 
ATOM     11  C   UNL     1      24.601 -10.617   0.000  0.00  0.00    +0.000 C 
ATOM     12  C   UNL     1      25.316 -10.205   0.000  0.00  0.00    +0.000 C 
ATOM     13  C   UNL     1      25.316  -9.380   0.000  0.00  0.00    +0.000 C 
ATOM     14  C   UNL     1      24.601  -8.967   0.000  0.00  0.00    +0.000 C 
ATOM     15  O   UNL     1      24.601 -11.442   0.000  0.00  0.00    +0.000 OA
ATOM     16  O   UNL     1      23.172 -11.442   0.000  0.00  0.00    +0.000 OA
ATOM     17  O   UNL     1      21.744 -11.442   0.000  0.00  0.00    +0.000 OA
ATOM     18  C   UNL     1      20.306 -10.622   0.000  0.00  0.00    +0.000 C 
ENDROOT
BRANCH  13  19
ATOM     19  C   UNL     1      26.030  -8.967   0.000  0.00  0.00    +0.000 C 
BRANCH  19  20
ATOM     20  O   UNL     1      26.030  -8.143   0.000  0.00  0.00    +0.000 OA
ATOM     21  C   UNL     1      25.331  -7.738   0.000  0.00  0.00    +0.000 C 
ENDBRANCH  19  20
BRANCH  19  23
ATOM     22  O   UNL     1      26.745 -10.205   0.000  0.00  0.00    +0.000 OA
ATOM     23  C   UNL     1      26.745  -9.380   0.000  0.00  0.00    +0.000 C 
BRANCH  23  24
ATOM     24  C   UNL     1      27.459  -8.967   0.000  0.00  0.00    +0.000 C 
ATOM     25  O   UNL     1      27.459  -8.142   0.000  0.00  0.00    +0.000 OA
BRANCH  24  27
ATOM     26  O   UNL     1      28.174 -10.205   0.000  0.00  0.00    +0.000 OA
ATOM     27  C   UNL     1      28.174  -9.380   0.000  0.00  0.00    +0.000 C 
ATOM     28  C   UNL     1      28.873  -8.976   0.000  0.00  0.00    +0.000 C 
ENDBRANCH  24  27
ENDBRANCH  23  24
ENDBRANCH  19  23
ENDBRANCH  13  19
BRANCH   2  29
ATOM     29  O   UNL     1      20.314  -8.967   0.000  0.00  0.00    +0.000 OA
BRANCH  29  34
ATOM     30  C   UNL     1      18.171  -9.380   0.000  0.00  0.00    +0.000 C 
ATOM     31  C   UNL     1      18.171 -10.205   0.000  0.00  0.00    +0.000 C 
ATOM     32  C   UNL     1      18.886 -10.617   0.000  0.00  0.00    +0.000 C 
ATOM     33  C   UNL     1      19.600 -10.205   0.000  0.00  0.00    +0.000 C 
ATOM     34  C   UNL     1      19.600  -9.380   0.000  0.00  0.00    +0.000 C 
ATOM     35  O   UNL     1      18.886  -8.967   0.000  0.00  0.00    +0.000 OA
ATOM     36  C   UNL     1      17.457  -8.967   0.000  0.00  0.00    +0.000 C 
ATOM     37  O   UNL     1      17.457 -10.617   0.000  0.00  0.00    +0.000 OA
BRANCH  32  38
ATOM     38  O   UNL     1      18.886 -11.442   0.000  0.00  0.00    +0.000 OA
BRANCH  38  39
ATOM     39  C   UNL     1      18.161 -11.861   0.000  0.00  0.00    +0.000 C 
ATOM     40  O   UNL     1      17.452 -11.451   0.000  0.00  0.00    +0.000 OA
ATOM     41  C   UNL     1      16.737 -11.863   0.000  0.00  0.00    +0.000 C 
ATOM     42  C   UNL     1      16.737 -12.688   0.000  0.00  0.00    +0.000 C 
ATOM     43  C   UNL     1      17.447 -13.098   0.000  0.00  0.00    +0.000 C 
ATOM     44  C   UNL     1      18.161 -12.685   0.000  0.00  0.00    +0.000 C 
ATOM     45  O   UNL     1      17.447 -13.917   0.000  0.00  0.00    +0.000 OA
ATOM     46  C   UNL     1      16.012 -11.444   0.000  0.00  0.00    +0.000 C 
ATOM     47  O   UNL     1      16.019 -13.103   0.000  0.00  0.00    +0.000 OA
ENDBRANCH  38  39
ENDBRANCH  32  38
ENDBRANCH  29  34
ENDBRANCH   2  29
BRANCH  12  48
ATOM     48  O   UNL     1      25.357 -12.185   0.000  0.00  0.00    +0.000 OA
BRANCH  48  49
ATOM     49  C   UNL     1      24.645 -12.616   0.000  0.00  0.00    +0.000 C 
ATOM     50  O   UNL     1      23.916 -12.215   0.000  0.00  0.00    +0.000 OA
ATOM     51  C   UNL     1      23.211 -12.643   0.000  0.00  0.00    +0.000 C 
ATOM     52  C   UNL     1      23.187 -13.467   0.000  0.00  0.00    +0.000 C 
ATOM     53  C   UNL     1      23.957 -13.868   0.000  0.00  0.00    +0.000 C 
ATOM     54  C   UNL     1      24.663 -13.441   0.000  0.00  0.00    +0.000 C 
ATOM     55  C   UNL     1      22.491 -12.223   0.000  0.00  0.00    +0.000 C 
ATOM     56  O   UNL     1      22.490 -13.877   0.000  0.00  0.00    +0.000 OA
BRANCH  53  57
ATOM     57  O   UNL     1      23.984 -14.700   0.000  0.00  0.00    +0.000 OA
BRANCH  57  58
ATOM     58  C   UNL     1      23.285 -15.134   0.000  0.00  0.00    +0.000 C 
ATOM     59  O   UNL     1      22.567 -14.751   0.000  0.00  0.00    +0.000 OA
ATOM     60  C   UNL     1      21.866 -15.186   0.000  0.00  0.00    +0.000 C 
ATOM     61  C   UNL     1      21.852 -16.011   0.000  0.00  0.00    +0.000 C 
ATOM     62  C   UNL     1      22.612 -16.395   0.000  0.00  0.00    +0.000 C 
ATOM     63  C   UNL     1      23.271 -15.959   0.000  0.00  0.00    +0.000 C 
ATOM     64  C   UNL     1      21.156 -14.807   0.000  0.00  0.00    +0.000 C 
ATOM     65  O   UNL     1      21.181 -16.454   0.000  0.00  0.00    +0.000 OA
BRANCH  62  66
ATOM     66  O   UNL     1      22.639 -17.217   0.000  0.00  0.00    +0.000 OA
BRANCH  66  67
ATOM     67  C   UNL     1      21.929 -17.659   0.000  0.00  0.00    +0.000 C 
ATOM     68  O   UNL     1      21.203 -17.271   0.000  0.00  0.00    +0.000 OA
ATOM     69  C   UNL     1      20.503 -17.707   0.000  0.00  0.00    +0.000 C 
ATOM     70  C   UNL     1      20.488 -18.532   0.000  0.00  0.00    +0.000 C 
ATOM     71  C   UNL     1      21.256 -18.919   0.000  0.00  0.00    +0.000 C 
ATOM     72  C   UNL     1      21.915 -18.483   0.000  0.00  0.00    +0.000 C 
ATOM     73  C   UNL     1      19.793 -17.328   0.000  0.00  0.00    +0.000 C 
ATOM     74  C   UNL     1      20.673 -19.626   0.000  0.00  0.00    +0.000 C 
ATOM     75  O   UNL     1      21.839 -19.626   0.000  0.00  0.00    +0.000 OA
ATOM     76  O   UNL     1      19.821 -18.973   0.000  0.00  0.00    +0.000 OA
ENDBRANCH  66  67
ENDBRANCH  62  66
ENDBRANCH  57  58
ENDBRANCH  53  57
ENDBRANCH  48  49
ENDBRANCH  12  48
TORSDOF 15
