REMARK  Name = 
REMARK  6 active torsions:
REMARK  status: ('A' for Active; 'I' for Inactive)
REMARK    1  A    between atoms: N_2  and  C_15
REMARK    2  A    between atoms: C_12  and  C_18
REMARK    3  A    between atoms: C_18  and  O_19
REMARK    4  A    between atoms: O_19  and  P_23
REMARK    5  A    between atoms: P_21  and  O_22
REMARK    6  A    between atoms: O_22  and  P_23
REMARK                            x       y       z     vdW  Elec       q    Type
REMARK                         _______ _______ _______ _____ _____    ______ ____
ROOT
ATOM      1  C   UNL     1       9.095 -10.596   0.000  0.00  0.00    +0.000 C 
ATOM      2  O   UNL     1       9.772 -10.099   0.000  0.00  0.00    +0.000 OA
ATOM      3  C   UNL     1       9.356 -11.379   0.000  0.00  0.00    +0.000 C 
ATOM      4  C   UNL     1      10.443 -10.596   0.000  0.00  0.00    +0.000 C 
ATOM      5  C   UNL     1      10.182 -11.379   0.000  0.00  0.00    +0.000 C 
ATOM      6  O   UNL     1       8.871 -12.062   0.000  0.00  0.00    +0.000 OA
ENDROOT
BRANCH   4   8
ATOM      7  C   UNL     1       9.710  -8.789   0.000  0.00  0.00    +0.000 A 
ATOM      8  N   UNL     1      10.443  -9.049   0.000  0.00  0.00    +0.000 N 
ATOM      9  C   UNL     1       9.710  -8.012   0.000  0.00  0.00    +0.000 A 
ATOM     10  N   UNL     1       9.014  -9.180   0.000  0.00  0.00    +0.000 NA
ATOM     11  N   UNL     1      10.455  -7.739   0.000  0.00  0.00    +0.000 NA
ATOM     12  N   UNL     1       8.331  -8.012   0.000  0.00  0.00    +0.000 NA
ATOM     13  C   UNL     1       9.014  -7.621   0.000  0.00  0.00    +0.000 A 
ATOM     14  C   UNL     1       8.331  -8.789   0.000  0.00  0.00    +0.000 A 
ATOM     15  C   UNL     1      10.927  -8.391   0.000  0.00  0.00    +0.000 A 
ATOM     16  O   UNL     1       9.014  -6.819   0.000  0.00  0.00    +0.000 OA
ATOM     17  N   UNL     1       7.642  -9.167   0.000  0.00  0.00    +0.000 NA
ENDBRANCH   4   8
BRANCH   1  18
ATOM     18  C   UNL     1       8.306 -10.335   0.000  0.00  0.00    +0.000 C 
BRANCH  18  19
ATOM     19  O   UNL     1       7.598 -10.764   0.000  0.00  0.00    +0.000 OA
BRANCH  19  20
ATOM     20  P   UNL     1       6.799 -10.507   0.000  0.00  0.00    +0.000 P 
ATOM     21  O   UNL     1       6.615  -9.702   0.000  0.00  0.00    +0.000 OA
ATOM     22  O   UNL     1       6.944 -11.282   0.000  0.00  0.00    +0.000 OA
BRANCH  20  23
ATOM     23  O   UNL     1       6.193 -11.086   0.000  0.00  0.00    +0.000 OA
BRANCH  23  25
ATOM     24  O   UNL     1       4.788 -11.409   0.000  0.00  0.00    +0.000 OA
ATOM     25  P   UNL     1       5.395 -10.830   0.000  0.00  0.00    +0.000 P 
ATOM     26  O   UNL     1       5.210 -10.025   0.000  0.00  0.00    +0.000 OA
ATOM     27  O   UNL     1       5.519 -11.634   0.000  0.00  0.00    +0.000 OA
ENDBRANCH  23  25
ENDBRANCH  20  23
ENDBRANCH  19  20
ENDBRANCH  18  19
ENDBRANCH   1  18
TORSDOF 6
