REMARK  Name = 
REMARK  9 active torsions:
REMARK  status: ('A' for Active; 'I' for Inactive)
REMARK    1  A    between atoms: C_2  and  C_3
REMARK    2  A    between atoms: C_3  and  C_4
REMARK    3  A    between atoms: C_4  and  O_5
REMARK    4  A    between atoms: O_5  and  C_6
REMARK    5  A    between atoms: C_9  and  S_12
REMARK    6  A    between atoms: S_12  and  N_15
REMARK    7  A    between atoms: C_17  and  N_24
REMARK    8  A    between atoms: C_19  and  C_20
REMARK    9  A    between atoms: N_24  and  S_25
REMARK                            x       y       z     vdW  Elec       q    Type
REMARK                         _______ _______ _______ _____ _____    ______ ____
ROOT
ATOM      1  S   UNL     1       5.716  -4.125   0.000  0.00  0.00    +0.000 S 
ATOM      2  O   UNL     1       5.303  -4.840   0.000  0.00  0.00    +0.000 OA
ATOM      3  O   UNL     1       6.128  -3.410   0.000  0.00  0.00    +0.000 OA
ENDROOT
BRANCH   1   7
ATOM      4  C   UNL     1       3.572  -2.888   0.000  0.00  0.00    +0.000 A 
ATOM      5  C   UNL     1       4.287  -2.475   0.000  0.00  0.00    +0.000 A 
ATOM      6  C   UNL     1       5.001  -2.888   0.000  0.00  0.00    +0.000 A 
ATOM      7  C   UNL     1       5.001  -3.712   0.000  0.00  0.00    +0.000 A 
ATOM      8  C   UNL     1       4.287  -4.125   0.000  0.00  0.00    +0.000 A 
ATOM      9  C   UNL     1       3.572  -3.712   0.000  0.00  0.00    +0.000 A 
BRANCH   4  10
ATOM     10  O   UNL     1       2.858  -2.475   0.000  0.00  0.00    +0.000 OA
BRANCH  10  11
ATOM     11  C   UNL     1       2.143  -2.888   0.000  0.00  0.00    +0.000 C 
BRANCH  11  12
ATOM     12  C   UNL     1       1.429  -2.475   0.000  0.00  0.00    +0.000 C 
BRANCH  12  14
ATOM     13  C   UNL     1       0.000  -2.475   0.000  0.00  0.00    +0.000 C 
ATOM     14  C   UNL     1       0.715  -2.888   0.000  0.00  0.00    +0.000 C 
ENDBRANCH  12  14
ENDBRANCH  11  12
ENDBRANCH  10  11
ENDBRANCH   4  10
ENDBRANCH   1   7
BRANCH   1  15
ATOM     15  N   UNL     1       6.430  -4.537   0.000  0.00  0.00    +0.000 NA
ATOM     16  C   UNL     1       7.184  -4.202   0.000  0.00  0.00    +0.000 C 
ATOM     17  C   UNL     1       7.736  -4.815   0.000  0.00  0.00    +0.000 C 
ATOM     18  C   UNL     1       7.323  -5.529   0.000  0.00  0.00    +0.000 C 
ATOM     19  C   UNL     1       6.516  -5.358   0.000  0.00  0.00    +0.000 C 
BRANCH  19  20
ATOM     20  C   UNL     1       5.903  -5.910   0.000  0.00  0.00    +0.000 C 
ATOM     21  O   UNL     1       5.119  -5.655   0.000  0.00  0.00    +0.000 OA
ATOM     22  N   UNL     1       6.075  -6.717   0.000  0.00  0.00    +0.000 NA
ATOM     23  O   UNL     1       5.462  -7.269   0.000  0.00  0.00    +0.000 OA
ENDBRANCH  19  20
BRANCH  17  24
ATOM     24  N   UNL     1       8.556  -4.729   0.000  0.00  0.00    +0.000 NA
BRANCH  24  25
ATOM     25  S   UNL     1       8.892  -3.975   0.000  0.00  0.00    +0.000 S 
ATOM     26  C   UNL     1       9.227  -3.221   0.000  0.00  0.00    +0.000 C 
ATOM     27  O   UNL     1       9.646  -4.311   0.000  0.00  0.00    +0.000 OA
ATOM     28  O   UNL     1       8.138  -3.640   0.000  0.00  0.00    +0.000 OA
ENDBRANCH  24  25
ENDBRANCH  17  24
ENDBRANCH   1  15
TORSDOF 9
