REMARK  Name = 
REMARK  4 active torsions:
REMARK  status: ('A' for Active; 'I' for Inactive)
REMARK    1  A    between atoms: C_2  and  C_4
REMARK    2  A    between atoms: C_4  and  C_5
REMARK    3  A    between atoms: C_5  and  C_6
REMARK    4  A    between atoms: C_5  and  C_9
REMARK                            x       y       z     vdW  Elec       q    Type
REMARK                         _______ _______ _______ _____ _____    ______ ____
ROOT
ATOM      1  C   UNL     1       3.904   1.429   0.000  0.00  0.00    +0.000 C 
ENDROOT
BRANCH   1   2
ATOM      2  C   UNL     1       4.618   1.841   0.000  0.00  0.00    +0.000 C 
ATOM      3  O   UNL     1       4.618   2.666   0.000  0.00  0.00    +0.000 OA
ATOM      4  N   UNL     1       5.333   1.429   0.000  0.00  0.00    +0.000 NA
ATOM      5  O   UNL     1       6.047   1.841   0.000  0.00  0.00    +0.000 OA
ENDBRANCH   1   2
BRANCH   1   6
ATOM      6  C   UNL     1       3.904   0.604   0.000  0.00  0.00    +0.000 C 
ATOM      7  O   UNL     1       4.618   0.191   0.000  0.00  0.00    +0.000 OA
ATOM      8  O   UNL     1       3.189   0.191   0.000  0.00  0.00    +0.000 OA
ENDBRANCH   1   6
BRANCH   1   9
ATOM      9  C   UNL     1       3.189   1.841   0.000  0.00  0.00    +0.000 C 
BRANCH   9  11
ATOM     10  C   UNL     1       1.760   1.841   0.000  0.00  0.00    +0.000 C 
ATOM     11  C   UNL     1       2.475   1.429   0.000  0.00  0.00    +0.000 C 
ATOM     12  C   UNL     1       2.475   0.604   0.000  0.00  0.00    +0.000 C 
ENDBRANCH   9  11
ENDBRANCH   1   9
TORSDOF 4
