REMARK  Name = 
REMARK  5 active torsions:
REMARK  status: ('A' for Active; 'I' for Inactive)
REMARK    1  A    between atoms: C_2  and  C_3
REMARK    2  A    between atoms: C_4  and  C_5
REMARK    3  A    between atoms: C_6  and  C_8
REMARK    4  A    between atoms: C_9  and  C_10
REMARK    5  A    between atoms: C_20  and  C_21
REMARK                            x       y       z     vdW  Elec       q    Type
REMARK                         _______ _______ _______ _____ _____    ______ ____
ROOT
ATOM      1  C   UNL     1       2.143   2.062   0.000  0.00  0.00    +0.000 C 
ATOM      2  C   UNL     1       2.143   1.238   0.000  0.00  0.00    +0.000 C 
ENDROOT
BRANCH   2   3
ATOM      3  C   UNL     1       1.429   0.825   0.000  0.00  0.00    +0.000 C 
ATOM      4  C   UNL     1       1.429   0.000   0.000  0.00  0.00    +0.000 C 
ATOM      5  C   UNL     1       2.143  -0.412   0.000  0.00  0.00    +0.000 C 
ATOM      6  C   UNL     1       0.715  -0.412   0.000  0.00  0.00    +0.000 C 
ATOM      7  O   UNL     1       0.715  -1.238   0.000  0.00  0.00    +0.000 OA
ATOM      8  C   UNL     1       0.000   0.000   0.000  0.00  0.00    +0.000 C 
ATOM      9  C   UNL     1       0.000   0.825   0.000  0.00  0.00    +0.000 C 
ATOM     10  C   UNL     1       0.715   1.238   0.000  0.00  0.00    +0.000 C 
ATOM     11  C   UNL     1       0.327   1.966   0.000  0.00  0.00    +0.000 C 
ATOM     12  C   UNL     1       1.102   1.966   0.000  0.00  0.00    +0.000 C 
ENDBRANCH   2   3
BRANCH   1  14
ATOM     13  C   UNL     1       3.572   2.062   0.000  0.00  0.00    +0.000 C 
ATOM     14  C   UNL     1       2.858   2.475   0.000  0.00  0.00    +0.000 C 
ATOM     15  C   UNL     1       2.858   3.300   0.000  0.00  0.00    +0.000 C 
BRANCH  13  17
ATOM     16  C   UNL     1       5.001   2.062   0.000  0.00  0.00    +0.000 C 
ATOM     17  C   UNL     1       4.287   2.475   0.000  0.00  0.00    +0.000 C 
BRANCH  16  19
ATOM     18  C   UNL     1       5.716   3.300   0.000  0.00  0.00    +0.000 C 
ATOM     19  C   UNL     1       5.716   2.475   0.000  0.00  0.00    +0.000 C 
ATOM     20  C   UNL     1       6.430   2.062   0.000  0.00  0.00    +0.000 C 
BRANCH  20  21
ATOM     21  C   UNL     1       7.145   2.475   0.000  0.00  0.00    +0.000 C 
ATOM     22  O   UNL     1       7.145   3.300   0.000  0.00  0.00    +0.000 OA
ENDBRANCH  20  21
ENDBRANCH  16  19
ENDBRANCH  13  17
ENDBRANCH   1  14
TORSDOF 5
