REMARK  Name = 
REMARK  4 active torsions:
REMARK  status: ('A' for Active; 'I' for Inactive)
REMARK    1  A    between atoms: O_2  and  C_9
REMARK    2  A    between atoms: C_12  and  C_19
REMARK    3  A    between atoms: C_19  and  C_22
REMARK    4  A    between atoms: C_22  and  C_29
REMARK                            x       y       z     vdW  Elec       q    Type
REMARK                         _______ _______ _______ _____ _____    ______ ____
ROOT
ATOM      1  O   UNL     1       4.308  -1.191   0.000  0.00  0.00    +0.000 OA
ATOM      2  O   UNL     1       2.240  -1.362   0.000  0.00  0.00    +0.000 OA
ATOM      3  N   UNL     1       5.142   2.236   0.000  0.00  0.00    +0.000 NA
ATOM      4  C   UNL     1       4.729   0.093   0.000  0.00  0.00    +0.000 C 
ATOM      5  C   UNL     1       5.142   0.807   0.000  0.00  0.00    +0.000 C 
ATOM      6  C   UNL     1       5.142  -0.622   0.000  0.00  0.00    +0.000 C 
ATOM      7  C   UNL     1       5.967  -0.622   0.000  0.00  0.00    +0.000 C 
ATOM      8  C   UNL     1       4.729   1.522   0.000  0.00  0.00    +0.000 C 
ATOM      9  C   UNL     1       5.738   0.423   0.000  0.00  0.00    +0.000 C 
ATOM     10  C   UNL     1       5.426  -0.201   0.000  0.00  0.00    +0.000 C 
ATOM     11  C   UNL     1       4.317   0.807   0.000  0.00  0.00    +0.000 C 
ATOM     12  C   UNL     1       3.905   0.093   0.000  0.00  0.00    +0.000 A 
ATOM     13  C   UNL     1       5.967   0.807   0.000  0.00  0.00    +0.000 C 
ATOM     14  C   UNL     1       3.905   1.522   0.000  0.00  0.00    +0.000 C 
ATOM     15  C   UNL     1       6.380   0.093   0.000  0.00  0.00    +0.000 C 
ATOM     16  C   UNL     1       4.308   2.384   0.000  0.00  0.00    +0.000 C 
ATOM     17  C   UNL     1       3.492   0.807   0.000  0.00  0.00    +0.000 A 
ATOM     18  C   UNL     1       3.492  -0.622   0.000  0.00  0.00    +0.000 A 
ATOM     19  C   UNL     1       5.917   2.597   0.000  0.00  0.00    +0.000 C 
ATOM     20  C   UNL     1       2.667   0.807   0.000  0.00  0.00    +0.000 A 
ATOM     21  C   UNL     1       2.667  -0.622   0.000  0.00  0.00    +0.000 A 
ATOM     22  C   UNL     1       2.255   0.093   0.000  0.00  0.00    +0.000 A 
ENDROOT
BRANCH  10  24
ATOM     23  O   UNL     1       4.644  -1.721   0.000  0.00  0.00    +0.000 OA
ATOM     24  C   UNL     1       5.035  -0.961   0.000  0.00  0.00    +0.000 C 
ATOM     25  C   UNL     1       4.275  -0.570   0.000  0.00  0.00    +0.000 C 
BRANCH  24  26
ATOM     26  C   UNL     1       5.795  -1.352   0.000  0.00  0.00    +0.000 C 
BRANCH  26  27
ATOM     27  C   UNL     1       5.836  -2.206   0.000  0.00  0.00    +0.000 C 
ATOM     28  C   UNL     1       6.596  -2.597   0.000  0.00  0.00    +0.000 C 
ENDBRANCH  26  27
ENDBRANCH  24  26
ENDBRANCH  10  24
BRANCH   7  29
ATOM     29  O   UNL     1       6.394  -1.362   0.000  0.00  0.00    +0.000 OA
ATOM     30  C   UNL     1       7.249  -1.362   0.000  0.00  0.00    +0.000 C 
ENDBRANCH   7  29
TORSDOF 4
