REMARK  Name = 
REMARK  12 active torsions:
REMARK  status: ('A' for Active; 'I' for Inactive)
REMARK    1  A    between atoms: C_2  and  C_4
REMARK    2  A    between atoms: C_2  and  C_11
REMARK    3  A    between atoms: C_3  and  C_5
REMARK    4  A    between atoms: C_3  and  C_12
REMARK    5  A    between atoms: C_4  and  C_17
REMARK    6  A    between atoms: C_5  and  C_18
REMARK    7  A    between atoms: C_6  and  C_13
REMARK    8  A    between atoms: C_6  and  C_19
REMARK    9  A    between atoms: C_7  and  C_14
REMARK   10  A    between atoms: C_7  and  C_20
REMARK   11  A    between atoms: C_8  and  C_15
REMARK   12  A    between atoms: C_8  and  C_16
REMARK                            x       y       z     vdW  Elec       q    Type
REMARK                         _______ _______ _______ _____ _____    ______ ____
ROOT
ATOM      1  C   UNL     1      -0.879   1.764   0.000  0.00  0.00    +0.000 C 
ENDROOT
BRANCH   1   6
ATOM      2  C   UNL     1      -3.533   2.945   0.000  0.00  0.00    +0.000 C 
ATOM      3  C   UNL     1      -2.919   2.393   0.000  0.00  0.00    +0.000 A 
ATOM      4  C   UNL     1      -2.252   1.237   0.000  0.00  0.00    +0.000 A 
ATOM      5  C   UNL     1      -3.006   1.573   0.000  0.00  0.00    +0.000 A 
ATOM      6  C   UNL     1      -1.700   1.850   0.000  0.00  0.00    +0.000 A 
ATOM      7  N   UNL     1      -2.112   2.565   0.000  0.00  0.00    +0.000 NA
BRANCH   4   8
ATOM      8  C   UNL     1      -2.080   0.430   0.000  0.00  0.00    +0.000 C 
BRANCH   8   9
ATOM      9  C   UNL     1      -1.296   0.175   0.000  0.00  0.00    +0.000 C 
BRANCH   9  10
ATOM     10  C   UNL     1      -1.124  -0.632   0.000  0.00  0.00    +0.000 C 
ATOM     11  O   UNL     1      -0.340  -0.887   0.000  0.00  0.00    +0.000 OA
ATOM     12  O   UNL     1      -1.737  -1.184   0.000  0.00  0.00    +0.000 OA
ENDBRANCH   9  10
ENDBRANCH   8   9
ENDBRANCH   4   8
BRANCH   5  13
ATOM     13  C   UNL     1      -3.720   1.160   0.000  0.00  0.00    +0.000 C 
BRANCH  13  14
ATOM     14  C   UNL     1      -3.720   0.335   0.000  0.00  0.00    +0.000 C 
ATOM     15  O   UNL     1      -3.006  -0.077   0.000  0.00  0.00    +0.000 OA
ATOM     16  O   UNL     1      -4.435  -0.077   0.000  0.00  0.00    +0.000 OA
ENDBRANCH  13  14
ENDBRANCH   5  13
ENDBRANCH   1   6
BRANCH   1  20
ATOM     17  C   UNL     1       0.685   3.216   0.000  0.00  0.00    +0.000 A 
ATOM     18  C   UNL     1       0.018   3.701   0.000  0.00  0.00    +0.000 A 
ATOM     19  C   UNL     1      -0.649   3.216   0.000  0.00  0.00    +0.000 A 
ATOM     20  C   UNL     1      -0.395   2.431   0.000  0.00  0.00    +0.000 A 
ATOM     21  N   UNL     1       0.430   2.431   0.000  0.00  0.00    +0.000 NA
BRANCH  18  22
ATOM     22  C   UNL     1       0.018   4.526   0.000  0.00  0.00    +0.000 C 
BRANCH  22  23
ATOM     23  C   UNL     1       0.732   4.939   0.000  0.00  0.00    +0.000 C 
BRANCH  23  24
ATOM     24  C   UNL     1       0.732   5.763   0.000  0.00  0.00    +0.000 C 
ATOM     25  O   UNL     1       1.447   6.176   0.000  0.00  0.00    +0.000 OA
ATOM     26  O   UNL     1       0.018   6.176   0.000  0.00  0.00    +0.000 OA
ENDBRANCH  23  24
ENDBRANCH  22  23
ENDBRANCH  18  22
BRANCH  19  27
ATOM     27  C   UNL     1      -1.434   3.471   0.000  0.00  0.00    +0.000 C 
BRANCH  27  28
ATOM     28  C   UNL     1      -1.606   4.278   0.000  0.00  0.00    +0.000 C 
ATOM     29  O   UNL     1      -2.390   4.533   0.000  0.00  0.00    +0.000 OA
ATOM     30  O   UNL     1      -0.993   4.830   0.000  0.00  0.00    +0.000 OA
ENDBRANCH  27  28
ENDBRANCH  19  27
ENDBRANCH   1  20
TORSDOF 12
