REMARK  Name = 
REMARK  2 active torsions:
REMARK  status: ('A' for Active; 'I' for Inactive)
REMARK    1  A    between atoms: C_9  and  C_10
REMARK    2  A    between atoms: C_10  and  C_12
REMARK                            x       y       z     vdW  Elec       q    Type
REMARK                         _______ _______ _______ _____ _____    ______ ____
ROOT
ATOM      1  O   UNL     1      24.675  -6.437   0.000  0.00  0.00    +0.000 OA
ATOM      2  N   UNL     1      23.246  -3.962   0.000  0.00  0.00    +0.000 NA
ATOM      3  N   UNL     1      24.675  -3.962   0.000  0.00  0.00    +0.000 NA
ATOM      4  N   UNL     1      26.127  -3.933   0.000  0.00  0.00    +0.000 NA
ATOM      5  N   UNL     1      26.127  -5.641   0.000  0.00  0.00    +0.000 NA
ATOM      6  N   UNL     1      23.961  -5.200   0.000  0.00  0.00    +0.000 NA
ATOM      7  C   UNL     1      26.875  -5.217   0.000  0.00  0.00    +0.000 C 
ATOM      8  C   UNL     1      26.875  -4.357   0.000  0.00  0.00    +0.000 C 
ATOM      9  C   UNL     1      23.961  -4.375   0.000  0.00  0.00    +0.000 A 
ATOM     10  C   UNL     1      25.390  -4.375   0.000  0.00  0.00    +0.000 A 
ATOM     11  C   UNL     1      24.675  -5.612   0.000  0.00  0.00    +0.000 A 
ATOM     12  C   UNL     1      25.390  -5.200   0.000  0.00  0.00    +0.000 A 
ENDROOT
BRANCH   7  14
ATOM     13  O   UNL     1      27.584  -6.457   0.000  0.00  0.00    +0.000 OA
ATOM     14  C   UNL     1      27.588  -5.632   0.000  0.00  0.00    +0.000 C 
BRANCH  14  16
ATOM     15  O   UNL     1      29.017  -5.638   0.000  0.00  0.00    +0.000 OA
ATOM     16  C   UNL     1      28.304  -5.222   0.000  0.00  0.00    +0.000 C 
ATOM     17  C   UNL     1      28.307  -4.397   0.000  0.00  0.00    +0.000 C 
ENDBRANCH  14  16
ENDBRANCH   7  14
TORSDOF 2
