REMARK  Name = 
REMARK  1 active torsions:
REMARK  status: ('A' for Active; 'I' for Inactive)
REMARK    1  A    between atoms: C_4  and  C_6
REMARK                            x       y       z     vdW  Elec       q    Type
REMARK                         _______ _______ _______ _____ _____    ______ ____
ROOT
ATOM      1  O   UNL     1       3.522   1.031   0.000  0.00  0.00    +0.000 OA
ATOM      2  C   UNL     1       3.522   0.206   0.000  0.00  0.00    +0.000 C 
ATOM      3  C   UNL     1       4.236  -0.206   0.000  0.00  0.00    +0.000 C 
ENDROOT
BRANCH   2   6
ATOM      4  O   UNL     1       2.093   0.206   0.000  0.00  0.00    +0.000 OA
ATOM      5  O   UNL     1       2.807  -1.031   0.000  0.00  0.00    +0.000 OA
ATOM      6  C   UNL     1       2.807  -0.206   0.000  0.00  0.00    +0.000 C 
ENDBRANCH   2   6
TORSDOF 1
