REMARK  Name = 
REMARK  8 active torsions:
REMARK  status: ('A' for Active; 'I' for Inactive)
REMARK    1  A    between atoms: C_2  and  C_3
REMARK    2  A    between atoms: C_3  and  C_4
REMARK    3  A    between atoms: C_4  and  O_6
REMARK    4  A    between atoms: O_6  and  C_7
REMARK    5  A    between atoms: C_7  and  C_30
REMARK    6  A    between atoms: C_30  and  C_32
REMARK    7  A    between atoms: C_32  and  O_33
REMARK    8  A    between atoms: O_33  and  C_34
REMARK                            x       y       z     vdW  Elec       q    Type
REMARK                         _______ _______ _______ _____ _____    ______ ____
ROOT
ATOM      1  C   UNL     1       4.787   0.967   0.000  0.00  0.00    +0.000 C 
ATOM      2  C   UNL     1       5.017   0.174   0.000  0.00  0.00    +0.000 C 
ATOM      3  C   UNL     1       4.334  -0.289   0.000  0.00  0.00    +0.000 C 
ATOM      4  C   UNL     1       3.683   0.217   0.000  0.00  0.00    +0.000 C 
ATOM      5  C   UNL     1       3.963   0.993   0.000  0.00  0.00    +0.000 C 
ATOM      6  C   UNL     1       3.431   1.624   0.000  0.00  0.00    +0.000 C 
ATOM      7  C   UNL     1       2.619   1.479   0.000  0.00  0.00    +0.000 C 
ATOM      8  C   UNL     1       2.339   0.703   0.000  0.00  0.00    +0.000 C 
ATOM      9  C   UNL     1       2.870   0.072   0.000  0.00  0.00    +0.000 C 
ATOM     10  C   UNL     1       2.590  -0.704   0.000  0.00  0.00    +0.000 C 
ATOM     11  C   UNL     1       1.778  -0.849   0.000  0.00  0.00    +0.000 C 
ATOM     12  C   UNL     1       1.246  -0.218   0.000  0.00  0.00    +0.000 C 
ATOM     13  C   UNL     1       0.434  -0.363   0.000  0.00  0.00    +0.000 C 
ATOM     14  C   UNL     1      -0.098   0.267   0.000  0.00  0.00    +0.000 C 
ATOM     15  O   UNL     1      -0.910   0.122   0.000  0.00  0.00    +0.000 OA
ATOM     16  C   UNL     1       0.183   1.043   0.000  0.00  0.00    +0.000 C 
ATOM     17  C   UNL     1       0.995   1.188   0.000  0.00  0.00    +0.000 C 
ATOM     18  C   UNL     1       1.527   0.558   0.000  0.00  0.00    +0.000 C 
ATOM     19  C   UNL     1       1.467   1.362   0.000  0.00  0.00    +0.000 C 
ATOM     20  F   UNL     1       1.498  -1.625   0.000  0.00  0.00    +0.000 F 
ATOM     21  F   UNL     1       2.138   1.356   0.000  0.00  0.00    +0.000 F 
ATOM     22  O   UNL     1       2.087   2.110   0.000  0.00  0.00    +0.000 OA
ATOM     23  C   UNL     1       4.210   1.792   0.000  0.00  0.00    +0.000 C 
ENDROOT
BRANCH   1  24
ATOM     24  C   UNL     1       5.600   1.112   0.000  0.00  0.00    +0.000 C 
ATOM     25  O   UNL     1       6.282   1.575   0.000  0.00  0.00    +0.000 OA
BRANCH  24  26
ATOM     26  C   UNL     1       6.131   0.481   0.000  0.00  0.00    +0.000 C 
BRANCH  26  27
ATOM     27  O   UNL     1       5.851  -0.295   0.000  0.00  0.00    +0.000 OA
BRANCH  27  28
ATOM     28  C   UNL     1       6.383  -0.926   0.000  0.00  0.00    +0.000 C 
ATOM     29  O   UNL     1       7.195  -0.780   0.000  0.00  0.00    +0.000 OA
ATOM     30  C   UNL     1       6.103  -1.702   0.000  0.00  0.00    +0.000 C 
ENDBRANCH  27  28
ENDBRANCH  26  27
ENDBRANCH  24  26
ENDBRANCH   1  24
BRANCH   1  31
ATOM     31  O   UNL     1       4.898   1.846   0.000  0.00  0.00    +0.000 OA
BRANCH  31  32
ATOM     32  C   UNL     1       5.411   2.252   0.000  0.00  0.00    +0.000 C 
ATOM     33  O   UNL     1       6.153   1.893   0.000  0.00  0.00    +0.000 OA
BRANCH  32  34
ATOM     34  C   UNL     1       5.351   3.075   0.000  0.00  0.00    +0.000 C 
BRANCH  34  36
ATOM     35  C   UNL     1       5.975   4.361   0.000  0.00  0.00    +0.000 C 
ATOM     36  C   UNL     1       6.034   3.538   0.000  0.00  0.00    +0.000 C 
ENDBRANCH  34  36
ENDBRANCH  32  34
ENDBRANCH  31  32
ENDBRANCH   1  31
TORSDOF 8
