REMARK  Name = 
REMARK  0 active torsions:
REMARK  status: ('A' for Active; 'I' for Inactive)
REMARK                            x       y       z     vdW  Elec       q    Type
REMARK                         _______ _______ _______ _____ _____    ______ ____
ROOT
ATOM      1  N   UNL     1       4.072   1.575   0.000  0.00  0.00    +0.000 NA
ATOM      2  C   UNL     1       3.247   1.549   0.000  0.00  0.00    +0.000 A 
ATOM      3  N   UNL     1       2.812   2.250   0.000  0.00  0.00    +0.000 NA
ATOM      4  C   UNL     1       1.988   2.224   0.000  0.00  0.00    +0.000 A 
ATOM      5  C   UNL     1       1.598   1.497   0.000  0.00  0.00    +0.000 A 
ATOM      6  N   UNL     1       0.773   1.471   0.000  0.00  0.00    +0.000 N 
ATOM      7  C   UNL     1       0.339   2.173   0.000  0.00  0.00    +0.000 C 
ATOM      8  C   UNL     1       0.729   2.900   0.000  0.00  0.00    +0.000 C 
ATOM      9  N   UNL     1       1.553   2.925   0.000  0.00  0.00    +0.000 NA
ATOM     10  C   UNL     1      -0.463   1.976   0.000  0.00  0.00    +0.000 C 
ATOM     11  O   UNL     1      -0.523   1.153   0.000  0.00  0.00    +0.000 OA
ATOM     12  C   UNL     1       0.241   0.841   0.000  0.00  0.00    +0.000 C 
ATOM     13  O   UNL     1       0.437   0.040   0.000  0.00  0.00    +0.000 OA
ATOM     14  C   UNL     1       2.033   0.796   0.000  0.00  0.00    +0.000 A 
ATOM     15  O   UNL     1       1.643   0.069   0.000  0.00  0.00    +0.000 OA
ATOM     16  N   UNL     1       2.857   0.822   0.000  0.00  0.00    +0.000 NA
ENDROOT
TORSDOF 0
