REMARK  Name = 
REMARK  4 active torsions:
REMARK  status: ('A' for Active; 'I' for Inactive)
REMARK    1  A    between atoms: C_1  and  N_3
REMARK    2  A    between atoms: C_5  and  C_9
REMARK    3  A    between atoms: N_6  and  C_10
REMARK    4  A    between atoms: C_16  and  C_19
REMARK                            x       y       z     vdW  Elec       q    Type
REMARK                         _______ _______ _______ _____ _____    ______ ____
ROOT
ATOM      1  N   UNL     1      15.130  -9.804   0.000  0.00  0.00    +0.000 NA
ATOM      2  N   UNL     1      14.419 -10.216   0.000  0.00  0.00    +0.000 NA
ENDROOT
BRANCH   1   3
ATOM      3  C   UNL     1      15.843 -10.216   0.000  0.00  0.00    +0.000 A 
ATOM      4  C   UNL     1      15.822 -11.043   0.000  0.00  0.00    +0.000 A 
ATOM      5  C   UNL     1      16.567  -9.825   0.000  0.00  0.00    +0.000 A 
ATOM      6  C   UNL     1      16.529 -11.471   0.000  0.00  0.00    +0.000 A 
ATOM      7  C   UNL     1      17.273 -10.250   0.000  0.00  0.00    +0.000 A 
ATOM      8  C   UNL     1      17.294 -11.073   0.000  0.00  0.00    +0.000 A 
ATOM      9  O   UNL     1      17.959 -11.506   0.000  0.00  0.00    +0.000 OA
BRANCH   6  10
ATOM     10  C   UNL     1      16.550 -12.298   0.000  0.00  0.00    +0.000 C 
ATOM     11  O   UNL     1      17.215 -12.723   0.000  0.00  0.00    +0.000 OA
ATOM     12  O   UNL     1      15.785 -12.689   0.000  0.00  0.00    +0.000 OA
ENDBRANCH   6  10
ENDBRANCH   1   3
BRANCH   2  13
ATOM     13  C   UNL     1      13.703  -9.808   0.000  0.00  0.00    +0.000 A 
ATOM     14  C   UNL     1      13.703  -8.981   0.000  0.00  0.00    +0.000 A 
ATOM     15  C   UNL     1      12.992 -10.216   0.000  0.00  0.00    +0.000 A 
ATOM     16  C   UNL     1      12.992  -8.566   0.000  0.00  0.00    +0.000 A 
ATOM     17  C   UNL     1      12.275  -9.808   0.000  0.00  0.00    +0.000 A 
ATOM     18  C   UNL     1      12.275  -8.981   0.000  0.00  0.00    +0.000 A 
ATOM     19  O   UNL     1      11.559  -8.566   0.000  0.00  0.00    +0.000 OA
BRANCH  16  20
ATOM     20  C   UNL     1      12.992  -7.743   0.000  0.00  0.00    +0.000 C 
ATOM     21  O   UNL     1      12.279  -7.331   0.000  0.00  0.00    +0.000 OA
ATOM     22  O   UNL     1      13.706  -7.334   0.000  0.00  0.00    +0.000 OA
ENDBRANCH  16  20
ENDBRANCH   2  13
TORSDOF 4
