REMARK  Name = 
REMARK  11 active torsions:
REMARK  status: ('A' for Active; 'I' for Inactive)
REMARK    1  A    between atoms: C_2  and  C_7
REMARK    2  A    between atoms: C_2  and  O_32
REMARK    3  A    between atoms: C_3  and  C_8
REMARK    4  A    between atoms: C_3  and  O_33
REMARK    5  A    between atoms: C_6  and  O_34
REMARK    6  A    between atoms: C_13  and  O_34
REMARK    7  A    between atoms: C_16  and  N_22
REMARK    8  A    between atoms: O_32  and  P_38
REMARK    9  A    between atoms: O_33  and  P_39
REMARK   10  A    between atoms: O_37  and  P_38
REMARK   11  A    between atoms: O_37  and  P_39
REMARK                            x       y       z     vdW  Elec       q    Type
REMARK                         _______ _______ _______ _____ _____    ______ ____
ROOT
ATOM      1  O   UNL     1      -0.665  -3.467   0.000  0.00  0.00    +0.000 OA
ATOM      2  O   UNL     1      -1.634  -2.132   0.000  0.00  0.00    +0.000 OA
ATOM      3  P   UNL     1      -1.149  -2.799   0.000  0.00  0.00    +0.000 P 
ENDROOT
BRANCH   3   4
ATOM      4  O   UNL     1      -0.482  -2.314   0.000  0.00  0.00    +0.000 OA
BRANCH   4   5
ATOM      5  C   UNL     1      -0.568  -1.494   0.000  0.00  0.00    +0.000 C 
BRANCH   5   6
ATOM      6  C   UNL     1       0.099  -1.009   0.000  0.00  0.00    +0.000 C 
ATOM      7  C   UNL     1       0.884  -1.264   0.000  0.00  0.00    +0.000 C 
ATOM      8  C   UNL     1       1.369  -0.597   0.000  0.00  0.00    +0.000 C 
ATOM      9  C   UNL     1       0.884   0.071   0.000  0.00  0.00    +0.000 C 
ATOM     10  O   UNL     1       1.139  -2.049   0.000  0.00  0.00    +0.000 OA
ATOM     11  O   UNL     1       2.194  -0.597   0.000  0.00  0.00    +0.000 OA
ATOM     12  O   UNL     1       0.099  -0.184   0.000  0.00  0.00    +0.000 OA
BRANCH   9  22
ATOM     13  C   UNL     1       3.352   1.110   0.000  0.00  0.00    +0.000 A 
ATOM     14  C   UNL     1       0.654   1.523   0.000  0.00  0.00    +0.000 A 
ATOM     15  C   UNL     1       1.923   1.935   0.000  0.00  0.00    +0.000 A 
ATOM     16  C   UNL     1       2.638   2.348   0.000  0.00  0.00    +0.000 A 
ATOM     17  C   UNL     1       1.923   1.110   0.000  0.00  0.00    +0.000 A 
ATOM     18  N   UNL     1       2.638   3.173   0.000  0.00  0.00    +0.000 NA
ATOM     19  N   UNL     1       3.352   1.935   0.000  0.00  0.00    +0.000 NA
ATOM     20  N   UNL     1       2.638   0.698   0.000  0.00  0.00    +0.000 NA
ATOM     21  N   UNL     1       1.139   2.190   0.000  0.00  0.00    +0.000 NA
ATOM     22  N   UNL     1       1.139   0.856   0.000  0.00  0.00    +0.000 N 
ENDBRANCH   9  22
ENDBRANCH   5   6
ENDBRANCH   4   5
ENDBRANCH   3   4
BRANCH   3  23
ATOM     23  O   UNL     1      -1.817  -3.284   0.000  0.00  0.00    +0.000 OA
BRANCH  23  26
ATOM     24  O   UNL     1      -0.910  -4.019   0.000  0.00  0.00    +0.000 OA
ATOM     25  O   UNL     1      -2.551  -4.191   0.000  0.00  0.00    +0.000 OA
ATOM     26  P   UNL     1      -1.731  -4.105   0.000  0.00  0.00    +0.000 P 
BRANCH  26  27
ATOM     27  O   UNL     1      -1.644  -4.925   0.000  0.00  0.00    +0.000 OA
BRANCH  27  28
ATOM     28  C   UNL     1      -2.312  -5.410   0.000  0.00  0.00    +0.000 C 
BRANCH  28  29
ATOM     29  C   UNL     1      -2.226  -6.231   0.000  0.00  0.00    +0.000 C 
ATOM     30  C   UNL     1      -2.839  -6.783   0.000  0.00  0.00    +0.000 C 
ATOM     31  C   UNL     1      -2.503  -7.536   0.000  0.00  0.00    +0.000 C 
ATOM     32  C   UNL     1      -1.683  -7.450   0.000  0.00  0.00    +0.000 C 
ATOM     33  O   UNL     1      -3.646  -6.611   0.000  0.00  0.00    +0.000 OA
ATOM     34  O   UNL     1      -1.131  -8.063   0.000  0.00  0.00    +0.000 OA
ATOM     35  O   UNL     1      -1.511  -6.643   0.000  0.00  0.00    +0.000 OA
BRANCH  31  36
ATOM     36  O   UNL     1      -2.916  -8.251   0.000  0.00  0.00    +0.000 OA
BRANCH  36  38
ATOM     37  C   UNL     1      -2.916  -9.680   0.000  0.00  0.00    +0.000 C 
ATOM     38  C   UNL     1      -2.503  -8.965   0.000  0.00  0.00    +0.000 C 
ATOM     39  O   UNL     1      -1.678  -8.965   0.000  0.00  0.00    +0.000 OA
ENDBRANCH  36  38
ENDBRANCH  31  36
ENDBRANCH  28  29
ENDBRANCH  27  28
ENDBRANCH  26  27
ENDBRANCH  23  26
ENDBRANCH   3  23
TORSDOF 11
