REMARK  Name = 
REMARK  1 active torsions:
REMARK  status: ('A' for Active; 'I' for Inactive)
REMARK    1  A    between atoms: C_1  and  C_4
REMARK                            x       y       z     vdW  Elec       q    Type
REMARK                         _______ _______ _______ _____ _____    ______ ____
ROOT
ATOM      1  C   UNL     1      10.821  -8.060   0.000  0.00  0.00    +0.000 C 
ATOM      2  C   UNL     1      11.536  -8.470   0.000  0.00  0.00    +0.000 C 
ATOM      3  C   UNL     1      10.109  -8.470   0.000  0.00  0.00    +0.000 C 
ATOM      4  C   UNL     1      11.536  -9.299   0.000  0.00  0.00    +0.000 C 
ATOM      5  C   UNL     1      10.109  -9.299   0.000  0.00  0.00    +0.000 C 
ATOM      6  C   UNL     1      10.821  -9.717   0.000  0.00  0.00    +0.000 C 
ATOM      7  O   UNL     1      12.248  -9.706   0.000  0.00  0.00    +0.000 OA
ATOM      8  O   UNL     1       9.397  -9.706   0.000  0.00  0.00    +0.000 OA
ATOM      9  O   UNL     1      10.817 -10.538   0.000  0.00  0.00    +0.000 OA
ENDROOT
BRANCH   1  10
ATOM     10  C   UNL     1      10.817  -7.242   0.000  0.00  0.00    +0.000 C 
ATOM     11  O   UNL     1      11.525  -6.832   0.000  0.00  0.00    +0.000 OA
ATOM     12  O   UNL     1      10.105  -6.836   0.000  0.00  0.00    +0.000 OA
ENDBRANCH   1  10
TORSDOF 1
