REMARK  Name = 
REMARK  3 active torsions:
REMARK  status: ('A' for Active; 'I' for Inactive)
REMARK    1  A    between atoms: O_3  and  C_17
REMARK    2  A    between atoms: N_5  and  C_8
REMARK    3  A    between atoms: C_15  and  C_16
REMARK                            x       y       z     vdW  Elec       q    Type
REMARK                         _______ _______ _______ _____ _____    ______ ____
ROOT
ATOM      1  O   UNL     1       6.547   0.402   0.000  0.00  0.00    +0.000 OA
ATOM      2  N   UNL     1       5.120   0.328   0.000  0.00  0.00    +0.000 NA
ATOM      3  C   UNL     1       5.855  -0.047   0.000  0.00  0.00    +0.000 C 
ENDROOT
BRANCH   2   6
ATOM      4  N   UNL     1       3.884   2.810   0.000  0.00  0.00    +0.000 NA
ATOM      5  C   UNL     1       3.670   2.013   0.000  0.00  0.00    +0.000 C 
ATOM      6  C   UNL     1       5.077   1.151   0.000  0.00  0.00    +0.000 C 
ATOM      7  C   UNL     1       3.276   3.621   0.000  0.00  0.00    +0.000 C 
ATOM      8  C   UNL     1       2.404   0.988   0.000  0.00  0.00    +0.000 C 
ATOM      9  C   UNL     1       5.718   1.671   0.000  0.00  0.00    +0.000 C 
ATOM     10  C   UNL     1       5.422   2.441   0.000  0.00  0.00    +0.000 C 
ATOM     11  C   UNL     1       1.650   1.323   0.000  0.00  0.00    +0.000 C 
ATOM     12  C   UNL     1       1.736   2.144   0.000  0.00  0.00    +0.000 C 
ENDBRANCH   2   6
BRANCH   3  15
ATOM     13 CL   UNL     1       4.557  -2.593   0.000  0.00  0.00    +0.000 Cl
ATOM     14  N   UNL     1       6.028  -3.342   0.000  0.00  0.00    +0.000 NA
ATOM     15  C   UNL     1       5.898  -0.871   0.000  0.00  0.00    +0.000 A 
ATOM     16  C   UNL     1       5.206  -1.320   0.000  0.00  0.00    +0.000 A 
ATOM     17  C   UNL     1       6.633  -1.245   0.000  0.00  0.00    +0.000 A 
ATOM     18  C   UNL     1       5.249  -2.144   0.000  0.00  0.00    +0.000 A 
ATOM     19  C   UNL     1       6.676  -2.069   0.000  0.00  0.00    +0.000 A 
ATOM     20  C   UNL     1       5.984  -2.518   0.000  0.00  0.00    +0.000 A 
BRANCH  16  21
ATOM     21  O   UNL     1       4.471  -0.946   0.000  0.00  0.00    +0.000 OA
ATOM     22  C   UNL     1       3.779  -1.395   0.000  0.00  0.00    +0.000 C 
ENDBRANCH  16  21
ENDBRANCH   3  15
TORSDOF 3
