REMARK  Name = 
REMARK  8 active torsions:
REMARK  status: ('A' for Active; 'I' for Inactive)
REMARK    1  A    between atoms: C_1  and  C_2
REMARK    2  A    between atoms: C_1  and  C_3
REMARK    3  A    between atoms: C_2  and  CA_4
REMARK    4  A    between atoms: C_3  and  N_8
REMARK    5  A    between atoms: CA_4  and  C_5
REMARK    6  A    between atoms: N_8  and  P_16
REMARK    7  A    between atoms: N_9  and  P_16
REMARK    8  A    between atoms: N_9  and  S_17
REMARK                            x       y       z     vdW  Elec       q    Type
REMARK                         _______ _______ _______ _____ _____    ______ ____
ROOT
ATOM      1  N   UNL     1       5.333  -1.429   0.000  0.00  0.00    +0.000 NA
ENDROOT
BRANCH   1   4
ATOM      2  N   UNL     1       6.460  -1.127   0.000  0.00  0.00    +0.000 NA
ATOM      3  O   UNL     1       5.635  -2.556   0.000  0.00  0.00    +0.000 OA
ATOM      4  P   UNL     1       6.047  -1.841   0.000  0.00  0.00    +0.000 P 
BRANCH   4   5
ATOM      5  N   UNL     1       6.762  -2.254   0.000  0.00  0.00    +0.000 NA
BRANCH   5   9
ATOM      6  O   UNL     1       8.191  -1.429   0.000  0.00  0.00    +0.000 OA
ATOM      7  O   UNL     1       7.889  -2.556   0.000  0.00  0.00    +0.000 OA
ATOM      8  O   UNL     1       7.064  -1.127   0.000  0.00  0.00    +0.000 OA
ATOM      9  S   UNL     1       7.476  -1.841   0.000  0.00  0.00    +0.000 S 
ENDBRANCH   5   9
ENDBRANCH   4   5
ENDBRANCH   1   4
BRANCH   1  10
ATOM     10  C   UNL     1       4.618  -1.841   0.000  0.00  0.00    +0.000 C 
BRANCH  10  11
ATOM     11  C   UNL     1       3.904  -1.429   0.000  0.00  0.00    +0.000 C 
BRANCH  11  12
ATOM     12  C   UNL     1       3.189  -1.841   0.000  0.00  0.00    +0.000 C 
BRANCH  12  13
ATOM     13  CA  UNL     1       2.475  -1.429   0.000  0.00  0.00    +0.000 C 
ATOM     14  N   UNL     1       2.475  -0.604   0.000  0.00  0.00    +0.000 NA
BRANCH  13  15
ATOM     15  C   UNL     1       1.760  -1.841   0.000  0.00  0.00    +0.000 C 
ATOM     16  O   UNL     1       1.046  -1.429   0.000  0.00  0.00    +0.000 OA
ATOM     17  OXT UNL     1       1.760  -2.666   0.000  0.00  0.00    +0.000 OA
ENDBRANCH  13  15
ENDBRANCH  12  13
ENDBRANCH  11  12
ENDBRANCH  10  11
ENDBRANCH   1  10
TORSDOF 8
