REMARK  Name = 
REMARK  3 active torsions:
REMARK  status: ('A' for Active; 'I' for Inactive)
REMARK    1  A    between atoms: C_2  and  CA_17
REMARK    2  A    between atoms: C_5  and  CA_22
REMARK    3  A    between atoms: C_8  and  C_24
REMARK                            x       y       z     vdW  Elec       q    Type
REMARK                         _______ _______ _______ _____ _____    ______ ____
ROOT
ATOM      1  O   UNL     1       1.690  -1.937   0.000  0.00  0.00    +0.000 OA
ATOM      2  C   UNL     1       1.196  -1.278   0.000  0.00  0.00    +0.000 C 
ATOM      3  C   UNL     1       1.526  -0.535   0.000  0.00  0.00    +0.000 C 
ATOM      4  O   UNL     1       2.350  -0.453   0.000  0.00  0.00    +0.000 OA
ATOM      5  C   UNL     1       0.370  -1.361   0.000  0.00  0.00    +0.000 A 
ATOM      6  C   UNL     1      -0.123  -0.700   0.000  0.00  0.00    +0.000 A 
ATOM      7  N   UNL     1      -0.948  -0.948   0.000  0.00  0.00    +0.000 NA
ATOM      8  CA  UNL     1      -0.948  -1.772   0.000  0.00  0.00    +0.000 A 
ATOM      9  C   UNL     1      -0.123  -2.020   0.000  0.00  0.00    +0.000 A 
ATOM     10  C   UNL     1       0.205   0.041   0.000  0.00  0.00    +0.000 A 
ATOM     11  C   UNL     1       1.031   0.205   0.000  0.00  0.00    +0.000 A 
ATOM     12  N   UNL     1       1.361   0.948   0.000  0.00  0.00    +0.000 NA
ATOM     13  CA  UNL     1       0.866   1.607   0.000  0.00  0.00    +0.000 A 
ATOM     14  C   UNL     1       0.041   1.526   0.000  0.00  0.00    +0.000 A 
ATOM     15  C   UNL     1      -0.288   0.783   0.000  0.00  0.00    +0.000 A 
ENDROOT
BRANCH   8  17
ATOM     16  O   UNL     1      -1.526  -3.092   0.000  0.00  0.00    +0.000 OA
ATOM     17  C   UNL     1      -1.607  -2.268   0.000  0.00  0.00    +0.000 C 
ATOM     18  OXT UNL     1      -2.350  -1.937   0.000  0.00  0.00    +0.000 OA
ENDBRANCH   8  17
BRANCH  13  20
ATOM     19  O   UNL     1       0.783   3.092   0.000  0.00  0.00    +0.000 OA
ATOM     20  C   UNL     1       1.196   2.350   0.000  0.00  0.00    +0.000 C 
ATOM     21  OXT UNL     1       2.103   2.433   0.000  0.00  0.00    +0.000 OA
ENDBRANCH  13  20
BRANCH  15  23
ATOM     22  O   UNL     1      -1.526   1.526   0.000  0.00  0.00    +0.000 OA
ATOM     23  C   UNL     1      -1.113   0.783   0.000  0.00  0.00    +0.000 C 
ATOM     24  O   UNL     1      -1.690   0.123   0.000  0.00  0.00    +0.000 OA
ENDBRANCH  15  23
TORSDOF 3
