REMARK  Name = 
REMARK  3 active torsions:
REMARK  status: ('A' for Active; 'I' for Inactive)
REMARK    1  A    between atoms: N_2  and  C_5
REMARK    2  A    between atoms: C_9  and  C_11
REMARK    3  A    between atoms: C_11  and  C_14
REMARK                            x       y       z     vdW  Elec       q    Type
REMARK                         _______ _______ _______ _____ _____    ______ ____
ROOT
ATOM      1  C   UNL     1       1.429   0.000   0.000  0.00  0.00    +0.000 A 
ATOM      2  C   UNL     1       0.715  -0.412   0.000  0.00  0.00    +0.000 A 
ATOM      3  C   UNL     1       0.000   0.000   0.000  0.00  0.00    +0.000 A 
ATOM      4  C   UNL     1       0.000   0.825   0.000  0.00  0.00    +0.000 A 
ATOM      5  C   UNL     1       0.715   1.238   0.000  0.00  0.00    +0.000 A 
ATOM      6  C   UNL     1       1.429   0.825   0.000  0.00  0.00    +0.000 A 
ENDROOT
BRANCH   1   8
ATOM      7  C   UNL     1       2.858  -0.825   0.000  0.00  0.00    +0.000 C 
ATOM      8  N   UNL     1       2.143  -0.412   0.000  0.00  0.00    +0.000 NA
ATOM      9  C   UNL     1       2.556   0.302   0.000  0.00  0.00    +0.000 C 
ATOM     10  C   UNL     1       1.731  -1.127   0.000  0.00  0.00    +0.000 C 
ENDBRANCH   1   8
BRANCH   5  11
ATOM     11  C   UNL     1       0.715   2.062   0.000  0.00  0.00    +0.000 C 
ATOM     12  O   UNL     1       1.540   2.062   0.000  0.00  0.00    +0.000 OA
ATOM     13  O   UNL     1      -0.111   2.062   0.000  0.00  0.00    +0.000 OA
BRANCH  11  14
ATOM     14  C   UNL     1       0.715   2.888   0.000  0.00  0.00    +0.000 C 
ATOM     15  F   UNL     1       0.715   3.712   0.000  0.00  0.00    +0.000 F 
ATOM     16  F   UNL     1       1.540   2.888   0.000  0.00  0.00    +0.000 F 
ATOM     17  F   UNL     1      -0.111   2.888   0.000  0.00  0.00    +0.000 F 
ENDBRANCH  11  14
ENDBRANCH   5  11
TORSDOF 3
