REMARK  Name = 
REMARK  0 active torsions:
REMARK  status: ('A' for Active; 'I' for Inactive)
REMARK                            x       y       z     vdW  Elec       q    Type
REMARK                         _______ _______ _______ _____ _____    ______ ____
ROOT
ATOM      1  C   UNL     1       1.804  -0.114   0.000  0.00  0.00    +0.000 C 
ATOM      2  C   UNL     1       0.304  -1.096   0.000  0.00  0.00    +0.000 C 
ATOM      3  C   UNL     1       1.804   1.221   0.000  0.00  0.00    +0.000 C 
ATOM      4  C   UNL     1       0.304   1.379   0.000  0.00  0.00    +0.000 C 
ATOM      5  C   UNL     1       2.288   0.554   0.000  0.00  0.00    +0.000 C 
ATOM      6  C   UNL     1      -1.125  -0.271   0.000  0.00  0.00    +0.000 C 
ATOM      7  C   UNL     1      -0.410   0.966   0.000  0.00  0.00    +0.000 C 
ATOM      8  C   UNL     1      -0.410  -1.509   0.000  0.00  0.00    +0.000 C 
ATOM      9  C   UNL     1      -1.125  -1.096   0.000  0.00  0.00    +0.000 C 
ATOM     10  C   UNL     1      -1.839   0.141   0.000  0.00  0.00    +0.000 C 
ATOM     11  C   UNL     1      -1.839  -1.509   0.000  0.00  0.00    +0.000 C 
ATOM     12  C   UNL     1      -2.553  -0.271   0.000  0.00  0.00    +0.000 C 
ATOM     13  C   UNL     1       0.304  -0.271   0.000  0.00  0.00    +0.000 C 
ATOM     14  C   UNL     1      -0.410   0.141   0.000  0.00  0.00    +0.000 C 
ATOM     15  C   UNL     1       1.019   0.966   0.000  0.00  0.00    +0.000 C 
ATOM     16  C   UNL     1       1.019   1.791   0.000  0.00  0.00    +0.000 C 
ATOM     17  C   UNL     1       1.019   0.141   0.000  0.00  0.00    +0.000 C 
ATOM     18  O   UNL     1      -3.268  -1.509   0.000  0.00  0.00    +0.000 OA
ATOM     19  C   UNL     1      -2.553  -1.096   0.000  0.00  0.00    +0.000 C 
ATOM     20  C   UNL     1      -1.125   0.554   0.000  0.00  0.00    +0.000 C 
ATOM     21  O   UNL     1       1.804   2.046   0.000  0.00  0.00    +0.000 OA
ATOM     22  C   UNL     1      -3.268   0.141   0.000  0.00  0.00    +0.000 C 
ENDROOT
TORSDOF 0
