REMARK  Name = 
REMARK  3 active torsions:
REMARK  status: ('A' for Active; 'I' for Inactive)
REMARK    1  A    between atoms: C_3  and  N_20
REMARK    2  A    between atoms: C_11  and  C_12
REMARK    3  A    between atoms: N_16  and  C_17
REMARK                            x       y       z     vdW  Elec       q    Type
REMARK                         _______ _______ _______ _____ _____    ______ ____
ROOT
ATOM      1  F   UNL     1      -1.429   0.000   0.000  0.00  0.00    +0.000 F 
ATOM      2  C   UNL     1      -0.715  -0.412   0.000  0.00  0.00    +0.000 A 
ATOM      3  C   UNL     1      -0.715  -1.238   0.000  0.00  0.00    +0.000 A 
ATOM      4  C   UNL     1       0.000  -1.650   0.000  0.00  0.00    +0.000 A 
ATOM      5 CL   UNL     1       0.000  -2.475   0.000  0.00  0.00    +0.000 Cl
ATOM      6  C   UNL     1       0.715  -1.238   0.000  0.00  0.00    +0.000 A 
ATOM      7  C   UNL     1       0.715  -0.412   0.000  0.00  0.00    +0.000 A 
ATOM      8  C   UNL     1       0.000   0.000   0.000  0.00  0.00    +0.000 A 
ATOM      9  C   UNL     1       1.429   0.000   0.000  0.00  0.00    +0.000 A 
ATOM     10  O   UNL     1       1.429   0.825   0.000  0.00  0.00    +0.000 OA
ATOM     11  C   UNL     1       2.143  -0.412   0.000  0.00  0.00    +0.000 A 
ATOM     12  C   UNL     1       2.143  -1.238   0.000  0.00  0.00    +0.000 A 
ATOM     13  N   UNL     1       1.429  -1.650   0.000  0.00  0.00    +0.000 N 
ENDROOT
BRANCH   3  14
ATOM     14  N   UNL     1      -1.429  -1.650   0.000  0.00  0.00    +0.000 N 
ATOM     15  C   UNL     1      -1.367  -2.473   0.000  0.00  0.00    +0.000 C 
ATOM     16  C   UNL     1      -1.972  -3.034   0.000  0.00  0.00    +0.000 C 
ATOM     17  C   UNL     1      -2.788  -2.911   0.000  0.00  0.00    +0.000 C 
ATOM     18  C   UNL     1      -3.200  -2.196   0.000  0.00  0.00    +0.000 C 
ATOM     19  C   UNL     1      -2.899  -1.428   0.000  0.00  0.00    +0.000 C 
ATOM     20  N   UNL     1      -3.460  -0.824   0.000  0.00  0.00    +0.000 NA
ATOM     21  C   UNL     1      -2.111  -1.185   0.000  0.00  0.00    +0.000 C 
ENDBRANCH   3  14
BRANCH  11  22
ATOM     22  C   UNL     1       2.858   0.000   0.000  0.00  0.00    +0.000 C 
ATOM     23  O   UNL     1       3.572  -0.412   0.000  0.00  0.00    +0.000 OA
ATOM     24  O   UNL     1       2.858   0.825   0.000  0.00  0.00    +0.000 OA
ENDBRANCH  11  22
BRANCH  13  25
ATOM     25  C   UNL     1       1.429  -2.475   0.000  0.00  0.00    +0.000 C 
ATOM     26  C   UNL     1       1.841  -3.189   0.000  0.00  0.00    +0.000 C 
ATOM     27  C   UNL     1       1.016  -3.189   0.000  0.00  0.00    +0.000 C 
ENDBRANCH  13  25
TORSDOF 3
