REMARK  Name = 
REMARK  2 active torsions:
REMARK  status: ('A' for Active; 'I' for Inactive)
REMARK    1  A    between atoms: C_2  and  N_14
REMARK    2  A    between atoms: C_8  and  C_13
REMARK                            x       y       z     vdW  Elec       q    Type
REMARK                         _______ _______ _______ _____ _____    ______ ____
ROOT
ATOM      1  C   UNL     1       3.352   3.585   0.000  0.00  0.00    +0.000 A 
ATOM      2  C   UNL     1       3.352   1.935   0.000  0.00  0.00    +0.000 A 
ATOM      3  C   UNL     1       5.496   2.348   0.000  0.00  0.00    +0.000 A 
ATOM      4  C   UNL     1       1.368   2.760   0.000  0.00  0.00    +0.000 C 
ATOM      5  C   UNL     1       4.067   3.173   0.000  0.00  0.00    +0.000 A 
ATOM      6  C   UNL     1       5.496   3.173   0.000  0.00  0.00    +0.000 A 
ATOM      7  C   UNL     1       4.067   2.348   0.000  0.00  0.00    +0.000 A 
ATOM      8  C   UNL     1       2.638   3.173   0.000  0.00  0.00    +0.000 A 
ATOM      9  C   UNL     1       2.638   2.348   0.000  0.00  0.00    +0.000 A 
ATOM     10  C   UNL     1       4.781   3.585   0.000  0.00  0.00    +0.000 A 
ATOM     11  N   UNL     1       4.781   1.935   0.000  0.00  0.00    +0.000 N 
ATOM     12  O   UNL     1       4.781   4.410   0.000  0.00  0.00    +0.000 OA
ATOM     13  O   UNL     1       1.853   3.428   0.000  0.00  0.00    +0.000 OA
ATOM     14  O   UNL     1       1.853   2.093   0.000  0.00  0.00    +0.000 OA
ENDROOT
BRANCH   6  15
ATOM     15  C   UNL     1       6.210   3.585   0.000  0.00  0.00    +0.000 C 
ATOM     16  O   UNL     1       6.210   4.410   0.000  0.00  0.00    +0.000 OA
ATOM     17  O   UNL     1       6.925   3.173   0.000  0.00  0.00    +0.000 OA
ENDBRANCH   6  15
BRANCH  11  19
ATOM     18  C   UNL     1       4.067   0.698   0.000  0.00  0.00    +0.000 C 
ATOM     19  C   UNL     1       4.781   1.110   0.000  0.00  0.00    +0.000 C 
ENDBRANCH  11  19
TORSDOF 2
