REMARK  Name = 
REMARK  3 active torsions:
REMARK  status: ('A' for Active; 'I' for Inactive)
REMARK    1  A    between atoms: CA_2  and  CB_3
REMARK    2  A    between atoms: CA_2  and  C_13
REMARK    3  A    between atoms: CB_3  and  CG_4
REMARK                            x       y       z     vdW  Elec       q    Type
REMARK                         _______ _______ _______ _____ _____    ______ ____
ROOT
ATOM      1  CG  TRP A   1       1.139  -1.365   0.000  0.00  0.00    +0.000 A 
ATOM      2  CD1 TRP A   1       0.654  -0.698   0.000  0.00  0.00    +0.000 A 
ATOM      3  NE1 TRP A   1       1.139  -0.030   0.000  0.00  0.00    +0.000 NA
ATOM      4  CE2 TRP A   1       1.923  -0.285   0.000  0.00  0.00    +0.000 A 
ATOM      5  CZ2 TRP A   1       2.638   0.127   0.000  0.00  0.00    +0.000 A 
ATOM      6  CH2 TRP A   1       3.352  -0.285   0.000  0.00  0.00    +0.000 A 
ATOM      7  CZ3 TRP A   1       3.352  -1.110   0.000  0.00  0.00    +0.000 A 
ATOM      8  CE3 TRP A   1       2.638  -1.523   0.000  0.00  0.00    +0.000 A 
ATOM      9  CD2 TRP A   1       1.923  -1.110   0.000  0.00  0.00    +0.000 A 
ENDROOT
BRANCH   1  10
ATOM     10  CB  TRP A   1       0.884  -2.150   0.000  0.00  0.00    +0.000 C 
BRANCH  10  12
ATOM     11  N   TRP A   1       2.243  -2.592   0.000  0.00  0.00    +0.000 NA
ATOM     12  CA  TRP A   1       1.436  -2.763   0.000  0.00  0.00    +0.000 C 
BRANCH  12  13
ATOM     13  C   TRP A   1       1.181  -3.548   0.000  0.00  0.00    +0.000 C 
ATOM     14  O   TRP A   1       1.733  -4.161   0.000  0.00  0.00    +0.000 OA
ATOM     15  OXT TRP A   1       0.374  -3.719   0.000  0.00  0.00    +0.000 OA
ENDBRANCH  12  13
ENDBRANCH  10  12
ENDBRANCH   1  10
TORSDOF 3
