REMARK  Name = 
REMARK  10 active torsions:
REMARK  status: ('A' for Active; 'I' for Inactive)
REMARK    1  A    between atoms: C_9  and  C_26
REMARK    2  A    between atoms: C_10  and  C_30
REMARK    3  A    between atoms: C_22  and  C_28
REMARK    4  A    between atoms: C_22  and  C_32
REMARK    5  A    between atoms: C_24  and  C_31
REMARK    6  A    between atoms: C_24  and  C_41
REMARK    7  A    between atoms: C_26  and  C_34
REMARK    8  A    between atoms: C_28  and  C_37
REMARK    9  A    between atoms: C_32  and  C_38
REMARK   10  A    between atoms: C_40  and  C_41
REMARK                            x       y       z     vdW  Elec       q    Type
REMARK                         _______ _______ _______ _____ _____    ______ ____
ROOT
ATOM      1  C   UNL     1      11.827  -2.299   0.000  0.00  0.00    +0.000 C 
ATOM      2  C   UNL     1       9.966  -6.810   0.000  0.00  0.00    +0.000 C 
ATOM      3  C   UNL     1      12.172  -5.580   0.000  0.00  0.00    +0.000 C 
ATOM      4  C   UNL     1      10.751  -6.555   0.000  0.00  0.00    +0.000 C 
ATOM      5  C   UNL     1      11.505  -6.065   0.000  0.00  0.00    +0.000 C 
ATOM      6  C   UNL     1      11.913  -3.119   0.000  0.00  0.00    +0.000 C 
ATOM      7  C   UNL     1       9.482  -6.142   0.000  0.00  0.00    +0.000 C 
ATOM      8  C   UNL     1      12.086  -4.760   0.000  0.00  0.00    +0.000 C 
ATOM      9  C   UNL     1      11.246  -3.604   0.000  0.00  0.00    +0.000 C 
ATOM     10  C   UNL     1      12.667  -3.454   0.000  0.00  0.00    +0.000 C 
ATOM     11  C   UNL     1      11.332  -4.424   0.000  0.00  0.00    +0.000 C 
ATOM     12  C   UNL     1      10.751  -5.730   0.000  0.00  0.00    +0.000 C 
ATOM     13  O   UNL     1      10.492  -3.268   0.000  0.00  0.00    +0.000 OA
ATOM     14  O   UNL     1      12.753  -4.275   0.000  0.00  0.00    +0.000 OA
ATOM     15  O   UNL     1       9.966  -5.475   0.000  0.00  0.00    +0.000 OA
ATOM     16  O   UNL     1      10.665  -4.909   0.000  0.00  0.00    +0.000 OA
ENDROOT
BRANCH   7  18
ATOM     17  C   UNL     1       8.244  -6.857   0.000  0.00  0.00    +0.000 C 
ATOM     18  C   UNL     1       8.656  -6.142   0.000  0.00  0.00    +0.000 C 
BRANCH  17  20
ATOM     19  C   UNL     1       7.006  -7.571   0.000  0.00  0.00    +0.000 C 
ATOM     20  C   UNL     1       7.419  -6.857   0.000  0.00  0.00    +0.000 C 
BRANCH  20  28
ATOM     21  C   UNL     1       7.419  -3.999   0.000  0.00  0.00    +0.000 C 
ATOM     22  C   UNL     1       4.119  -5.428   0.000  0.00  0.00    +0.000 C 
ATOM     23  C   UNL     1       4.532  -6.142   0.000  0.00  0.00    +0.000 C 
ATOM     24  C   UNL     1       7.419  -5.428   0.000  0.00  0.00    +0.000 C 
ATOM     25  C   UNL     1       6.181  -4.713   0.000  0.00  0.00    +0.000 C 
ATOM     26  C   UNL     1       7.006  -4.713   0.000  0.00  0.00    +0.000 C 
ATOM     27  C   UNL     1       4.532  -4.713   0.000  0.00  0.00    +0.000 C 
ATOM     28  C   UNL     1       7.006  -6.142   0.000  0.00  0.00    +0.000 C 
ATOM     29  C   UNL     1       5.356  -6.142   0.000  0.00  0.00    +0.000 C 
ATOM     30  C   UNL     1       5.769  -5.428   0.000  0.00  0.00    +0.000 C 
ATOM     31  O   UNL     1       5.769  -6.857   0.000  0.00  0.00    +0.000 OA
ATOM     32  O   UNL     1       5.356  -4.713   0.000  0.00  0.00    +0.000 OA
ATOM     33  O   UNL     1       6.181  -6.142   0.000  0.00  0.00    +0.000 OA
BRANCH  27  34
ATOM     34  C   UNL     1       4.119  -3.999   0.000  0.00  0.00    +0.000 C 
BRANCH  34  36
ATOM     35  C   UNL     1       3.294  -4.824   0.000  0.00  0.00    +0.000 C 
ATOM     36  C   UNL     1       3.294  -3.999   0.000  0.00  0.00    +0.000 C 
ATOM     37  O   UNL     1       3.294  -3.174   0.000  0.00  0.00    +0.000 OA
BRANCH  36  38
ATOM     38  C   UNL     1       2.469  -3.999   0.000  0.00  0.00    +0.000 C 
ATOM     39  O   UNL     1       2.057  -4.713   0.000  0.00  0.00    +0.000 OA
ATOM     40  O   UNL     1       2.057  -3.284   0.000  0.00  0.00    +0.000 OA
ENDBRANCH  36  38
ENDBRANCH  34  36
ENDBRANCH  27  34
ENDBRANCH  20  28
ENDBRANCH  17  20
ENDBRANCH   7  18
BRANCH  10  41
ATOM     41  C   UNL     1      13.335  -2.970   0.000  0.00  0.00    +0.000 C 
ATOM     42  O   UNL     1      14.088  -3.305   0.000  0.00  0.00    +0.000 OA
BRANCH  41  43
ATOM     43  C   UNL     1      13.248  -2.149   0.000  0.00  0.00    +0.000 C 
BRANCH  43  45
ATOM     44  C   UNL     1      14.669  -2.000   0.000  0.00  0.00    +0.000 C 
ATOM     45  C   UNL     1      13.916  -1.664   0.000  0.00  0.00    +0.000 C 
BRANCH  45  54
ATOM     46  C   UNL     1      15.251  -0.694   0.000  0.00  0.00    +0.000 C 
ATOM     47  C   UNL     1      12.150   1.468   0.000  0.00  0.00    +0.000 C 
ATOM     48  C   UNL     1      11.482   0.983   0.000  0.00  0.00    +0.000 C 
ATOM     49  C   UNL     1      14.411   0.462   0.000  0.00  0.00    +0.000 C 
ATOM     50  C   UNL     1      12.903   1.133   0.000  0.00  0.00    +0.000 C 
ATOM     51  C   UNL     1      13.657   0.797   0.000  0.00  0.00    +0.000 C 
ATOM     52  C   UNL     1      11.569   0.163   0.000  0.00  0.00    +0.000 C 
ATOM     53  C   UNL     1      14.497  -0.359   0.000  0.00  0.00    +0.000 C 
ATOM     54  C   UNL     1      13.829  -0.844   0.000  0.00  0.00    +0.000 C 
ATOM     55  C   UNL     1      12.990   0.312   0.000  0.00  0.00    +0.000 C 
ATOM     56  O   UNL     1      12.322  -0.173   0.000  0.00  0.00    +0.000 OA
ATOM     57  O   UNL     1      13.076  -0.508   0.000  0.00  0.00    +0.000 OA
ENDBRANCH  45  54
ENDBRANCH  43  45
ENDBRANCH  41  43
ENDBRANCH  10  41
TORSDOF 10
