REMARK  Name = 
REMARK  6 active torsions:
REMARK  status: ('A' for Active; 'I' for Inactive)
REMARK    1  A    between atoms: C_2  and  C_3
REMARK    2  A    between atoms: C_3  and  C_4
REMARK    3  A    between atoms: C_4  and  C_5
REMARK    4  A    between atoms: C_5  and  N_6
REMARK    5  A    between atoms: C_7  and  C_9
REMARK    6  A    between atoms: C_12  and  S_15
REMARK                            x       y       z     vdW  Elec       q    Type
REMARK                         _______ _______ _______ _____ _____    ______ ____
ROOT
ATOM      1  C   UNL     1       1.429  -3.300   0.000  0.00  0.00    +0.000 A 
ATOM      2  C   UNL     1       2.143  -2.888   0.000  0.00  0.00    +0.000 A 
ATOM      3  C   UNL     1       2.858  -3.300   0.000  0.00  0.00    +0.000 A 
ATOM      4  C   UNL     1       2.858  -4.125   0.000  0.00  0.00    +0.000 A 
ATOM      5  C   UNL     1       2.143  -4.537   0.000  0.00  0.00    +0.000 A 
ATOM      6  C   UNL     1       1.429  -4.125   0.000  0.00  0.00    +0.000 A 
ENDROOT
BRANCH   4   7
ATOM      7  S   UNL     1       3.572  -4.537   0.000  0.00  0.00    +0.000 S 
ATOM      8  N   UNL     1       4.287  -4.950   0.000  0.00  0.00    +0.000 NA
ATOM      9  O   UNL     1       3.160  -5.252   0.000  0.00  0.00    +0.000 OA
ATOM     10  O   UNL     1       3.985  -3.823   0.000  0.00  0.00    +0.000 OA
ENDBRANCH   4   7
BRANCH   1  12
ATOM     11  N   UNL     1       0.000  -3.300   0.000  0.00  0.00    +0.000 NA
ATOM     12  C   UNL     1       0.715  -2.888   0.000  0.00  0.00    +0.000 C 
ATOM     13  O   UNL     1       0.715  -2.062   0.000  0.00  0.00    +0.000 OA
BRANCH  11  14
ATOM     14  C   UNL     1      -0.715  -2.888   0.000  0.00  0.00    +0.000 C 
BRANCH  14  15
ATOM     15  C   UNL     1      -1.429  -3.300   0.000  0.00  0.00    +0.000 C 
BRANCH  15  16
ATOM     16  C   UNL     1      -2.143  -2.888   0.000  0.00  0.00    +0.000 C 
BRANCH  16  18
ATOM     17  N   UNL     1      -3.572  -2.888   0.000  0.00  0.00    +0.000 NA
ATOM     18  C   UNL     1      -2.858  -3.300   0.000  0.00  0.00    +0.000 C 
ENDBRANCH  16  18
ENDBRANCH  15  16
ENDBRANCH  14  15
ENDBRANCH  11  14
ENDBRANCH   1  12
TORSDOF 6
