REMARK  Name = 
REMARK  10 active torsions:
REMARK  status: ('A' for Active; 'I' for Inactive)
REMARK    1  A    between atoms: C_2  and  C_4
REMARK    2  A    between atoms: C_4  and  C_5
REMARK    3  A    between atoms: C_4  and  N_13
REMARK    4  A    between atoms: C_5  and  C_6
REMARK    5  A    between atoms: C_6  and  C_7
REMARK    6  A    between atoms: C_7  and  C_8
REMARK    7  A    between atoms: C_8  and  C_9
REMARK    8  A    between atoms: C_9  and  C_10
REMARK    9  A    between atoms: C_14  and  O_16
REMARK   10  A    between atoms: O_16  and  P_17
REMARK                            x       y       z     vdW  Elec       q    Type
REMARK                         _______ _______ _______ _____ _____    ______ ____
ROOT
ATOM      1  C   UNL     1      10.474  -3.572   0.000  0.00  0.00    +0.000 C 
ENDROOT
BRANCH   1   3
ATOM      2  C   UNL     1      11.189  -2.335   0.000  0.00  0.00    +0.000 C 
ATOM      3  C   UNL     1      10.474  -2.747   0.000  0.00  0.00    +0.000 C 
ATOM      4  N   UNL     1       9.760  -2.335   0.000  0.00  0.00    +0.000 NA
ENDBRANCH   1   3
BRANCH   1   5
ATOM      5  N   UNL     1      11.189  -3.985   0.000  0.00  0.00    +0.000 NA
ATOM      6  C   UNL     1      11.903  -3.572   0.000  0.00  0.00    +0.000 C 
ATOM      7  O   UNL     1      11.903  -2.747   0.000  0.00  0.00    +0.000 OA
BRANCH   6   8
ATOM      8  O   UNL     1      12.618  -3.985   0.000  0.00  0.00    +0.000 OA
BRANCH   8   9
ATOM      9  P   UNL     1      13.332  -3.572   0.000  0.00  0.00    +0.000 P 
ATOM     10  O   UNL     1      14.047  -3.160   0.000  0.00  0.00    +0.000 OA
ATOM     11  O   UNL     1      13.745  -4.287   0.000  0.00  0.00    +0.000 OA
ATOM     12  O   UNL     1      12.920  -2.858   0.000  0.00  0.00    +0.000 OA
ENDBRANCH   8   9
ENDBRANCH   6   8
ENDBRANCH   1   5
BRANCH   1  13
ATOM     13  C   UNL     1       9.760  -3.985   0.000  0.00  0.00    +0.000 C 
BRANCH  13  14
ATOM     14  C   UNL     1       9.045  -3.572   0.000  0.00  0.00    +0.000 C 
BRANCH  14  15
ATOM     15  C   UNL     1       8.331  -3.985   0.000  0.00  0.00    +0.000 C 
BRANCH  15  16
ATOM     16  C   UNL     1       7.616  -3.572   0.000  0.00  0.00    +0.000 C 
BRANCH  16  17
ATOM     17  C   UNL     1       6.902  -3.985   0.000  0.00  0.00    +0.000 C 
BRANCH  17  18
ATOM     18  C   UNL     1       6.188  -3.572   0.000  0.00  0.00    +0.000 C 
ATOM     19  O   UNL     1       5.473  -3.985   0.000  0.00  0.00    +0.000 OA
ATOM     20  O   UNL     1       6.188  -2.747   0.000  0.00  0.00    +0.000 OA
ENDBRANCH  17  18
ENDBRANCH  16  17
ENDBRANCH  15  16
ENDBRANCH  14  15
ENDBRANCH  13  14
ENDBRANCH   1  13
TORSDOF 10
