REMARK  Name = 
REMARK  7 active torsions:
REMARK  status: ('A' for Active; 'I' for Inactive)
REMARK    1  A    between atoms: C_6  and  C_9
REMARK    2  A    between atoms: C_6  and  C_14
REMARK    3  A    between atoms: C_7  and  C_8
REMARK    4  A    between atoms: C_7  and  N_18
REMARK    5  A    between atoms: C_9  and  S_23
REMARK    6  A    between atoms: C_10  and  C_11
REMARK    7  A    between atoms: C_14  and  C_15
REMARK                            x       y       z     vdW  Elec       q    Type
REMARK                         _______ _______ _______ _____ _____    ______ ____
ROOT
ATOM      1  C   UNL     1       2.508   6.024   0.000  0.00  0.00    +0.000 C 
ATOM      2  C   UNL     1       1.688   6.111   0.000  0.00  0.00    +0.000 C 
ATOM      3  C   UNL     1       0.382   5.833   0.000  0.00  0.00    +0.000 C 
ATOM      4  C   UNL     1       1.275   6.825   0.000  0.00  0.00    +0.000 C 
ATOM      5  N   UNL     1       1.136   5.497   0.000  0.00  0.00    +0.000 NA
ATOM      6  N   UNL     1       0.468   6.654   0.000  0.00  0.00    +0.000 N 
ATOM      7  O   UNL     1       1.611   7.579   0.000  0.00  0.00    +0.000 OA
ENDROOT
BRANCH   1  12
ATOM      8  C   UNL     1       3.814   6.606   0.000  0.00  0.00    +0.000 A 
ATOM      9  C   UNL     1       2.658   7.446   0.000  0.00  0.00    +0.000 A 
ATOM     10  C   UNL     1       4.299   7.273   0.000  0.00  0.00    +0.000 A 
ATOM     11  C   UNL     1       3.143   8.113   0.000  0.00  0.00    +0.000 A 
ATOM     12  C   UNL     1       2.993   6.692   0.000  0.00  0.00    +0.000 A 
ATOM     13  C   UNL     1       3.963   8.027   0.000  0.00  0.00    +0.000 A 
ATOM     14  O   UNL     1       4.448   8.694   0.000  0.00  0.00    +0.000 OA
ENDBRANCH   1  12
BRANCH   3  15
ATOM     15  C   UNL     1      -0.332   5.421   0.000  0.00  0.00    +0.000 C 
ATOM     16  O   UNL     1      -0.332   4.596   0.000  0.00  0.00    +0.000 OA
BRANCH  15  17
ATOM     17  C   UNL     1      -1.047   5.833   0.000  0.00  0.00    +0.000 C 
BRANCH  17  18
ATOM     18  C   UNL     1      -1.761   5.421   0.000  0.00  0.00    +0.000 C 
BRANCH  18  20
ATOM     19  C   UNL     1      -3.190   5.421   0.000  0.00  0.00    +0.000 C 
ATOM     20  S   UNL     1      -2.476   5.833   0.000  0.00  0.00    +0.000 S 
ENDBRANCH  18  20
ENDBRANCH  17  18
ENDBRANCH  15  17
ENDBRANCH   3  15
BRANCH   6  21
ATOM     21  C   UNL     1      -0.145   7.206   0.000  0.00  0.00    +0.000 C 
BRANCH  21  22
ATOM     22  C   UNL     1      -0.929   6.951   0.000  0.00  0.00    +0.000 C 
ATOM     23  O   UNL     1      -1.542   7.503   0.000  0.00  0.00    +0.000 OA
ENDBRANCH  21  22
ENDBRANCH   6  21
TORSDOF 7
