REMARK  Name = 
REMARK  2 active torsions:
REMARK  status: ('A' for Active; 'I' for Inactive)
REMARK    1  A    between atoms: CA_3  and  C_4
REMARK    2  A    between atoms: CA_3  and  C_5
REMARK                            x       y       z     vdW  Elec       q    Type
REMARK                         _______ _______ _______ _____ _____    ______ ____
ROOT
ATOM      1  CA  UNL     1       0.825   0.825   0.000  0.00  0.00    +0.000 C 
ATOM      2  N   UNL     1       0.111   1.238   0.000  0.00  0.00    +0.000 NA
ENDROOT
BRANCH   1   5
ATOM      3  C   UNL     1       0.825  -0.825   0.000  0.00  0.00    +0.000 C 
ATOM      4  C   UNL     1       1.650   0.000   0.000  0.00  0.00    +0.000 C 
ATOM      5  C   UNL     1       0.825   0.000   0.000  0.00  0.00    +0.000 C 
ATOM      6  S   UNL     1       0.000   0.000   0.000  0.00  0.00    +0.000 S 
ENDBRANCH   1   5
BRANCH   1   7
ATOM      7  C   UNL     1       1.540   1.238   0.000  0.00  0.00    +0.000 C 
ATOM      8  O   UNL     1       1.540   2.062   0.000  0.00  0.00    +0.000 OA
ATOM      9  OXT UNL     1       2.254   0.825   0.000  0.00  0.00    +0.000 OA
ENDBRANCH   1   7
TORSDOF 2
