REMARK  Name = 
REMARK  1 active torsions:
REMARK  status: ('A' for Active; 'I' for Inactive)
REMARK    1  A    between atoms: C_2  and  C_3
REMARK                            x       y       z     vdW  Elec       q    Type
REMARK                         _______ _______ _______ _____ _____    ______ ____
ROOT
ATOM      1  C   UNL     1       2.507  -0.302   0.000  0.00  0.00    +0.000 C 
ATOM      2  O   UNL     1       1.682  -0.302   0.000  0.00  0.00    +0.000 OA
ATOM      3  C   UNL     1       1.270   0.412   0.000  0.00  0.00    +0.000 C 
ATOM      4  N   UNL     1       0.785  -0.255   0.000  0.00  0.00    +0.000 NA
ATOM      5  C   UNL     1       0.000   0.000   0.000  0.00  0.00    +0.000 C 
ATOM      6  O   UNL     1      -0.667  -0.485   0.000  0.00  0.00    +0.000 OA
ATOM      7  N   UNL     1       0.000   0.825   0.000  0.00  0.00    +0.000 NA
ATOM      8  C   UNL     1       0.785   1.080   0.000  0.00  0.00    +0.000 C 
ATOM      9  O   UNL     1       1.040   1.865   0.000  0.00  0.00    +0.000 OA
ATOM     10  C   UNL     1       1.682   1.127   0.000  0.00  0.00    +0.000 C 
ATOM     11  O   UNL     1       1.510   1.934   0.000  0.00  0.00    +0.000 OA
ATOM     12  C   UNL     1       2.507   1.127   0.000  0.00  0.00    +0.000 C 
ATOM     13  O   UNL     1       2.920   1.841   0.000  0.00  0.00    +0.000 OA
ATOM     14  C   UNL     1       2.920   0.412   0.000  0.00  0.00    +0.000 C 
ATOM     15  O   UNL     1       3.744   0.412   0.000  0.00  0.00    +0.000 OA
ENDROOT
BRANCH   1  17
ATOM     16  O   UNL     1       2.507  -1.731   0.000  0.00  0.00    +0.000 OA
ATOM     17  C   UNL     1       2.920  -1.016   0.000  0.00  0.00    +0.000 C 
ENDBRANCH   1  17
TORSDOF 1
