REMARK  Name = 
REMARK  12 active torsions:
REMARK  status: ('A' for Active; 'I' for Inactive)
REMARK    1  A    between atoms: C_1  and  C_5
REMARK    2  A    between atoms: C_1  and  N_10
REMARK    3  A    between atoms: C_2  and  C_7
REMARK    4  A    between atoms: C_2  and  N_10
REMARK    5  A    between atoms: C_3  and  C_6
REMARK    6  A    between atoms: C_3  and  O_23
REMARK    7  A    between atoms: C_4  and  N_10
REMARK    8  A    between atoms: C_4  and  P_24
REMARK    9  A    between atoms: C_5  and  C_8
REMARK   10  A    between atoms: C_6  and  C_9
REMARK   11  A    between atoms: C_8  and  C_9
REMARK   12  A    between atoms: O_23  and  P_25
REMARK                            x       y       z     vdW  Elec       q    Type
REMARK                         _______ _______ _______ _____ _____    ______ ____
ROOT
ATOM      1  C   UNL     1       2.777  -0.302   0.000  0.00  0.00    +0.000 C 
ATOM      2  O   UNL     1       2.777   0.523   0.000  0.00  0.00    +0.000 OA
ENDROOT
BRANCH   1   3
ATOM      3  C   UNL     1       3.491  -0.715   0.000  0.00  0.00    +0.000 C 
ATOM      4  O   UNL     1       3.491  -1.540   0.000  0.00  0.00    +0.000 OA
BRANCH   3   5
ATOM      5  C   UNL     1       4.206  -0.302   0.000  0.00  0.00    +0.000 C 
ATOM      6  O   UNL     1       4.206   0.523   0.000  0.00  0.00    +0.000 OA
BRANCH   5   7
ATOM      7  C   UNL     1       4.920  -0.715   0.000  0.00  0.00    +0.000 C 
ATOM      8  O   UNL     1       4.920  -1.540   0.000  0.00  0.00    +0.000 OA
BRANCH   7   9
ATOM      9  C   UNL     1       5.635  -0.302   0.000  0.00  0.00    +0.000 C 
BRANCH   9  10
ATOM     10  O   UNL     1       6.349  -0.715   0.000  0.00  0.00    +0.000 OA
BRANCH  10  14
ATOM     11  O   UNL     1       7.778   0.111   0.000  0.00  0.00    +0.000 OA
ATOM     12  O   UNL     1       7.476  -1.016   0.000  0.00  0.00    +0.000 OA
ATOM     13  O   UNL     1       6.651   0.412   0.000  0.00  0.00    +0.000 OA
ATOM     14  P   UNL     1       7.064  -0.302   0.000  0.00  0.00    +0.000 P 
ENDBRANCH  10  14
ENDBRANCH   9  10
ENDBRANCH   7   9
ENDBRANCH   5   7
ENDBRANCH   3   5
ENDBRANCH   1   3
BRANCH   1  15
ATOM     15  C   UNL     1       2.062  -0.715   0.000  0.00  0.00    +0.000 C 
BRANCH  15  16
ATOM     16  N   UNL     1       1.348  -0.302   0.000  0.00  0.00    +0.000 NA
BRANCH  16  17
ATOM     17  C   UNL     1       1.348   0.523   0.000  0.00  0.00    +0.000 C 
BRANCH  17  21
ATOM     18  O   UNL     1       0.221   0.221   0.000  0.00  0.00    +0.000 OA
ATOM     19  O   UNL     1      -0.081   1.348   0.000  0.00  0.00    +0.000 OA
ATOM     20  O   UNL     1       1.046   1.650   0.000  0.00  0.00    +0.000 OA
ATOM     21  P   UNL     1       0.634   0.935   0.000  0.00  0.00    +0.000 P 
ENDBRANCH  17  21
ENDBRANCH  16  17
BRANCH  16  22
ATOM     22  C   UNL     1       0.634  -0.715   0.000  0.00  0.00    +0.000 C 
BRANCH  22  23
ATOM     23  C   UNL     1       0.634  -1.540   0.000  0.00  0.00    +0.000 C 
ATOM     24  O   UNL     1       1.348  -1.952   0.000  0.00  0.00    +0.000 OA
ATOM     25  O   UNL     1      -0.081  -1.952   0.000  0.00  0.00    +0.000 OA
ENDBRANCH  22  23
ENDBRANCH  16  22
ENDBRANCH  15  16
ENDBRANCH   1  15
TORSDOF 12
