REMARK  Name = 
REMARK  3 active torsions:
REMARK  status: ('A' for Active; 'I' for Inactive)
REMARK    1  A    between atoms: O_1  and  C_4
REMARK    2  A    between atoms: O_1  and  C_6
REMARK    3  A    between atoms: C_6  and  C_7
REMARK                            x       y       z     vdW  Elec       q    Type
REMARK                         _______ _______ _______ _____ _____    ______ ____
ROOT
ATOM      1  O   UNL     1       3.793  -1.031   0.000  0.00  0.00    +0.000 OA
ATOM      2  C   UNL     1       3.793  -0.206   0.000  0.00  0.00    +0.000 C 
ENDROOT
BRANCH   2   4
ATOM      3  O   UNL     1       4.508   1.031   0.000  0.00  0.00    +0.000 OA
ATOM      4  C   UNL     1       4.508   0.206   0.000  0.00  0.00    +0.000 C 
ATOM      5  C   UNL     1       5.222  -0.206   0.000  0.00  0.00    +0.000 C 
ENDBRANCH   2   4
BRANCH   2   6
ATOM      6  O   UNL     1       3.079   0.206   0.000  0.00  0.00    +0.000 OA
BRANCH   6   7
ATOM      7  C   UNL     1       2.364  -0.206   0.000  0.00  0.00    +0.000 C 
ATOM      8  C   UNL     1       1.650   0.206   0.000  0.00  0.00    +0.000 C 
ENDBRANCH   6   7
ENDBRANCH   2   6
TORSDOF 3
