REMARK  Name = 
REMARK  12 active torsions:
REMARK  status: ('A' for Active; 'I' for Inactive)
REMARK    1  A    between atoms: O_1  and  C_9
REMARK    2  A    between atoms: O_1  and  C_15
REMARK    3  A    between atoms: O_2  and  C_8
REMARK    4  A    between atoms: O_2  and  C_26
REMARK    5  A    between atoms: O_3  and  C_18
REMARK    6  A    between atoms: O_3  and  C_25
REMARK    7  A    between atoms: C_7  and  C_13
REMARK    8  A    between atoms: C_13  and  C_16
REMARK    9  A    between atoms: C_14  and  C_17
REMARK   10  A    between atoms: C_15  and  C_23
REMARK   11  A    between atoms: C_25  and  C_27
REMARK   12  A    between atoms: C_26  and  C_33
REMARK                            x       y       z     vdW  Elec       q    Type
REMARK                         _______ _______ _______ _____ _____    ______ ____
ROOT
ATOM      1  C   UNL     1       5.665  -0.619   0.000  0.00  0.00    +0.000 A 
ATOM      2  C   UNL     1       4.951  -1.031   0.000  0.00  0.00    +0.000 A 
ATOM      3  C   UNL     1       5.665  -2.269   0.000  0.00  0.00    +0.000 A 
ATOM      4  C   UNL     1       4.951  -1.856   0.000  0.00  0.00    +0.000 A 
ATOM      5  C   UNL     1       6.380  -1.031   0.000  0.00  0.00    +0.000 A 
ATOM      6  C   UNL     1       6.380  -1.856   0.000  0.00  0.00    +0.000 A 
ENDROOT
BRANCH   1   8
ATOM      7  O   UNL     1       4.951   0.619   0.000  0.00  0.00    +0.000 OA
ATOM      8  C   UNL     1       5.665   0.206   0.000  0.00  0.00    +0.000 C 
BRANCH   8   9
ATOM      9  C   UNL     1       6.380   0.619   0.000  0.00  0.00    +0.000 C 
ATOM     10  C   UNL     1       6.380   1.444   0.000  0.00  0.00    +0.000 C 
BRANCH  10  11
ATOM     11  C   UNL     1       7.094   1.856   0.000  0.00  0.00    +0.000 A 
ATOM     12  C   UNL     1       8.523   2.681   0.000  0.00  0.00    +0.000 A 
ATOM     13  C   UNL     1       7.094   2.681   0.000  0.00  0.00    +0.000 A 
ATOM     14  C   UNL     1       7.809   1.444   0.000  0.00  0.00    +0.000 A 
ATOM     15  C   UNL     1       7.809   3.094   0.000  0.00  0.00    +0.000 A 
ATOM     16  C   UNL     1       8.523   1.856   0.000  0.00  0.00    +0.000 A 
BRANCH  12  17
ATOM     17  O   UNL     1       9.238   3.094   0.000  0.00  0.00    +0.000 OA
BRANCH  17  18
ATOM     18  C   UNL     1       9.238   3.919   0.000  0.00  0.00    +0.000 C 
BRANCH  18  19
ATOM     19  C   UNL     1       9.952   4.331   0.000  0.00  0.00    +0.000 C 
ATOM     20  C   UNL     1       9.952   5.156   0.000  0.00  0.00    +0.000 C 
ATOM     21  C   UNL     1      10.667   5.569   0.000  0.00  0.00    +0.000 C 
ATOM     22  C   UNL     1       9.238   5.569   0.000  0.00  0.00    +0.000 C 
ENDBRANCH  18  19
ENDBRANCH  17  18
ENDBRANCH  12  17
ENDBRANCH  10  11
ENDBRANCH   8   9
ENDBRANCH   1   8
BRANCH   2  23
ATOM     23  O   UNL     1       4.237  -0.619   0.000  0.00  0.00    +0.000 OA
BRANCH  23  24
ATOM     24  C   UNL     1       3.522  -1.031   0.000  0.00  0.00    +0.000 C 
BRANCH  24  27
ATOM     25  O   UNL     1       2.093  -1.031   0.000  0.00  0.00    +0.000 OA
ATOM     26  O   UNL     1       2.808   0.206   0.000  0.00  0.00    +0.000 OA
ATOM     27  C   UNL     1       2.808  -0.619   0.000  0.00  0.00    +0.000 C 
ENDBRANCH  24  27
ENDBRANCH  23  24
ENDBRANCH   2  23
BRANCH   3  28
ATOM     28  O   UNL     1       5.665  -3.094   0.000  0.00  0.00    +0.000 OA
BRANCH  28  29
ATOM     29  C   UNL     1       6.380  -3.506   0.000  0.00  0.00    +0.000 C 
BRANCH  29  30
ATOM     30  C   UNL     1       6.380  -4.331   0.000  0.00  0.00    +0.000 C 
ATOM     31  C   UNL     1       7.094  -4.744   0.000  0.00  0.00    +0.000 C 
ATOM     32  C   UNL     1       7.094  -5.569   0.000  0.00  0.00    +0.000 C 
ATOM     33  C   UNL     1       7.809  -4.331   0.000  0.00  0.00    +0.000 C 
ENDBRANCH  29  30
ENDBRANCH  28  29
ENDBRANCH   3  28
TORSDOF 12
