REMARK  Name = 
REMARK  4 active torsions:
REMARK  status: ('A' for Active; 'I' for Inactive)
REMARK    1  A    between atoms: N_6  and  C_13
REMARK    2  A    between atoms: C_11  and  C_16
REMARK    3  A    between atoms: C_13  and  C_19
REMARK    4  A    between atoms: C_21  and  C_22
REMARK                            x       y       z     vdW  Elec       q    Type
REMARK                         _______ _______ _______ _____ _____    ______ ____
ROOT
ATOM      1  S   UNL     1       6.889  -0.202   0.000  0.00  0.00    +0.000 S 
ATOM      2  O   UNL     1       5.579   0.560   0.000  0.00  0.00    +0.000 OA
ATOM      3  N   UNL     1       5.579  -0.869   0.000  0.00  0.00    +0.000 NA
ATOM      4  N   UNL     1       6.889  -1.537   0.000  0.00  0.00    +0.000 NA
ATOM      5  C   UNL     1       5.166  -0.155   0.000  0.00  0.00    +0.000 C 
ATOM      6  C   UNL     1       6.404  -0.869   0.000  0.00  0.00    +0.000 A 
ATOM      7  C   UNL     1       7.673  -1.282   0.000  0.00  0.00    +0.000 A 
ATOM      8  C   UNL     1       7.673  -0.457   0.000  0.00  0.00    +0.000 A 
ENDROOT
BRANCH   5  12
ATOM      9  N   UNL     1       3.860   0.509   0.000  0.00  0.00    +0.000 N 
ATOM     10  C   UNL     1       3.079   0.258   0.000  0.00  0.00    +0.000 A 
ATOM     11  C   UNL     1       3.079  -0.567   0.000  0.00  0.00    +0.000 A 
ATOM     12  C   UNL     1       4.341  -0.155   0.000  0.00  0.00    +0.000 A 
ATOM     13  C   UNL     1       3.860  -0.819   0.000  0.00  0.00    +0.000 A 
ATOM     14  C   UNL     1       2.365   0.670   0.000  0.00  0.00    +0.000 A 
ATOM     15  C   UNL     1       2.365  -0.980   0.000  0.00  0.00    +0.000 A 
ATOM     16  C   UNL     1       1.650   0.258   0.000  0.00  0.00    +0.000 A 
ATOM     17  C   UNL     1       1.650  -0.567   0.000  0.00  0.00    +0.000 A 
BRANCH   9  18
ATOM     18  C   UNL     1       4.116   1.293   0.000  0.00  0.00    +0.000 C 
BRANCH  18  21
ATOM     19  O   UNL     1       3.821   2.692   0.000  0.00  0.00    +0.000 OA
ATOM     20  O   UNL     1       2.758   1.737   0.000  0.00  0.00    +0.000 OA
ATOM     21  C   UNL     1       3.565   1.907   0.000  0.00  0.00    +0.000 C 
ENDBRANCH  18  21
ENDBRANCH   9  18
ENDBRANCH   5  12
BRANCH   7  23
ATOM     22 CL   UNL     1       7.501  -2.923   0.000  0.00  0.00    +0.000 Cl
ATOM     23  C   UNL     1       8.341  -1.767   0.000  0.00  0.00    +0.000 A 
ATOM     24  C   UNL     1       8.254  -2.587   0.000  0.00  0.00    +0.000 A 
ATOM     25  C   UNL     1       9.094  -1.431   0.000  0.00  0.00    +0.000 A 
ATOM     26  C   UNL     1       8.922  -3.072   0.000  0.00  0.00    +0.000 A 
ATOM     27  C   UNL     1       9.762  -1.916   0.000  0.00  0.00    +0.000 A 
ATOM     28  C   UNL     1       9.676  -2.737   0.000  0.00  0.00    +0.000 A 
ENDBRANCH   7  23
TORSDOF 4
