REMARK  Name = 
REMARK  5 active torsions:
REMARK  status: ('A' for Active; 'I' for Inactive)
REMARK    1  A    between atoms: C_6  and  C_10
REMARK    2  A    between atoms: C_8  and  C_14
REMARK    3  A    between atoms: C_8  and  N_21
REMARK    4  A    between atoms: C_9  and  C_15
REMARK    5  A    between atoms: C_15  and  C_16
REMARK                            x       y       z     vdW  Elec       q    Type
REMARK                         _______ _______ _______ _____ _____    ______ ____
ROOT
ATOM      1  C   UNL     1       0.884   0.071   0.000  0.00  0.00    +0.000 C 
ATOM      2  C   UNL     1       1.436  -0.542   0.000  0.00  0.00    +0.000 C 
ATOM      3  C   UNL     1       2.592  -1.210   0.000  0.00  0.00    +0.000 C 
ATOM      4  C   UNL     1       1.264  -1.349   0.000  0.00  0.00    +0.000 C 
ATOM      5  N   UNL     1       2.256  -0.456   0.000  0.00  0.00    +0.000 NA
ATOM      6  N   UNL     1       1.979  -1.762   0.000  0.00  0.00    +0.000 N 
ATOM      7  O   UNL     1       0.511  -1.685   0.000  0.00  0.00    +0.000 OA
ENDROOT
BRANCH   1  13
ATOM      8  C   UNL     1       3.352   1.110   0.000  0.00  0.00    +0.000 A 
ATOM      9  C   UNL     1       3.352   1.935   0.000  0.00  0.00    +0.000 A 
ATOM     10  C   UNL     1       2.638   0.698   0.000  0.00  0.00    +0.000 A 
ATOM     11  C   UNL     1       2.638   2.348   0.000  0.00  0.00    +0.000 A 
ATOM     12  C   UNL     1       0.654   1.523   0.000  0.00  0.00    +0.000 A 
ATOM     13  C   UNL     1       1.139   0.856   0.000  0.00  0.00    +0.000 A 
ATOM     14  C   UNL     1       1.923   1.110   0.000  0.00  0.00    +0.000 A 
ATOM     15  C   UNL     1       1.923   1.935   0.000  0.00  0.00    +0.000 A 
ATOM     16  N   UNL     1       1.139   2.190   0.000  0.00  0.00    +0.000 NA
ENDBRANCH   1  13
BRANCH   3  17
ATOM     17  C   UNL     1       3.399  -1.381   0.000  0.00  0.00    +0.000 C 
ATOM     18  N   UNL     1       3.654  -2.166   0.000  0.00  0.00    +0.000 NA
BRANCH  17  20
ATOM     19  C   UNL     1       3.696   0.017   0.000  0.00  0.00    +0.000 C 
ATOM     20  C   UNL     1       3.951  -0.768   0.000  0.00  0.00    +0.000 C 
ATOM     21  O   UNL     1       4.758  -0.940   0.000  0.00  0.00    +0.000 OA
ENDBRANCH  17  20
ENDBRANCH   3  17
BRANCH   6  22
ATOM     22  C   UNL     1       2.065  -2.582   0.000  0.00  0.00    +0.000 C 
BRANCH  22  23
ATOM     23  C   UNL     1       1.398  -3.067   0.000  0.00  0.00    +0.000 C 
ATOM     24  O   UNL     1       1.484  -3.888   0.000  0.00  0.00    +0.000 OA
ATOM     25  O   UNL     1       0.644  -2.732   0.000  0.00  0.00    +0.000 OA
ENDBRANCH  22  23
ENDBRANCH   6  22
TORSDOF 5
