REMARK  Name = 
REMARK  0 active torsions:
REMARK  status: ('A' for Active; 'I' for Inactive)
REMARK                            x       y       z     vdW  Elec       q    Type
REMARK                         _______ _______ _______ _____ _____    ______ ____
ROOT
ATOM      1 NA   UNL     1      -0.140  -0.990   0.000  0.00  0.00    +0.000 Na
ENDROOT
TORSDOF 0
REMARK  Name = 
REMARK  0 active torsions:
REMARK  status: ('A' for Active; 'I' for Inactive)
REMARK                            x       y       z     vdW  Elec       q    Type
REMARK                         _______ _______ _______ _____ _____    ______ ____
ROOT
ATOM      1  O   UNL     1      -0.700  -0.246   0.000  0.00  0.00    +0.000 OA
ATOM      2  C   UNL     1       0.041   0.165   0.000  0.00  0.00    +0.000 C 
ATOM      3  C   UNL     1       0.041   0.990   0.000  0.00  0.00    +0.000 C 
ATOM      4  O   UNL     1       0.700  -0.246   0.000  0.00  0.00    +0.000 OA
ENDROOT
TORSDOF 0
