REMARK  Name = 
REMARK  4 active torsions:
REMARK  status: ('A' for Active; 'I' for Inactive)
REMARK    1  A    between atoms: C_2  and  CA_3
REMARK    2  A    between atoms: CA_3  and  C_5
REMARK    3  A    between atoms: S_4  and  C_6
REMARK    4  A    between atoms: C_5  and  C_6
REMARK                            x       y       z     vdW  Elec       q    Type
REMARK                         _______ _______ _______ _____ _____    ______ ____
ROOT
ATOM      1  CA  UNL     1       0.715  -0.177   0.000  0.00  0.00    +0.000 C 
ATOM      2  N   UNL     1       0.715  -1.002   0.000  0.00  0.00    +0.000 NA
ENDROOT
BRANCH   1   4
ATOM      3  O   UNL     1       2.143  -0.177   0.000  0.00  0.00    +0.000 OA
ATOM      4  C   UNL     1       1.429   0.236   0.000  0.00  0.00    +0.000 C 
ATOM      5  OXT UNL     1       1.429   1.061   0.000  0.00  0.00    +0.000 OA
ENDBRANCH   1   4
BRANCH   1   6
ATOM      6  C   UNL     1       0.000   0.236   0.000  0.00  0.00    +0.000 C 
BRANCH   6   7
ATOM      7  C   UNL     1      -0.715  -0.177   0.000  0.00  0.00    +0.000 C 
BRANCH   7   8
ATOM      8  S   UNL     1      -1.429   0.236   0.000  0.00  0.00    +0.000 S 
ATOM      9  C   UNL     1      -2.143  -0.177   0.000  0.00  0.00    +0.000 C 
ATOM     10  O   UNL     1      -1.429   1.061   0.000  0.00  0.00    +0.000 OA
ENDBRANCH   7   8
ENDBRANCH   6   7
ENDBRANCH   1   6
TORSDOF 4
