REMARK  Name = 
REMARK  15 active torsions:
REMARK  status: ('A' for Active; 'I' for Inactive)
REMARK    1  A    between atoms: O_2  and  C_25
REMARK    2  A    between atoms: O_2  and  C_29
REMARK    3  A    between atoms: O_6  and  C_28
REMARK    4  A    between atoms: O_6  and  C_32
REMARK    5  A    between atoms: O_14  and  C_43
REMARK    6  A    between atoms: O_14  and  C_47
REMARK    7  A    between atoms: O_15  and  C_44
REMARK    8  A    between atoms: O_15  and  C_48
REMARK    9  A    between atoms: O_16  and  C_46
REMARK   10  A    between atoms: O_16  and  C_49
REMARK   11  A    between atoms: C_20  and  C_29
REMARK   12  A    between atoms: C_33  and  C_36
REMARK   13  A    between atoms: C_47  and  C_50
REMARK   14  A    between atoms: C_48  and  C_51
REMARK   15  A    between atoms: C_49  and  C_52
REMARK                            x       y       z     vdW  Elec       q    Type
REMARK                         _______ _______ _______ _____ _____    ______ ____
ROOT
ATOM      1  O   UNL     1      13.007  -6.333   0.000  0.00  0.00    +0.000 OA
ATOM      2  O   UNL     1      13.007  -8.808   0.000  0.00  0.00    +0.000 OA
ATOM      3  O   UNL     1      14.450  -8.836   0.000  0.00  0.00    +0.000 OA
ATOM      4  C   UNL     1      12.293  -7.570   0.000  0.00  0.00    +0.000 A 
ATOM      5  C   UNL     1      12.293  -6.745   0.000  0.00  0.00    +0.000 A 
ATOM      6  C   UNL     1      13.007  -7.983   0.000  0.00  0.00    +0.000 A 
ATOM      7  C   UNL     1      13.722  -7.570   0.000  0.00  0.00    +0.000 A 
ATOM      8  C   UNL     1      13.722  -6.745   0.000  0.00  0.00    +0.000 A 
ATOM      9  C   UNL     1      14.459  -8.011   0.000  0.00  0.00    +0.000 A 
ATOM     10  C   UNL     1      14.459  -6.304   0.000  0.00  0.00    +0.000 A 
ATOM     11  C   UNL     1      15.207  -7.587   0.000  0.00  0.00    +0.000 A 
ATOM     12  C   UNL     1      15.207  -6.728   0.000  0.00  0.00    +0.000 A 
ENDROOT
BRANCH   5  13
ATOM     13  C   UNL     1      11.578  -6.333   0.000  0.00  0.00    +0.000 A 
ATOM     14  C   UNL     1      11.578  -5.508   0.000  0.00  0.00    +0.000 A 
ATOM     15  C   UNL     1      10.864  -6.745   0.000  0.00  0.00    +0.000 A 
ATOM     16  C   UNL     1      10.864  -5.095   0.000  0.00  0.00    +0.000 A 
ATOM     17  C   UNL     1      10.149  -6.333   0.000  0.00  0.00    +0.000 A 
ATOM     18  C   UNL     1      10.149  -5.508   0.000  0.00  0.00    +0.000 A 
BRANCH  18  19
ATOM     19  O   UNL     1       9.435  -5.095   0.000  0.00  0.00    +0.000 OA
BRANCH  19  20
ATOM     20  C   UNL     1       8.720  -5.508   0.000  0.00  0.00    +0.000 C 
BRANCH  20  22
ATOM     21  O   UNL     1       7.291  -5.508   0.000  0.00  0.00    +0.000 OA
ATOM     22  C   UNL     1       8.006  -5.095   0.000  0.00  0.00    +0.000 C 
ENDBRANCH  20  22
ENDBRANCH  19  20
ENDBRANCH  18  19
BRANCH  16  23
ATOM     23  O   UNL     1      10.864  -4.270   0.000  0.00  0.00    +0.000 OA
BRANCH  23  24
ATOM     24  C   UNL     1      11.578  -3.858   0.000  0.00  0.00    +0.000 C 
BRANCH  24  26
ATOM     25  O   UNL     1      12.293  -2.620   0.000  0.00  0.00    +0.000 OA
ATOM     26  C   UNL     1      11.578  -3.033   0.000  0.00  0.00    +0.000 C 
ENDBRANCH  24  26
ENDBRANCH  23  24
ENDBRANCH  16  23
ENDBRANCH   5  13
BRANCH   4  27
ATOM     27  O   UNL     1      11.578  -7.983   0.000  0.00  0.00    +0.000 OA
BRANCH  27  36
ATOM     28  O   UNL     1      12.293  -9.220   0.000  0.00  0.00    +0.000 OA
ATOM     29  O   UNL     1      11.578 -11.283   0.000  0.00  0.00    +0.000 OA
ATOM     30  O   UNL     1      10.149 -10.458   0.000  0.00  0.00    +0.000 OA
ATOM     31  O   UNL     1      10.149  -8.808   0.000  0.00  0.00    +0.000 OA
ATOM     32  C   UNL     1      12.293 -10.045   0.000  0.00  0.00    +0.000 C 
ATOM     33  C   UNL     1      11.578 -10.458   0.000  0.00  0.00    +0.000 C 
ATOM     34  C   UNL     1      10.864 -10.045   0.000  0.00  0.00    +0.000 C 
ATOM     35  C   UNL     1      10.864  -9.220   0.000  0.00  0.00    +0.000 C 
ATOM     36  C   UNL     1      11.578  -8.808   0.000  0.00  0.00    +0.000 C 
BRANCH  32  37
ATOM     37  C   UNL     1      13.007 -10.458   0.000  0.00  0.00    +0.000 C 
BRANCH  37  38
ATOM     38  O   UNL     1      13.007 -11.283   0.000  0.00  0.00    +0.000 OA
BRANCH  38  44
ATOM     39  O   UNL     1      14.436 -11.283   0.000  0.00  0.00    +0.000 OA
ATOM     40  O   UNL     1      13.007 -12.933   0.000  0.00  0.00    +0.000 OA
ATOM     41  O   UNL     1      14.436 -13.758   0.000  0.00  0.00    +0.000 OA
ATOM     42  O   UNL     1      15.865 -12.933   0.000  0.00  0.00    +0.000 OA
ATOM     43  C   UNL     1      13.722 -12.520   0.000  0.00  0.00    +0.000 C 
ATOM     44  C   UNL     1      13.722 -11.695   0.000  0.00  0.00    +0.000 C 
ATOM     45  C   UNL     1      14.436 -12.933   0.000  0.00  0.00    +0.000 C 
ATOM     46  C   UNL     1      15.151 -12.520   0.000  0.00  0.00    +0.000 C 
ATOM     47  C   UNL     1      15.151 -11.695   0.000  0.00  0.00    +0.000 C 
ATOM     48  C   UNL     1      15.865 -11.283   0.000  0.00  0.00    +0.000 C 
ENDBRANCH  38  44
ENDBRANCH  37  38
ENDBRANCH  32  37
ENDBRANCH  27  36
ENDBRANCH   4  27
BRANCH  12  49
ATOM     49  O   UNL     1      15.920  -6.313   0.000  0.00  0.00    +0.000 OA
BRANCH  49  50
ATOM     50  C   UNL     1      16.636  -6.723   0.000  0.00  0.00    +0.000 C 
BRANCH  50  52
ATOM     51  O   UNL     1      18.065  -6.717   0.000  0.00  0.00    +0.000 OA
ATOM     52  C   UNL     1      17.349  -6.307   0.000  0.00  0.00    +0.000 C 
ENDBRANCH  50  52
ENDBRANCH  49  50
ENDBRANCH  12  49
TORSDOF 15
