REMARK  Name = 
REMARK  11 active torsions:
REMARK  status: ('A' for Active; 'I' for Inactive)
REMARK    1  A    between atoms: C_2  and  C_9
REMARK    2  A    between atoms: C_9  and  C_26
REMARK    3  A    between atoms: C_16  and  C_26
REMARK    4  A    between atoms: C_23  and  S_41
REMARK    5  A    between atoms: C_24  and  C_25
REMARK    6  A    between atoms: C_24  and  C_29
REMARK    7  A    between atoms: C_26  and  N_32
REMARK    8  A    between atoms: C_27  and  N_34
REMARK    9  A    between atoms: C_28  and  S_41
REMARK   10  A    between atoms: C_29  and  C_30
REMARK   11  A    between atoms: C_29  and  N_33
REMARK                            x       y       z     vdW  Elec       q    Type
REMARK                         _______ _______ _______ _____ _____    ______ ____
ROOT
ATOM      1  C   UNL     1      -2.858   7.425   0.000  0.00  0.00    +0.000 C 
ENDROOT
BRANCH   1   8
ATOM      2  C   UNL     1      -5.716   5.775   0.000  0.00  0.00    +0.000 C 
ATOM      3  C   UNL     1      -6.430   7.013   0.000  0.00  0.00    +0.000 C 
ATOM      4  C   UNL     1      -5.001   6.188   0.000  0.00  0.00    +0.000 C 
ATOM      5  C   UNL     1      -5.716   7.425   0.000  0.00  0.00    +0.000 C 
ATOM      6  C   UNL     1      -6.430   6.188   0.000  0.00  0.00    +0.000 C 
ATOM      7  C   UNL     1      -4.287   7.425   0.000  0.00  0.00    +0.000 C 
ATOM      8  N   UNL     1      -3.572   7.013   0.000  0.00  0.00    +0.000 NA
ATOM      9  N   UNL     1      -5.001   7.013   0.000  0.00  0.00    +0.000 N 
ATOM     10  O   UNL     1      -4.287   8.250   0.000  0.00  0.00    +0.000 OA
BRANCH   6  15
ATOM     11  C   UNL     1      -7.859   6.188   0.000  0.00  0.00    +0.000 C 
ATOM     12  C   UNL     1      -7.145   4.950   0.000  0.00  0.00    +0.000 C 
ATOM     13  C   UNL     1      -8.574   5.775   0.000  0.00  0.00    +0.000 C 
ATOM     14  C   UNL     1      -7.859   4.537   0.000  0.00  0.00    +0.000 C 
ATOM     15  N   UNL     1      -7.145   5.775   0.000  0.00  0.00    +0.000 NA
ATOM     16  O   UNL     1      -8.574   4.950   0.000  0.00  0.00    +0.000 OA
ENDBRANCH   6  15
ENDBRANCH   1   8
BRANCH   1  17
ATOM     17  C   UNL     1      -2.858   8.250   0.000  0.00  0.00    +0.000 C 
ATOM     18  N   UNL     1      -2.143   8.662   0.000  0.00  0.00    +0.000 NA
ATOM     19  O   UNL     1      -3.572   8.662   0.000  0.00  0.00    +0.000 OA
BRANCH  18  20
ATOM     20  C   UNL     1      -2.143   9.488   0.000  0.00  0.00    +0.000 C 
BRANCH  20  21
ATOM     21  C   UNL     1      -2.858   9.900   0.000  0.00  0.00    +0.000 C 
ATOM     22  C   UNL     1      -3.572   9.488   0.000  0.00  0.00    +0.000 C 
BRANCH  22  25
ATOM     23  O   UNL     1      -4.699   9.185   0.000  0.00  0.00    +0.000 OA
ATOM     24  O   UNL     1      -3.874  10.614   0.000  0.00  0.00    +0.000 OA
ATOM     25  S   UNL     1      -4.287   9.900   0.000  0.00  0.00    +0.000 S 
BRANCH  25  31
ATOM     26  C   UNL     1      -6.430  11.137   0.000  0.00  0.00    +0.000 A 
ATOM     27  C   UNL     1      -6.430  10.312   0.000  0.00  0.00    +0.000 A 
ATOM     28  C   UNL     1      -5.716  11.550   0.000  0.00  0.00    +0.000 A 
ATOM     29  C   UNL     1      -5.716   9.900   0.000  0.00  0.00    +0.000 A 
ATOM     30  C   UNL     1      -5.001  11.137   0.000  0.00  0.00    +0.000 A 
ATOM     31  C   UNL     1      -5.001  10.312   0.000  0.00  0.00    +0.000 A 
ENDBRANCH  25  31
ENDBRANCH  22  25
ENDBRANCH  20  21
BRANCH  20  32
ATOM     32  C   UNL     1      -1.429   9.900   0.000  0.00  0.00    +0.000 C 
BRANCH  32  34
ATOM     33  C   UNL     1       0.000   9.900   0.000  0.00  0.00    +0.000 C 
ATOM     34  C   UNL     1      -0.715   9.488   0.000  0.00  0.00    +0.000 C 
ENDBRANCH  32  34
ENDBRANCH  20  32
ENDBRANCH  18  20
ENDBRANCH   1  17
BRANCH   1  35
ATOM     35  C   UNL     1      -2.143   7.013   0.000  0.00  0.00    +0.000 C 
BRANCH  35  41
ATOM     36  C   UNL     1      -2.143   4.537   0.000  0.00  0.00    +0.000 A 
ATOM     37  C   UNL     1      -1.429   4.950   0.000  0.00  0.00    +0.000 A 
ATOM     38  C   UNL     1      -2.858   4.950   0.000  0.00  0.00    +0.000 A 
ATOM     39  C   UNL     1      -1.429   5.775   0.000  0.00  0.00    +0.000 A 
ATOM     40  C   UNL     1      -2.858   5.775   0.000  0.00  0.00    +0.000 A 
ATOM     41  C   UNL     1      -2.143   6.188   0.000  0.00  0.00    +0.000 A 
ENDBRANCH  35  41
ENDBRANCH   1  35
TORSDOF 11
