REMARK  Name = 
REMARK  7 active torsions:
REMARK  status: ('A' for Active; 'I' for Inactive)
REMARK    1  A    between atoms: C_3  and  C_4
REMARK    2  A    between atoms: C_5  and  C_9
REMARK    3  A    between atoms: C_6  and  C_10
REMARK    4  A    between atoms: C_6  and  C_12
REMARK    5  A    between atoms: C_8  and  C_11
REMARK    6  A    between atoms: C_9  and  C_14
REMARK    7  A    between atoms: CA_13  and  C_15
REMARK                            x       y       z     vdW  Elec       q    Type
REMARK                         _______ _______ _______ _____ _____    ______ ____
ROOT
ATOM      1  C   UNL     1       1.235   0.629   0.000  0.00  0.00    +0.000 C 
ATOM      2  C   UNL     1      -0.100   0.629   0.000  0.00  0.00    +0.000 C 
ATOM      3  C   UNL     1       0.568   1.114   0.000  0.00  0.00    +0.000 C 
ATOM      4  CA  UNL     1       0.155  -0.155   0.000  0.00  0.00    +0.000 C 
ATOM      5  N   UNL     1       0.980  -0.155   0.000  0.00  0.00    +0.000 NA
ENDROOT
BRANCH   3   8
ATOM      6  C   UNL     1      -0.147   2.352   0.000  0.00  0.00    +0.000 C 
ATOM      7  C   UNL     1       1.282   2.352   0.000  0.00  0.00    +0.000 C 
ATOM      8  C   UNL     1       0.568   1.939   0.000  0.00  0.00    +0.000 C 
BRANCH   7   9
ATOM      9  C   UNL     1       1.997   1.939   0.000  0.00  0.00    +0.000 C 
ATOM     10  C   UNL     1       2.711   2.352   0.000  0.00  0.00    +0.000 C 
BRANCH  10  12
ATOM     11  C   UNL     1       4.140   2.352   0.000  0.00  0.00    +0.000 C 
ATOM     12  C   UNL     1       3.426   1.939   0.000  0.00  0.00    +0.000 C 
BRANCH  12  13
ATOM     13  C   UNL     1       3.426   1.114   0.000  0.00  0.00    +0.000 C 
ATOM     14  O   UNL     1       4.140   0.702   0.000  0.00  0.00    +0.000 OA
ATOM     15  O   UNL     1       2.711   0.702   0.000  0.00  0.00    +0.000 OA
ENDBRANCH  12  13
ENDBRANCH  10  12
ENDBRANCH   7   9
ENDBRANCH   3   8
BRANCH   4  16
ATOM     16  C   UNL     1      -0.330  -0.823   0.000  0.00  0.00    +0.000 C 
ATOM     17  O   UNL     1       0.006  -1.576   0.000  0.00  0.00    +0.000 OA
ATOM     18  OXT UNL     1      -1.150  -0.737   0.000  0.00  0.00    +0.000 OA
ENDBRANCH   4  16
BRANCH   2  19
ATOM     19  C   UNL     1      -0.884   0.884   0.000  0.00  0.00    +0.000 C 
BRANCH  19  20
ATOM     20  C   UNL     1      -1.056   1.691   0.000  0.00  0.00    +0.000 C 
ATOM     21  O   UNL     1      -0.443   2.243   0.000  0.00  0.00    +0.000 OA
ATOM     22  O   UNL     1      -1.841   1.946   0.000  0.00  0.00    +0.000 OA
ENDBRANCH  19  20
ENDBRANCH   2  19
TORSDOF 7
