REMARK  Name = 
REMARK  8 active torsions:
REMARK  status: ('A' for Active; 'I' for Inactive)
REMARK    1  A    between atoms: N_5  and  C_15
REMARK    2  A    between atoms: N_6  and  C_27
REMARK    3  A    between atoms: C_7  and  C_12
REMARK    4  A    between atoms: C_15  and  C_16
REMARK    5  A    between atoms: C_16  and  C_19
REMARK    6  A    between atoms: C_16  and  C_20
REMARK    7  A    between atoms: C_19  and  C_24
REMARK    8  A    between atoms: C_27  and  C_31
REMARK                            x       y       z     vdW  Elec       q    Type
REMARK                         _______ _______ _______ _____ _____    ______ ____
ROOT
ATOM      1  C   UNL     1       3.079  -0.325   0.000  0.00  0.00    +0.000 C 
ENDROOT
BRANCH   1   2
ATOM      2  N   UNL     1       3.079   0.500   0.000  0.00  0.00    +0.000 NA
ATOM      3  C   UNL     1       3.079   2.150   0.000  0.00  0.00    +0.000 C 
ATOM      4  C   UNL     1       2.365   1.738   0.000  0.00  0.00    +0.000 C 
ATOM      5  C   UNL     1       3.793   1.738   0.000  0.00  0.00    +0.000 C 
ATOM      6  C   UNL     1       2.365   0.912   0.000  0.00  0.00    +0.000 C 
ATOM      7  C   UNL     1       3.793   0.912   0.000  0.00  0.00    +0.000 C 
ATOM      8  C   UNL     1       2.667   2.865   0.000  0.00  0.00    +0.000 C 
ATOM      9  C   UNL     1       1.650   2.150   0.000  0.00  0.00    +0.000 C 
BRANCH   3  11
ATOM     10  O   UNL     1       5.554   3.579   0.000  0.00  0.00    +0.000 OA
ATOM     11  C   UNL     1       3.492   2.865   0.000  0.00  0.00    +0.000 A 
ATOM     12  C   UNL     1       4.317   2.865   0.000  0.00  0.00    +0.000 A 
ATOM     13  C   UNL     1       3.079   3.579   0.000  0.00  0.00    +0.000 A 
ATOM     14  C   UNL     1       4.729   3.579   0.000  0.00  0.00    +0.000 A 
ATOM     15  C   UNL     1       3.492   4.293   0.000  0.00  0.00    +0.000 A 
ATOM     16  C   UNL     1       4.317   4.293   0.000  0.00  0.00    +0.000 A 
ENDBRANCH   3  11
ENDBRANCH   1   2
BRANCH   1  17
ATOM     17  C   UNL     1       3.793  -0.738   0.000  0.00  0.00    +0.000 C 
BRANCH  17  20
ATOM     18  O   UNL     1       4.508  -1.975   0.000  0.00  0.00    +0.000 OA
ATOM     19  N   UNL     1       3.079  -1.975   0.000  0.00  0.00    +0.000 NA
ATOM     20  C   UNL     1       3.793  -1.563   0.000  0.00  0.00    +0.000 C 
BRANCH  19  21
ATOM     21  C   UNL     1       3.079  -2.800   0.000  0.00  0.00    +0.000 C 
BRANCH  21  24
ATOM     22  O   UNL     1       2.365  -4.038   0.000  0.00  0.00    +0.000 OA
ATOM     23  O   UNL     1       1.650  -2.800   0.000  0.00  0.00    +0.000 OA
ATOM     24  C   UNL     1       2.365  -3.213   0.000  0.00  0.00    +0.000 C 
ENDBRANCH  21  24
ENDBRANCH  19  21
ENDBRANCH  17  20
BRANCH  17  25
ATOM     25  C   UNL     1       4.508  -0.325   0.000  0.00  0.00    +0.000 C 
BRANCH  25  26
ATOM     26  C   UNL     1       5.222  -0.738   0.000  0.00  0.00    +0.000 A 
ATOM     27  C   UNL     1       5.937  -0.325   0.000  0.00  0.00    +0.000 A 
ATOM     28  C   UNL     1       5.222  -1.563   0.000  0.00  0.00    +0.000 A 
ATOM     29  C   UNL     1       6.652  -0.738   0.000  0.00  0.00    +0.000 A 
ATOM     30  C   UNL     1       5.937  -1.975   0.000  0.00  0.00    +0.000 A 
ATOM     31  C   UNL     1       6.652  -1.563   0.000  0.00  0.00    +0.000 A 
ENDBRANCH  25  26
ENDBRANCH  17  25
ENDBRANCH   1  17
TORSDOF 8
