REMARK  Name = 
REMARK  0 active torsions:
REMARK  status: ('A' for Active; 'I' for Inactive)
REMARK                            x       y       z     vdW  Elec       q    Type
REMARK                         _______ _______ _______ _____ _____    ______ ____
ROOT
ATOM      1  C   UNL     1       0.077   0.591   0.000  0.00  0.00    +0.000 C 
ATOM      2  C   UNL     1       0.740  -1.266   0.000  0.00  0.00    +0.000 C 
ATOM      3  C   UNL     1       0.120  -1.643   0.000  0.00  0.00    +0.000 C 
ATOM      4  C   UNL     1       1.989  -0.542   0.000  0.00  0.00    +0.000 C 
ATOM      5  C   UNL     1       1.611  -0.930   0.000  0.00  0.00    +0.000 C 
ATOM      6  C   UNL     1       1.060  -0.557   0.000  0.00  0.00    +0.000 C 
ATOM      7  C   UNL     1       0.640  -0.930   0.000  0.00  0.00    +0.000 C 
ATOM      8  C   UNL     1       2.127  -1.359   0.000  0.00  0.00    +0.000 C 
ATOM      9  N   UNL     1       0.500  -0.117   0.000  0.00  0.00    +0.000 NA
ATOM     10  O   UNL     1       2.539  -2.074   0.000  0.00  0.00    +0.000 OA
ENDROOT
TORSDOF 0
