REMARK  Name = 
REMARK  6 active torsions:
REMARK  status: ('A' for Active; 'I' for Inactive)
REMARK    1  A    between atoms: C_13  and  C_15
REMARK    2  A    between atoms: C_13  and  C_19
REMARK    3  A    between atoms: C_14  and  C_16
REMARK    4  A    between atoms: C_14  and  C_20
REMARK    5  A    between atoms: C_17  and  C_22
REMARK    6  A    between atoms: C_18  and  C_23
REMARK                            x       y       z     vdW  Elec       q    Type
REMARK                         _______ _______ _______ _____ _____    ______ ____
ROOT
ATOM      1  C   UNL     1      -3.300   0.789   0.000  0.00  0.00    +0.000 C 
ATOM      2  C   UNL     1      -3.601   0.021   0.000  0.00  0.00    +0.000 C 
ATOM      3  C   UNL     1      -2.511   1.032   0.000  0.00  0.00    +0.000 C 
ATOM      4  C   UNL     1      -3.189  -0.693   0.000  0.00  0.00    +0.000 C 
ATOM      5  C   UNL     1      -1.830   0.568   0.000  0.00  0.00    +0.000 C 
ATOM      6  C   UNL     1      -2.373  -0.816   0.000  0.00  0.00    +0.000 C 
ATOM      7  C   UNL     1      -1.768  -0.255   0.000  0.00  0.00    +0.000 C 
ATOM      8  O   UNL     1      -1.000  -0.557   0.000  0.00  0.00    +0.000 OA
ENDROOT
BRANCH   6   9
ATOM      9  C   UNL     1      -2.130  -1.605   0.000  0.00  0.00    +0.000 C 
BRANCH   9  14
ATOM     10  C   UNL     1      -1.082  -2.577   0.000  0.00  0.00    +0.000 A 
ATOM     11  C   UNL     1      -0.764  -1.183   0.000  0.00  0.00    +0.000 A 
ATOM     12  C   UNL     1      -0.278  -2.760   0.000  0.00  0.00    +0.000 A 
ATOM     13  C   UNL     1       0.040  -1.367   0.000  0.00  0.00    +0.000 A 
ATOM     14  C   UNL     1      -1.325  -1.788   0.000  0.00  0.00    +0.000 A 
ATOM     15  C   UNL     1       0.283  -2.155   0.000  0.00  0.00    +0.000 A 
BRANCH  15  16
ATOM     16  C   UNL     1       1.088  -2.339   0.000  0.00  0.00    +0.000 C 
ATOM     17  N   UNL     1       1.649  -1.734   0.000  0.00  0.00    +0.000 NA
ATOM     18  N   UNL     1       1.331  -3.127   0.000  0.00  0.00    +0.000 NA
ENDBRANCH  15  16
ENDBRANCH   9  14
ENDBRANCH   6   9
BRANCH   5  19
ATOM     19  C   UNL     1      -1.115   0.980   0.000  0.00  0.00    +0.000 C 
BRANCH  19  24
ATOM     20  C   UNL     1      -0.401   2.217   0.000  0.00  0.00    +0.000 A 
ATOM     21  C   UNL     1      -1.830   2.217   0.000  0.00  0.00    +0.000 A 
ATOM     22  C   UNL     1      -0.401   3.042   0.000  0.00  0.00    +0.000 A 
ATOM     23  C   UNL     1      -1.830   3.042   0.000  0.00  0.00    +0.000 A 
ATOM     24  C   UNL     1      -1.115   1.805   0.000  0.00  0.00    +0.000 A 
ATOM     25  C   UNL     1      -1.115   3.455   0.000  0.00  0.00    +0.000 A 
BRANCH  25  26
ATOM     26  C   UNL     1      -1.115   4.280   0.000  0.00  0.00    +0.000 C 
ATOM     27  N   UNL     1      -1.830   4.692   0.000  0.00  0.00    +0.000 NA
ATOM     28  N   UNL     1      -0.401   4.692   0.000  0.00  0.00    +0.000 NA
ENDBRANCH  25  26
ENDBRANCH  19  24
ENDBRANCH   5  19
TORSDOF 6
