REMARK  Name = 
REMARK  2 active torsions:
REMARK  status: ('A' for Active; 'I' for Inactive)
REMARK    1  A    between atoms: C_2  and  S_3
REMARK    2  A    between atoms: S_3  and  C_4
REMARK                            x       y       z     vdW  Elec       q    Type
REMARK                         _______ _______ _______ _____ _____    ______ ____
ROOT
ATOM      1  S   UNL     1       1.238   0.715   0.000  0.00  0.00    +0.000 S 
ENDROOT
BRANCH   1   2
ATOM      2  C   UNL     1       0.825   0.000   0.000  0.00  0.00    +0.000 C 
ATOM      3  N   UNL     1       1.238  -0.715   0.000  0.00  0.00    +0.000 NA
ATOM      4  N   UNL     1       0.000   0.000   0.000  0.00  0.00    +0.000 NA
ENDBRANCH   1   2
BRANCH   1   6
ATOM      5  C   UNL     1       1.238   2.143   0.000  0.00  0.00    +0.000 C 
ATOM      6  C   UNL     1       0.825   1.429   0.000  0.00  0.00    +0.000 C 
ENDBRANCH   1   6
TORSDOF 2
