REMARK  Name = 
REMARK  2 active torsions:
REMARK  status: ('A' for Active; 'I' for Inactive)
REMARK    1  A    between atoms: N_3  and  C_17
REMARK    2  A    between atoms: C_6  and  C_17
REMARK                            x       y       z     vdW  Elec       q    Type
REMARK                         _______ _______ _______ _____ _____    ______ ____
ROOT
ATOM      1  O   UNL     1       1.637  -0.135   0.000  0.00  0.00    +0.000 OA
ATOM      2  N   UNL     1       3.966  -1.636   0.000  0.00  0.00    +0.000 N 
ATOM      3  C   UNL     1       3.713  -0.857   0.000  0.00  0.00    +0.000 A 
ATOM      4  C   UNL     1       2.877   0.617   0.000  0.00  0.00    +0.000 C 
ATOM      5  C   UNL     1       2.894  -0.857   0.000  0.00  0.00    +0.000 A 
ATOM      6  C   UNL     1       4.150  -0.125   0.000  0.00  0.00    +0.000 C 
ATOM      7  C   UNL     1       3.303  -2.117   0.000  0.00  0.00    +0.000 A 
ATOM      8  C   UNL     1       3.730   0.617   0.000  0.00  0.00    +0.000 C 
ATOM      9  C   UNL     1       2.641  -1.636   0.000  0.00  0.00    +0.000 A 
ATOM     10  C   UNL     1       4.750  -1.971   0.000  0.00  0.00    +0.000 C 
ATOM     11  C   UNL     1       2.456  -0.125   0.000  0.00  0.00    +0.000 C 
ATOM     12  C   UNL     1       3.379  -2.966   0.000  0.00  0.00    +0.000 A 
ATOM     13  C   UNL     1       4.846  -2.818   0.000  0.00  0.00    +0.000 C 
ATOM     14  C   UNL     1       4.156  -3.319   0.000  0.00  0.00    +0.000 C 
ATOM     15  C   UNL     1       1.940  -2.071   0.000  0.00  0.00    +0.000 A 
ATOM     16  C   UNL     1       2.639  -3.331   0.000  0.00  0.00    +0.000 A 
ATOM     17  C   UNL     1       1.939  -2.896   0.000  0.00  0.00    +0.000 A 
ENDROOT
BRANCH   4  18
ATOM     18  C   UNL     1       2.465   1.324   0.000  0.00  0.00    +0.000 C 
BRANCH  18  19
ATOM     19  N   UNL     1       2.871   2.034   0.000  0.00  0.00    +0.000 N 
ATOM     20  N   UNL     1       3.142   3.331   0.000  0.00  0.00    +0.000 NA
ATOM     21  C   UNL     1       2.535   2.781   0.000  0.00  0.00    +0.000 A 
ATOM     22  C   UNL     1       3.685   2.123   0.000  0.00  0.00    +0.000 A 
ATOM     23  C   UNL     1       3.852   2.925   0.000  0.00  0.00    +0.000 A 
ATOM     24  C   UNL     1       1.734   2.948   0.000  0.00  0.00    +0.000 C 
ENDBRANCH  18  19
ENDBRANCH   4  18
TORSDOF 2
