REMARK  Name = 
REMARK  5 active torsions:
REMARK  status: ('A' for Active; 'I' for Inactive)
REMARK    1  A    between atoms: O_1  and  C_12
REMARK    2  A    between atoms: O_1  and  C_17
REMARK    3  A    between atoms: C_10  and  C_16
REMARK    4  A    between atoms: C_17  and  C_18
REMARK    5  A    between atoms: C_19  and  C_22
REMARK                            x       y       z     vdW  Elec       q    Type
REMARK                         _______ _______ _______ _____ _____    ______ ____
ROOT
ATOM      1  O   UNL     1      26.151 -15.543   0.000  0.00  0.00    +0.000 OA
ENDROOT
BRANCH   1   7
ATOM      2  O   UNL     1      27.167 -13.178   0.000  0.00  0.00    +0.000 OA
ATOM      3  O   UNL     1      27.580 -16.368   0.000  0.00  0.00    +0.000 OA
ATOM      4  O   UNL     1      29.009 -15.543   0.000  0.00  0.00    +0.000 OA
ATOM      5  C   UNL     1      27.580 -13.893   0.000  0.00  0.00    +0.000 C 
ATOM      6  C   UNL     1      27.580 -15.543   0.000  0.00  0.00    +0.000 C 
ATOM      7  C   UNL     1      26.865 -15.130   0.000  0.00  0.00    +0.000 C 
ATOM      8  C   UNL     1      28.294 -15.130   0.000  0.00  0.00    +0.000 C 
ATOM      9  C   UNL     1      26.865 -14.305   0.000  0.00  0.00    +0.000 C 
ATOM     10  C   UNL     1      28.294 -14.305   0.000  0.00  0.00    +0.000 C 
BRANCH   5  13
ATOM     11  O   UNL     1      28.817 -13.178   0.000  0.00  0.00    +0.000 OA
ATOM     12  O   UNL     1      27.580 -12.464   0.000  0.00  0.00    +0.000 OA
ATOM     13  C   UNL     1      27.992 -13.178   0.000  0.00  0.00    +0.000 C 
ENDBRANCH   5  13
ENDBRANCH   1   7
BRANCH   1  15
ATOM     14  O   UNL     1      25.436 -14.305   0.000  0.00  0.00    +0.000 OA
ATOM     15  C   UNL     1      25.436 -15.130   0.000  0.00  0.00    +0.000 C 
BRANCH  15  16
ATOM     16  C   UNL     1      24.722 -15.543   0.000  0.00  0.00    +0.000 C 
ATOM     17  C   UNL     1      24.007 -15.130   0.000  0.00  0.00    +0.000 C 
BRANCH  17  22
ATOM     18  O   UNL     1      21.149 -15.130   0.000  0.00  0.00    +0.000 OA
ATOM     19  O   UNL     1      21.149 -16.780   0.000  0.00  0.00    +0.000 OA
ATOM     20  C   UNL     1      21.864 -15.543   0.000  0.00  0.00    +0.000 A 
ATOM     21  C   UNL     1      21.864 -16.368   0.000  0.00  0.00    +0.000 A 
ATOM     22  C   UNL     1      23.293 -15.543   0.000  0.00  0.00    +0.000 A 
ATOM     23  C   UNL     1      22.578 -15.130   0.000  0.00  0.00    +0.000 A 
ATOM     24  C   UNL     1      22.578 -16.780   0.000  0.00  0.00    +0.000 A 
ATOM     25  C   UNL     1      23.293 -16.368   0.000  0.00  0.00    +0.000 A 
ENDBRANCH  17  22
ENDBRANCH  15  16
ENDBRANCH   1  15
TORSDOF 5
