REMARK  Name = 
REMARK  6 active torsions:
REMARK  status: ('A' for Active; 'I' for Inactive)
REMARK    1  A    between atoms: P_1  and  O_3
REMARK    2  A    between atoms: O_2  and  C_11
REMARK    3  A    between atoms: O_2  and  C_19
REMARK    4  A    between atoms: O_3  and  C_19
REMARK    5  A    between atoms: C_7  and  C_9
REMARK    6  A    between atoms: C_8  and  C_10
REMARK                            x       y       z     vdW  Elec       q    Type
REMARK                         _______ _______ _______ _____ _____    ______ ____
ROOT
ATOM      1  C   UNL     1       4.508  -1.287   0.000  0.00  0.00    +0.000 A 
ATOM      2  C   UNL     1       3.079  -1.287   0.000  0.00  0.00    +0.000 A 
ATOM      3  C   UNL     1       3.793  -0.875   0.000  0.00  0.00    +0.000 A 
ATOM      4  C   UNL     1       4.508  -2.112   0.000  0.00  0.00    +0.000 A 
ATOM      5  C   UNL     1       3.079  -2.112   0.000  0.00  0.00    +0.000 A 
ATOM      6  C   UNL     1       3.793  -2.525   0.000  0.00  0.00    +0.000 A 
ENDROOT
BRANCH   1   7
ATOM      7  C   UNL     1       5.222  -0.875   0.000  0.00  0.00    +0.000 C 
ATOM      8  C   UNL     1       5.937  -1.287   0.000  0.00  0.00    +0.000 C 
ATOM      9  C   UNL     1       5.222  -0.050   0.000  0.00  0.00    +0.000 C 
ENDBRANCH   1   7
BRANCH   2  10
ATOM     10  C   UNL     1       2.365  -0.875   0.000  0.00  0.00    +0.000 C 
ATOM     11  C   UNL     1       1.650  -1.287   0.000  0.00  0.00    +0.000 C 
ATOM     12  C   UNL     1       2.365  -0.050   0.000  0.00  0.00    +0.000 C 
ENDBRANCH   2  10
BRANCH   3  13
ATOM     13  O   UNL     1       3.793  -0.050   0.000  0.00  0.00    +0.000 OA
BRANCH  13  14
ATOM     14  C   UNL     1       4.508   0.363   0.000  0.00  0.00    +0.000 C 
BRANCH  14  15
ATOM     15  O   UNL     1       4.508   1.188   0.000  0.00  0.00    +0.000 OA
BRANCH  15  16
ATOM     16  P   UNL     1       5.222   1.601   0.000  0.00  0.00    +0.000 P 
ATOM     17  O   UNL     1       4.810   2.315   0.000  0.00  0.00    +0.000 OA
ATOM     18  O   UNL     1       5.937   2.013   0.000  0.00  0.00    +0.000 OA
ATOM     19  O   UNL     1       5.635   0.886   0.000  0.00  0.00    +0.000 OA
ENDBRANCH  15  16
ENDBRANCH  14  15
ENDBRANCH  13  14
ENDBRANCH   3  13
TORSDOF 6
