REMARK  Name = 
REMARK  6 active torsions:
REMARK  status: ('A' for Active; 'I' for Inactive)
REMARK    1  A    between atoms: S_1  and  N_8
REMARK    2  A    between atoms: O_4  and  C_15
REMARK    3  A    between atoms: O_4  and  C_19
REMARK    4  A    between atoms: N_8  and  C_13
REMARK    5  A    between atoms: C_12  and  C_20
REMARK    6  A    between atoms: C_14  and  C_18
REMARK                            x       y       z     vdW  Elec       q    Type
REMARK                         _______ _______ _______ _____ _____    ______ ____
ROOT
ATOM      1  O   UNL     1       5.399  -0.850   0.000  0.00  0.00    +0.000 OA
ATOM      2  C   UNL     1       4.619   0.227   0.000  0.00  0.00    +0.000 A 
ATOM      3  C   UNL     1       4.619  -0.598   0.000  0.00  0.00    +0.000 A 
ATOM      4  C   UNL     1       5.399   0.478   0.000  0.00  0.00    +0.000 A 
ATOM      5  C   UNL     1       3.189  -0.598   0.000  0.00  0.00    +0.000 A 
ATOM      6  C   UNL     1       5.881  -0.186   0.000  0.00  0.00    +0.000 A 
ATOM      7  C   UNL     1       3.189   0.227   0.000  0.00  0.00    +0.000 A 
ATOM      8  C   UNL     1       3.904   0.639   0.000  0.00  0.00    +0.000 A 
ATOM      9  C   UNL     1       3.904  -1.011   0.000  0.00  0.00    +0.000 A 
ENDROOT
BRANCH   6  11
ATOM     10  F   UNL     1       9.181  -0.186   0.000  0.00  0.00    +0.000 F 
ATOM     11  C   UNL     1       6.706  -0.186   0.000  0.00  0.00    +0.000 A 
ATOM     12  C   UNL     1       7.118   0.529   0.000  0.00  0.00    +0.000 A 
ATOM     13  C   UNL     1       7.118  -0.900   0.000  0.00  0.00    +0.000 A 
ATOM     14  C   UNL     1       7.943   0.529   0.000  0.00  0.00    +0.000 A 
ATOM     15  C   UNL     1       7.943  -0.900   0.000  0.00  0.00    +0.000 A 
ATOM     16  C   UNL     1       8.356  -0.186   0.000  0.00  0.00    +0.000 A 
ENDBRANCH   6  11
BRANCH   4  19
ATOM     17  O   UNL     1       6.463   1.433   0.000  0.00  0.00    +0.000 OA
ATOM     18  N   UNL     1       5.104   1.877   0.000  0.00  0.00    +0.000 NA
ATOM     19  C   UNL     1       5.655   1.262   0.000  0.00  0.00    +0.000 C 
ATOM     20  C   UNL     1       5.361   2.661   0.000  0.00  0.00    +0.000 C 
ENDBRANCH   4  19
BRANCH   5  21
ATOM     21  N   UNL     1       2.475  -1.011   0.000  0.00  0.00    +0.000 NA
BRANCH  21  22
ATOM     22  S   UNL     1       2.475  -1.836   0.000  0.00  0.00    +0.000 S 
ATOM     23  O   UNL     1       3.300  -1.836   0.000  0.00  0.00    +0.000 OA
ATOM     24  O   UNL     1       1.650  -1.836   0.000  0.00  0.00    +0.000 OA
ATOM     25  C   UNL     1       2.475  -2.661   0.000  0.00  0.00    +0.000 C 
ENDBRANCH  21  22
ENDBRANCH   5  21
BRANCH   7  26
ATOM     26  O   UNL     1       2.475   0.639   0.000  0.00  0.00    +0.000 OA
BRANCH  26  27
ATOM     27  C   UNL     1       2.475   1.464   0.000  0.00  0.00    +0.000 C 
ATOM     28  C   UNL     1       1.761   1.877   0.000  0.00  0.00    +0.000 C 
ATOM     29  C   UNL     1       3.189   1.877   0.000  0.00  0.00    +0.000 C 
ENDBRANCH  26  27
ENDBRANCH   7  26
TORSDOF 6
