REMARK  Name = 
REMARK  6 active torsions:
REMARK  status: ('A' for Active; 'I' for Inactive)
REMARK    1  A    between atoms: C_3  and  C_6
REMARK    2  A    between atoms: C_4  and  C_8
REMARK    3  A    between atoms: C_7  and  N_20
REMARK    4  A    between atoms: C_9  and  N_20
REMARK    5  A    between atoms: C_17  and  O_33
REMARK    6  A    between atoms: C_19  and  O_33
REMARK                            x       y       z     vdW  Elec       q    Type
REMARK                         _______ _______ _______ _____ _____    ______ ____
ROOT
ATOM      1  C   UNL     1      -2.143  -2.888   0.000  0.00  0.00    +0.000 C 
ATOM      2  C   UNL     1      -2.143  -3.712   0.000  0.00  0.00    +0.000 C 
ATOM      3  C   UNL     1      -2.858  -4.125   0.000  0.00  0.00    +0.000 C 
ATOM      4  C   UNL     1      -2.858  -4.950   0.000  0.00  0.00    +0.000 C 
ATOM      5  C   UNL     1      -2.143  -5.362   0.000  0.00  0.00    +0.000 C 
ATOM      6  C   UNL     1      -1.429  -4.950   0.000  0.00  0.00    +0.000 C 
ATOM      7  O   UNL     1      -3.572  -5.362   0.000  0.00  0.00    +0.000 OA
ATOM      8  O   UNL     1      -2.143  -6.188   0.000  0.00  0.00    +0.000 OA
ATOM      9  O   UNL     1      -1.429  -4.125   0.000  0.00  0.00    +0.000 OA
ENDROOT
BRANCH   3  10
ATOM     10  N   UNL     1      -3.572  -3.712   0.000  0.00  0.00    +0.000 NA
BRANCH  10  13
ATOM     11  C   UNL     1      -2.858  -2.475   0.000  0.00  0.00    +0.000 C 
ATOM     12  C   UNL     1      -2.858  -1.650   0.000  0.00  0.00    +0.000 C 
ATOM     13  C   UNL     1      -3.572  -2.888   0.000  0.00  0.00    +0.000 C 
ATOM     14  C   UNL     1      -3.572  -1.238   0.000  0.00  0.00    +0.000 C 
ATOM     15  C   UNL     1      -4.287  -2.475   0.000  0.00  0.00    +0.000 C 
ATOM     16  C   UNL     1      -4.287  -1.650   0.000  0.00  0.00    +0.000 C 
ATOM     17  O   UNL     1      -3.572  -0.412   0.000  0.00  0.00    +0.000 OA
ATOM     18  O   UNL     1      -5.001  -2.888   0.000  0.00  0.00    +0.000 OA
ATOM     19  O   UNL     1      -5.001  -1.238   0.000  0.00  0.00    +0.000 OA
BRANCH  12  20
ATOM     20  C   UNL     1      -2.143  -1.238   0.000  0.00  0.00    +0.000 C 
ATOM     21  O   UNL     1      -2.143  -0.412   0.000  0.00  0.00    +0.000 OA
ENDBRANCH  12  20
ENDBRANCH  10  13
ENDBRANCH   3  10
BRANCH   6  22
ATOM     22  O   UNL     1      -0.715  -5.362   0.000  0.00  0.00    +0.000 OA
BRANCH  22  26
ATOM     23  C   UNL     1       0.000  -4.125   0.000  0.00  0.00    +0.000 C 
ATOM     24  C   UNL     1       0.715  -5.362   0.000  0.00  0.00    +0.000 C 
ATOM     25  C   UNL     1       1.429  -4.950   0.000  0.00  0.00    +0.000 C 
ATOM     26  C   UNL     1       0.000  -4.950   0.000  0.00  0.00    +0.000 C 
ATOM     27  C   UNL     1       1.429  -4.125   0.000  0.00  0.00    +0.000 C 
ATOM     28  O   UNL     1       0.715  -6.188   0.000  0.00  0.00    +0.000 OA
ATOM     29  O   UNL     1       2.143  -5.362   0.000  0.00  0.00    +0.000 OA
ATOM     30  O   UNL     1       2.143  -3.712   0.000  0.00  0.00    +0.000 OA
ATOM     31  O   UNL     1       0.715  -3.712   0.000  0.00  0.00    +0.000 OA
BRANCH  23  32
ATOM     32  C   UNL     1      -0.715  -3.712   0.000  0.00  0.00    +0.000 C 
ATOM     33  O   UNL     1      -0.715  -2.888   0.000  0.00  0.00    +0.000 OA
ENDBRANCH  23  32
ENDBRANCH  22  26
ENDBRANCH   6  22
TORSDOF 6
