REMARK  Name = 
REMARK  7 active torsions:
REMARK  status: ('A' for Active; 'I' for Inactive)
REMARK    1  A    between atoms: P_1  and  O_2
REMARK    2  A    between atoms: O_2  and  C_16
REMARK    3  A    between atoms: C_12  and  C_13
REMARK    4  A    between atoms: C_12  and  C_14
REMARK    5  A    between atoms: C_13  and  C_15
REMARK    6  A    between atoms: C_14  and  C_16
REMARK    7  A    between atoms: C_15  and  C_17
REMARK                            x       y       z     vdW  Elec       q    Type
REMARK                         _______ _______ _______ _____ _____    ______ ____
ROOT
ATOM      1  O   UNL     1       8.364  -8.391   0.000  0.00  0.00    +0.000 OA
ATOM      2  C   UNL     1       8.364  -9.216   0.000  0.00  0.00    +0.000 C 
ENDROOT
BRANCH   2   4
ATOM      3  O   UNL     1       7.650 -10.454   0.000  0.00  0.00    +0.000 OA
ATOM      4  C   UNL     1       7.650  -9.629   0.000  0.00  0.00    +0.000 C 
BRANCH   4   6
ATOM      5  O   UNL     1       6.935  -8.391   0.000  0.00  0.00    +0.000 OA
ATOM      6  C   UNL     1       6.935  -9.216   0.000  0.00  0.00    +0.000 C 
BRANCH   6   9
ATOM      7  O   UNL     1       5.506  -9.216   0.000  0.00  0.00    +0.000 OA
ATOM      8  O   UNL     1       6.221 -10.454   0.000  0.00  0.00    +0.000 OA
ATOM      9  C   UNL     1       6.221  -9.629   0.000  0.00  0.00    +0.000 C 
ENDBRANCH   6   9
ENDBRANCH   4   6
ENDBRANCH   2   4
BRANCH   2  11
ATOM     10  O   UNL     1       9.079 -10.454   0.000  0.00  0.00    +0.000 OA
ATOM     11  C   UNL     1       9.079  -9.629   0.000  0.00  0.00    +0.000 C 
BRANCH  11  12
ATOM     12  C   UNL     1       9.793  -9.216   0.000  0.00  0.00    +0.000 C 
BRANCH  12  13
ATOM     13  O   UNL     1      10.508  -9.629   0.000  0.00  0.00    +0.000 OA
BRANCH  13  14
ATOM     14  P   UNL     1      11.222  -9.216   0.000  0.00  0.00    +0.000 P 
ATOM     15  O   UNL     1      11.634  -9.930   0.000  0.00  0.00    +0.000 OA
ATOM     16  O   UNL     1      11.937  -8.803   0.000  0.00  0.00    +0.000 OA
ATOM     17  O   UNL     1      10.809  -8.502   0.000  0.00  0.00    +0.000 OA
ENDBRANCH  13  14
ENDBRANCH  12  13
ENDBRANCH  11  12
ENDBRANCH   2  11
TORSDOF 7
