REMARK  Name = 
REMARK  12 active torsions:
REMARK  status: ('A' for Active; 'I' for Inactive)
REMARK    1  A    between atoms: O_6  and  C_29
REMARK    2  A    between atoms: N_7  and  C_15
REMARK    3  A    between atoms: N_8  and  C_27
REMARK    4  A    between atoms: N_8  and  C_28
REMARK    5  A    between atoms: C_9  and  C_16
REMARK    6  A    between atoms: C_10  and  C_13
REMARK    7  A    between atoms: C_11  and  C_14
REMARK    8  A    between atoms: C_15  and  C_18
REMARK    9  A    between atoms: C_27  and  C_30
REMARK   10  A    between atoms: C_28  and  C_31
REMARK   11  A    between atoms: C_30  and  C_33
REMARK   12  A    between atoms: C_31  and  C_34
REMARK                            x       y       z     vdW  Elec       q    Type
REMARK                         _______ _______ _______ _____ _____    ______ ____
ROOT
ATOM      1  N   UNL     1       5.830  -0.915   0.000  0.00  0.00    +0.000 NA
ATOM      2  C   UNL     1       5.969  -2.243   0.000  0.00  0.00    +0.000 C 
ATOM      3  C   UNL     1       6.723  -1.907   0.000  0.00  0.00    +0.000 C 
ATOM      4  C   UNL     1       5.417  -1.630   0.000  0.00  0.00    +0.000 C 
ATOM      5  C   UNL     1       6.636  -1.087   0.000  0.00  0.00    +0.000 C 
ENDROOT
BRANCH   3   8
ATOM      6  O   UNL     1       9.647  -2.068   0.000  0.00  0.00    +0.000 OA
ATOM      7  O   UNL     1       9.647  -3.396   0.000  0.00  0.00    +0.000 OA
ATOM      8  C   UNL     1       7.437  -2.320   0.000  0.00  0.00    +0.000 A 
ATOM      9  C   UNL     1       8.152  -1.907   0.000  0.00  0.00    +0.000 A 
ATOM     10  C   UNL     1       7.437  -3.145   0.000  0.00  0.00    +0.000 A 
ATOM     11  C   UNL     1       8.866  -2.320   0.000  0.00  0.00    +0.000 A 
ATOM     12  C   UNL     1       8.152  -3.557   0.000  0.00  0.00    +0.000 A 
ATOM     13  C   UNL     1       8.866  -3.145   0.000  0.00  0.00    +0.000 A 
ATOM     14  C   UNL     1      10.128  -2.732   0.000  0.00  0.00    +0.000 C 
ENDBRANCH   3   8
BRANCH   4  15
ATOM     15  C   UNL     1       4.596  -1.716   0.000  0.00  0.00    +0.000 A 
ATOM     16  C   UNL     1       4.261  -2.470   0.000  0.00  0.00    +0.000 A 
ATOM     17  C   UNL     1       4.112  -1.048   0.000  0.00  0.00    +0.000 A 
ATOM     18  C   UNL     1       3.440  -2.556   0.000  0.00  0.00    +0.000 A 
ATOM     19  C   UNL     1       3.291  -1.135   0.000  0.00  0.00    +0.000 A 
ATOM     20  C   UNL     1       2.955  -1.888   0.000  0.00  0.00    +0.000 A 
BRANCH  20  21
ATOM     21  O   UNL     1       2.135  -1.974   0.000  0.00  0.00    +0.000 OA
ATOM     22  C   UNL     1       1.650  -1.307   0.000  0.00  0.00    +0.000 C 
ENDBRANCH  20  21
ENDBRANCH   4  15
BRANCH   2  25
ATOM     23  O   UNL     1       6.411  -3.602   0.000  0.00  0.00    +0.000 OA
ATOM     24  O   UNL     1       5.013  -3.305   0.000  0.00  0.00    +0.000 OA
ATOM     25  C   UNL     1       5.798  -3.050   0.000  0.00  0.00    +0.000 C 
ENDBRANCH   2  25
BRANCH   1  26
ATOM     26  C   UNL     1       5.494  -0.161   0.000  0.00  0.00    +0.000 C 
BRANCH  26  29
ATOM     27  O   UNL     1       6.799   0.420   0.000  0.00  0.00    +0.000 OA
ATOM     28  N   UNL     1       5.643   1.260   0.000  0.00  0.00    +0.000 N 
ATOM     29  C   UNL     1       5.979   0.506   0.000  0.00  0.00    +0.000 C 
BRANCH  28  30
ATOM     30  C   UNL     1       6.128   1.927   0.000  0.00  0.00    +0.000 C 
BRANCH  30  31
ATOM     31  C   UNL     1       5.793   2.681   0.000  0.00  0.00    +0.000 C 
BRANCH  31  32
ATOM     32  C   UNL     1       6.278   3.348   0.000  0.00  0.00    +0.000 C 
ATOM     33  C   UNL     1       5.942   4.102   0.000  0.00  0.00    +0.000 C 
ENDBRANCH  31  32
ENDBRANCH  30  31
ENDBRANCH  28  30
BRANCH  28  34
ATOM     34  C   UNL     1       4.823   1.346   0.000  0.00  0.00    +0.000 C 
BRANCH  34  35
ATOM     35  C   UNL     1       4.487   2.100   0.000  0.00  0.00    +0.000 C 
BRANCH  35  36
ATOM     36  C   UNL     1       3.667   2.186   0.000  0.00  0.00    +0.000 C 
ATOM     37  C   UNL     1       3.331   2.940   0.000  0.00  0.00    +0.000 C 
ENDBRANCH  35  36
ENDBRANCH  34  35
ENDBRANCH  28  34
ENDBRANCH  26  29
ENDBRANCH   1  26
TORSDOF 12
