REMARK  Name = 
REMARK  1 active torsions:
REMARK  status: ('A' for Active; 'I' for Inactive)
REMARK    1  A    between atoms: N_1  and  C_2
REMARK                            x       y       z     vdW  Elec       q    Type
REMARK                         _______ _______ _______ _____ _____    ______ ____
ROOT
ATOM      1  N   UNL     1      15.486  -9.482   0.000  0.00  0.00    +0.000 N 
ATOM      2  C   UNL     1      14.989 -10.144   0.000  0.00  0.00    +0.000 C 
ATOM      3  C   UNL     1      14.989  -8.819   0.000  0.00  0.00    +0.000 C 
ATOM      4  C   UNL     1      14.202  -9.896   0.000  0.00  0.00    +0.000 A 
ATOM      5  O   UNL     1      15.279 -10.931   0.000  0.00  0.00    +0.000 OA
ATOM      6  C   UNL     1      14.202  -9.068   0.000  0.00  0.00    +0.000 A 
ATOM      7  O   UNL     1      15.237  -8.033   0.000  0.00  0.00    +0.000 OA
ATOM      8  C   UNL     1      13.498 -10.310   0.000  0.00  0.00    +0.000 A 
ATOM      9  C   UNL     1      13.498  -8.654   0.000  0.00  0.00    +0.000 A 
ATOM     10  C   UNL     1      12.794  -9.896   0.000  0.00  0.00    +0.000 A 
ATOM     11  C   UNL     1      12.794  -9.068   0.000  0.00  0.00    +0.000 A 
ATOM     12  N   UNL     1      13.498  -7.826   0.000  0.00  0.00    +0.000 NA
ENDROOT
BRANCH   1  13
ATOM     13  C   UNL     1      16.314  -9.482   0.000  0.00  0.00    +0.000 C 
ATOM     14  C   UNL     1      16.728  -8.737   0.000  0.00  0.00    +0.000 C 
ATOM     15  C   UNL     1      16.728 -10.186   0.000  0.00  0.00    +0.000 C 
ATOM     16  N   UNL     1      17.556  -8.737   0.000  0.00  0.00    +0.000 NA
ATOM     17  O   UNL     1      16.314  -8.033   0.000  0.00  0.00    +0.000 OA
ATOM     18  C   UNL     1      17.597 -10.186   0.000  0.00  0.00    +0.000 C 
ATOM     19  C   UNL     1      17.970  -9.441   0.000  0.00  0.00    +0.000 C 
ATOM     20  O   UNL     1      18.798  -9.441   0.000  0.00  0.00    +0.000 OA
ENDBRANCH   1  13
TORSDOF 1
