REMARK  Name = 
REMARK  7 active torsions:
REMARK  status: ('A' for Active; 'I' for Inactive)
REMARK    1  A    between atoms: C_5  and  C_6
REMARK    2  A    between atoms: C_6  and  O_7
REMARK    3  A    between atoms: O_7  and  P_8
REMARK    4  A    between atoms: C_12  and  C_13
REMARK    5  A    between atoms: C_13  and  N_14
REMARK    6  A    between atoms: N_14  and  C_15
REMARK    7  A    between atoms: C_15  and  C_18
REMARK                            x       y       z     vdW  Elec       q    Type
REMARK                         _______ _______ _______ _____ _____    ______ ____
ROOT
ATOM      1  C   UNL     1      -0.030  -2.143   0.000  0.00  0.00    +0.000 C 
ATOM      2  C   UNL     1       0.383  -1.429   0.000  0.00  0.00    +0.000 A 
ATOM      3  N   UNL     1      -0.030  -0.715   0.000  0.00  0.00    +0.000 NA
ATOM      4  C   UNL     1       0.383   0.000   0.000  0.00  0.00    +0.000 A 
ATOM      5  C   UNL     1       1.208   0.000   0.000  0.00  0.00    +0.000 A 
ATOM      6  C   UNL     1       1.620  -0.715   0.000  0.00  0.00    +0.000 A 
ATOM      7  C   UNL     1       1.208  -1.429   0.000  0.00  0.00    +0.000 A 
ATOM      8  O   UNL     1       1.620  -2.143   0.000  0.00  0.00    +0.000 OA
ENDROOT
BRANCH   5   9
ATOM      9  C   UNL     1       1.620   0.715   0.000  0.00  0.00    +0.000 C 
BRANCH   9  10
ATOM     10  O   UNL     1       1.208   1.429   0.000  0.00  0.00    +0.000 OA
BRANCH  10  11
ATOM     11  P   UNL     1       1.620   2.143   0.000  0.00  0.00    +0.000 P 
ATOM     12  O   UNL     1       2.033   2.858   0.000  0.00  0.00    +0.000 OA
ATOM     13  O   UNL     1       0.906   2.556   0.000  0.00  0.00    +0.000 OA
ATOM     14  O   UNL     1       2.335   1.731   0.000  0.00  0.00    +0.000 OA
ENDBRANCH  10  11
ENDBRANCH   9  10
ENDBRANCH   5   9
BRANCH   6  15
ATOM     15  C   UNL     1       2.445  -0.715   0.000  0.00  0.00    +0.000 C 
BRANCH  15  16
ATOM     16  N   UNL     1       2.858   0.000   0.000  0.00  0.00    +0.000 NA
BRANCH  16  17
ATOM     17  C   UNL     1       3.683   0.000   0.000  0.00  0.00    +0.000 C 
ATOM     18  C   UNL     1       3.683  -0.825   0.000  0.00  0.00    +0.000 C 
ATOM     19  C   UNL     1       3.683   0.825   0.000  0.00  0.00    +0.000 C 
BRANCH  17  20
ATOM     20  C   UNL     1       4.508   0.000   0.000  0.00  0.00    +0.000 C 
ATOM     21  O   UNL     1       4.920  -0.715   0.000  0.00  0.00    +0.000 OA
ATOM     22  O   UNL     1       4.920   0.715   0.000  0.00  0.00    +0.000 OA
ENDBRANCH  17  20
ENDBRANCH  16  17
ENDBRANCH  15  16
ENDBRANCH   6  15
TORSDOF 7
