REMARK  Name = 
REMARK  7 active torsions:
REMARK  status: ('A' for Active; 'I' for Inactive)
REMARK    1  A    between atoms: O_2  and  C_15
REMARK    2  A    between atoms: O_2  and  C_16
REMARK    3  A    between atoms: N_5  and  C_12
REMARK    4  A    between atoms: N_5  and  C_20
REMARK    5  A    between atoms: C_8  and  C_9
REMARK    6  A    between atoms: C_9  and  C_10
REMARK    7  A    between atoms: C_12  and  C_15
REMARK                            x       y       z     vdW  Elec       q    Type
REMARK                         _______ _______ _______ _____ _____    ______ ____
ROOT
ATOM      1  C   UNL     1       5.745   1.316   0.000  0.00  0.00    +0.000 A 
ATOM      2  C   UNL     1       5.745   0.491   0.000  0.00  0.00    +0.000 A 
ATOM      3  C   UNL     1       5.030   1.729   0.000  0.00  0.00    +0.000 A 
ATOM      4  C   UNL     1       4.316   0.491   0.000  0.00  0.00    +0.000 A 
ATOM      5  C   UNL     1       5.030   0.079   0.000  0.00  0.00    +0.000 A 
ATOM      6  C   UNL     1       4.316   1.316   0.000  0.00  0.00    +0.000 A 
ENDROOT
BRANCH   1   7
ATOM      7  C   UNL     1       6.459   1.728   0.000  0.00  0.00    +0.000 C 
BRANCH   7  12
ATOM      8  S   UNL     1       7.260   0.496   0.000  0.00  0.00    +0.000 S 
ATOM      9  O   UNL     1       8.099   2.459   0.000  0.00  0.00    +0.000 OA
ATOM     10  O   UNL     1       8.402  -0.430   0.000  0.00  0.00    +0.000 OA
ATOM     11  N   UNL     1       8.479   1.038   0.000  0.00  0.00    +0.000 NA
ATOM     12  C   UNL     1       7.174   1.316   0.000  0.00  0.00    +0.000 C 
ATOM     13  C   UNL     1       7.927   1.652   0.000  0.00  0.00    +0.000 C 
ATOM     14  C   UNL     1       8.067   0.324   0.000  0.00  0.00    +0.000 C 
ENDBRANCH   7  12
ENDBRANCH   1   7
BRANCH   4  15
ATOM     15  O   UNL     1       3.601   0.079   0.000  0.00  0.00    +0.000 OA
BRANCH  15  16
ATOM     16  C   UNL     1       2.887   0.491   0.000  0.00  0.00    +0.000 C 
BRANCH  16  17
ATOM     17  C   UNL     1       2.172   0.079   0.000  0.00  0.00    +0.000 C 
BRANCH  17  18
ATOM     18  N   UNL     1       1.458   0.491   0.000  0.00  0.00    +0.000 N 
ATOM     19  C   UNL     1       1.458   1.316   0.000  0.00  0.00    +0.000 C 
BRANCH  18  21
ATOM     20  N   UNL     1       0.029   0.491   0.000  0.00  0.00    +0.000 NA
ATOM     21  C   UNL     1       0.743   0.079   0.000  0.00  0.00    +0.000 A 
ATOM     22  C   UNL     1       0.743  -0.746   0.000  0.00  0.00    +0.000 A 
ATOM     23  C   UNL     1       0.029  -1.159   0.000  0.00  0.00    +0.000 A 
ATOM     24  C   UNL     1      -0.686   0.079   0.000  0.00  0.00    +0.000 A 
ATOM     25  C   UNL     1      -0.686  -0.746   0.000  0.00  0.00    +0.000 A 
ENDBRANCH  18  21
ENDBRANCH  17  18
ENDBRANCH  16  17
ENDBRANCH  15  16
ENDBRANCH   4  15
TORSDOF 7
