REMARK  Name = 
REMARK  8 active torsions:
REMARK  status: ('A' for Active; 'I' for Inactive)
REMARK    1  A    between atoms: O_1  and  C_12
REMARK    2  A    between atoms: O_1  and  C_13
REMARK    3  A    between atoms: O_2  and  N_8
REMARK    4  A    between atoms: O_2  and  C_11
REMARK    5  A    between atoms: N_7  and  C_14
REMARK    6  A    between atoms: C_9  and  C_10
REMARK    7  A    between atoms: C_9  and  C_11
REMARK    8  A    between atoms: C_10  and  C_12
REMARK                            x       y       z     vdW  Elec       q    Type
REMARK                         _______ _______ _______ _____ _____    ______ ____
ROOT
ATOM      1  O   UNL     1       4.508  -0.206   0.000  0.00  0.00    +0.000 OA
ENDROOT
BRANCH   1   2
ATOM      2  C   UNL     1       4.508   0.619   0.000  0.00  0.00    +0.000 A 
ATOM      3  C   UNL     1       4.508   2.269   0.000  0.00  0.00    +0.000 A 
ATOM      4  C   UNL     1       5.222   1.031   0.000  0.00  0.00    +0.000 A 
ATOM      5  C   UNL     1       3.793   1.031   0.000  0.00  0.00    +0.000 A 
ATOM      6  C   UNL     1       5.222   1.856   0.000  0.00  0.00    +0.000 A 
ATOM      7  C   UNL     1       3.793   1.856   0.000  0.00  0.00    +0.000 A 
BRANCH   3   9
ATOM      8  O   UNL     1       5.937   3.094   0.000  0.00  0.00    +0.000 OA
ATOM      9  N   UNL     1       4.508   3.094   0.000  0.00  0.00    +0.000 NA
ATOM     10  C   UNL     1       5.222   3.506   0.000  0.00  0.00    +0.000 C 
ATOM     11  C   UNL     1       5.222   4.331   0.000  0.00  0.00    +0.000 C 
ENDBRANCH   3   9
ENDBRANCH   1   2
BRANCH   1  13
ATOM     12  O   UNL     1       3.079  -0.206   0.000  0.00  0.00    +0.000 OA
ATOM     13  C   UNL     1       3.793  -0.619   0.000  0.00  0.00    +0.000 C 
BRANCH  13  14
ATOM     14  C   UNL     1       3.793  -1.444   0.000  0.00  0.00    +0.000 C 
BRANCH  14  15
ATOM     15  C   UNL     1       3.079  -1.856   0.000  0.00  0.00    +0.000 C 
BRANCH  15  16
ATOM     16  C   UNL     1       3.079  -2.681   0.000  0.00  0.00    +0.000 C 
BRANCH  16  17
ATOM     17  O   UNL     1       2.365  -3.094   0.000  0.00  0.00    +0.000 OA
BRANCH  17  20
ATOM     18  O   UNL     1       1.650  -4.331   0.000  0.00  0.00    +0.000 OA
ATOM     19  O   UNL     1       3.079  -4.331   0.000  0.00  0.00    +0.000 OA
ATOM     20  N   UNL     1       2.365  -3.919   0.000  0.00  0.00    +0.000 N 
ENDBRANCH  17  20
ENDBRANCH  16  17
ENDBRANCH  15  16
ENDBRANCH  14  15
ENDBRANCH  13  14
ENDBRANCH   1  13
TORSDOF 8
