REMARK  Name = 
REMARK  2 active torsions:
REMARK  status: ('A' for Active; 'I' for Inactive)
REMARK    1  A    between atoms: C_7  and  C_16
REMARK    2  A    between atoms: C_16  and  C_26
REMARK                            x       y       z     vdW  Elec       q    Type
REMARK                         _______ _______ _______ _____ _____    ______ ____
ROOT
ATOM      1  C   UNL     1      17.444  -5.843   0.000  0.00  0.00    +0.000 C 
ATOM      2  C   UNL     1      19.595  -4.598   0.000  0.00  0.00    +0.000 C 
ATOM      3  C   UNL     1      18.152  -5.419   0.000  0.00  0.00    +0.000 C 
ATOM      4  C   UNL     1      17.444  -6.664   0.000  0.00  0.00    +0.000 C 
ATOM      5  C   UNL     1      19.595  -5.419   0.000  0.00  0.00    +0.000 C 
ATOM      6  C   UNL     1      18.887  -5.843   0.000  0.00  0.00    +0.000 C 
ATOM      7  C   UNL     1      20.387  -4.343   0.000  0.00  0.00    +0.000 C 
ATOM      8  C   UNL     1      18.152  -4.598   0.000  0.00  0.00    +0.000 C 
ATOM      9  C   UNL     1      16.709  -5.419   0.000  0.00  0.00    +0.000 C 
ATOM     10  C   UNL     1      18.887  -4.174   0.000  0.00  0.00    +0.000 C 
ATOM     11  C   UNL     1      20.868  -4.994   0.000  0.00  0.00    +0.000 C 
ATOM     12  C   UNL     1      20.387  -5.673   0.000  0.00  0.00    +0.000 C 
ATOM     13  C   UNL     1      18.887  -6.664   0.000  0.00  0.00    +0.000 C 
ATOM     14  C   UNL     1      18.152  -7.088   0.000  0.00  0.00    +0.000 C 
ATOM     15  C   UNL     1      16.709  -7.088   0.000  0.00  0.00    +0.000 C 
ATOM     16  C   UNL     1      16.001  -5.843   0.000  0.00  0.00    +0.000 C 
ATOM     17  C   UNL     1      16.001  -6.635   0.000  0.00  0.00    +0.000 C 
ATOM     18  F   UNL     1      18.152  -6.211   0.000  0.00  0.00    +0.000 F 
ATOM     19  O   UNL     1      15.265  -7.060   0.000  0.00  0.00    +0.000 OA
ATOM     20  C   UNL     1      17.444  -4.994   0.000  0.00  0.00    +0.000 C 
ATOM     21  C   UNL     1      19.595  -3.806   0.000  0.00  0.00    +0.000 C 
ATOM     22  O   UNL     1      17.444  -4.174   0.000  0.00  0.00    +0.000 OA
ATOM     23  F   UNL     1      18.152  -7.909   0.000  0.00  0.00    +0.000 F 
ATOM     24  C   UNL     1      21.693  -4.986   0.000  0.00  0.00    +0.000 C 
ATOM     25  O   UNL     1      21.181  -4.552   0.000  0.00  0.00    +0.000 OA
ENDROOT
BRANCH   7  26
ATOM     26  C   UNL     1      20.387  -3.494   0.000  0.00  0.00    +0.000 C 
ATOM     27  O   UNL     1      19.680  -3.098   0.000  0.00  0.00    +0.000 OA
BRANCH  26  28
ATOM     28  C   UNL     1      21.094  -3.098   0.000  0.00  0.00    +0.000 C 
ATOM     29  O   UNL     1      21.830  -3.494   0.000  0.00  0.00    +0.000 OA
ENDBRANCH  26  28
ENDBRANCH   7  26
TORSDOF 2
