REMARK  Name = 
REMARK  11 active torsions:
REMARK  status: ('A' for Active; 'I' for Inactive)
REMARK    1  A    between atoms: C_5  and  C_8
REMARK    2  A    between atoms: C_5  and  C_10
REMARK    3  A    between atoms: C_8  and  C_27
REMARK    4  A    between atoms: C_10  and  C_29
REMARK    5  A    between atoms: C_16  and  C_23
REMARK    6  A    between atoms: C_16  and  C_29
REMARK    7  A    between atoms: C_22  and  O_35
REMARK    8  A    between atoms: C_23  and  O_36
REMARK    9  A    between atoms: C_25  and  O_39
REMARK   10  A    between atoms: C_26  and  C_29
REMARK   11  A    between atoms: C_26  and  O_39
REMARK                            x       y       z     vdW  Elec       q    Type
REMARK                         _______ _______ _______ _____ _____    ______ ____
ROOT
ATOM      1  C   UNL     1       1.509  -0.431   0.000  0.00  0.00    +0.000 C 
ATOM      2  C   UNL     1       3.886   1.085   0.000  0.00  0.00    +0.000 C 
ATOM      3  C   UNL     1       2.054  -0.920   0.000  0.00  0.00    +0.000 C 
ATOM      4  C   UNL     1       1.775   0.350   0.000  0.00  0.00    +0.000 C 
ATOM      5  C   UNL     1       3.063   1.022   0.000  0.00  0.00    +0.000 C 
ATOM      6  C   UNL     1       5.216   0.783   0.000  0.00  0.00    +0.000 A 
ATOM      7  C   UNL     1       4.972  -0.849   0.000  0.00  0.00    +0.000 A 
ATOM      8  C   UNL     1       2.321  -1.087   0.000  0.00  0.00    +0.000 C 
ATOM      9  C   UNL     1       7.056  -0.326   0.000  0.00  0.00    +0.000 C 
ATOM     10  C   UNL     1       4.448   0.481   0.000  0.00  0.00    +0.000 A 
ATOM     11  C   UNL     1       4.326  -0.335   0.000  0.00  0.00    +0.000 A 
ATOM     12  C   UNL     1       5.861   0.270   0.000  0.00  0.00    +0.000 A 
ATOM     13  C   UNL     1       5.740  -0.546   0.000  0.00  0.00    +0.000 A 
ATOM     14  C   UNL     1       2.766  -1.781   0.000  0.00  0.00    +0.000 C 
ATOM     15  C   UNL     1       3.612  -0.749   0.000  0.00  0.00    +0.000 C 
ATOM     16  C   UNL     1       3.564  -1.573   0.000  0.00  0.00    +0.000 C 
ATOM     17  C   UNL     1       2.844  -0.449   0.000  0.00  0.00    +0.000 C 
ATOM     18  N   UNL     1       2.600   0.339   0.000  0.00  0.00    +0.000 NA
ATOM     19  O   UNL     1       6.675   0.406   0.000  0.00  0.00    +0.000 OA
ATOM     20  O   UNL     1       6.478  -0.914   0.000  0.00  0.00    +0.000 OA
ENDROOT
BRANCH  14  22
ATOM     21  C   UNL     1       1.650  -2.674   0.000  0.00  0.00    +0.000 C 
ATOM     22  O   UNL     1       2.466  -2.550   0.000  0.00  0.00    +0.000 OA
ENDBRANCH  14  22
BRANCH  16  23
ATOM     23  O   UNL     1       4.202  -2.095   0.000  0.00  0.00    +0.000 OA
BRANCH  23  24
ATOM     24  C   UNL     1       4.069  -2.910   0.000  0.00  0.00    +0.000 C 
ATOM     25  O   UNL     1       3.297  -3.201   0.000  0.00  0.00    +0.000 OA
BRANCH  24  26
ATOM     26  C   UNL     1       4.707  -3.433   0.000  0.00  0.00    +0.000 C 
ATOM     27  O   UNL     1       5.345  -3.956   0.000  0.00  0.00    +0.000 OA
BRANCH  26  28
ATOM     28  C   UNL     1       5.230  -2.795   0.000  0.00  0.00    +0.000 C 
BRANCH  28  29
ATOM     29  C   UNL     1       6.044  -2.929   0.000  0.00  0.00    +0.000 C 
ATOM     30  O   UNL     1       6.567  -2.291   0.000  0.00  0.00    +0.000 OA
BRANCH  29  32
ATOM     31  C   UNL     1       5.812  -4.338   0.000  0.00  0.00    +0.000 C 
ATOM     32  O   UNL     1       6.335  -3.700   0.000  0.00  0.00    +0.000 OA
ENDBRANCH  29  32
ENDBRANCH  28  29
ENDBRANCH  26  28
BRANCH  26  33
ATOM     33  C   UNL     1       4.184  -4.071   0.000  0.00  0.00    +0.000 C 
BRANCH  33  34
ATOM     34  C   UNL     1       3.369  -3.937   0.000  0.00  0.00    +0.000 C 
BRANCH  34  35
ATOM     35  C   UNL     1       2.846  -4.575   0.000  0.00  0.00    +0.000 C 
BRANCH  35  38
ATOM     36  C   UNL     1       1.218  -4.307   0.000  0.00  0.00    +0.000 C 
ATOM     37  C   UNL     1       1.899  -5.255   0.000  0.00  0.00    +0.000 C 
ATOM     38  C   UNL     1       2.032  -4.441   0.000  0.00  0.00    +0.000 C 
ATOM     39  O   UNL     1       2.166  -3.627   0.000  0.00  0.00    +0.000 OA
ENDBRANCH  35  38
ENDBRANCH  34  35
ENDBRANCH  33  34
ENDBRANCH  26  33
ENDBRANCH  24  26
ENDBRANCH  23  24
ENDBRANCH  16  23
TORSDOF 11
