REMARK  Name = 
REMARK  3 active torsions:
REMARK  status: ('A' for Active; 'I' for Inactive)
REMARK    1  A    between atoms: C5*_1  and  C4*_3
REMARK    2  A    between atoms: C_4  and  C_7
REMARK    3  A    between atoms: C1*_9  and  N_12
REMARK                            x       y       z     vdW  Elec       q    Type
REMARK                         _______ _______ _______ _____ _____    ______ ____
ROOT
ATOM      1  C4* UNL     1      -0.721   0.512   0.000  0.00  0.00    +0.000 C 
ATOM      2  C3* UNL     1      -0.053   0.027   0.000  0.00  0.00    +0.000 C 
ATOM      3  C2* UNL     1       0.614   0.512   0.000  0.00  0.00    +0.000 C 
ATOM      4  C1* UNL     1       0.359   1.297   0.000  0.00  0.00    +0.000 C 
ATOM      5  O3* UNL     1      -0.053  -0.798   0.000  0.00  0.00    +0.000 OA
ATOM      6  O2* UNL     1       1.399   0.257   0.000  0.00  0.00    +0.000 OA
ATOM      7  O4* UNL     1      -0.466   1.297   0.000  0.00  0.00    +0.000 OA
ENDROOT
BRANCH   4  12
ATOM      8  C   UNL     1       1.669   1.964   0.000  0.00  0.00    +0.000 A 
ATOM      9  C   UNL     1       1.256   3.234   0.000  0.00  0.00    +0.000 A 
ATOM     10  C   UNL     1       0.589   2.749   0.000  0.00  0.00    +0.000 A 
ATOM     11  N   UNL     1       1.924   2.749   0.000  0.00  0.00    +0.000 NA
ATOM     12  N   UNL     1       0.844   1.964   0.000  0.00  0.00    +0.000 N 
ATOM     13  O   UNL     1      -0.196   3.004   0.000  0.00  0.00    +0.000 OA
BRANCH   9  14
ATOM     14  C   UNL     1       1.256   4.059   0.000  0.00  0.00    +0.000 C 
ATOM     15  N   UNL     1       1.971   4.471   0.000  0.00  0.00    +0.000 NA
ATOM     16  O   UNL     1       0.542   4.471   0.000  0.00  0.00    +0.000 OA
ENDBRANCH   9  14
ENDBRANCH   4  12
BRANCH   1  17
ATOM     17  C5* UNL     1      -1.506   0.257   0.000  0.00  0.00    +0.000 C 
ATOM     18  O5* UNL     1      -1.677  -0.550   0.000  0.00  0.00    +0.000 OA
ENDBRANCH   1  17
TORSDOF 3
