REMARK  Name = 
REMARK  2 active torsions:
REMARK  status: ('A' for Active; 'I' for Inactive)
REMARK    1  A    between atoms: C_6  and  C_11
REMARK    2  A    between atoms: C_6  and  C_12
REMARK                            x       y       z     vdW  Elec       q    Type
REMARK                         _______ _______ _______ _____ _____    ______ ____
ROOT
ATOM      1  C   UNL     1       0.821   6.828   0.000  0.00  0.00    +0.000 C 
ATOM      2  C   UNL     1      -0.608   6.003   0.000  0.00  0.00    +0.000 C 
ATOM      3  C   UNL     1       1.536   4.765   0.000  0.00  0.00    +0.000 A 
ATOM      4  C   UNL     1       1.536   5.590   0.000  0.00  0.00    +0.000 A 
ATOM      5  C   UNL     1       0.821   4.353   0.000  0.00  0.00    +0.000 A 
ATOM      6  C   UNL     1       0.821   6.003   0.000  0.00  0.00    +0.000 A 
ATOM      7  C   UNL     1       0.107   5.590   0.000  0.00  0.00    +0.000 A 
ATOM      8  C   UNL     1       0.107   4.765   0.000  0.00  0.00    +0.000 A 
ENDROOT
BRANCH   8   9
ATOM      9  C   UNL     1      -0.608   4.353   0.000  0.00  0.00    +0.000 C 
BRANCH   9  12
ATOM     10  C   UNL     1       0.060   3.043   0.000  0.00  0.00    +0.000 A 
ATOM     11  C   UNL     1      -1.020   2.258   0.000  0.00  0.00    +0.000 A 
ATOM     12  C   UNL     1      -0.608   3.528   0.000  0.00  0.00    +0.000 A 
ATOM     13  N   UNL     1      -0.195   2.258   0.000  0.00  0.00    +0.000 NA
ATOM     14  N   UNL     1      -1.275   3.043   0.000  0.00  0.00    +0.000 NA
ENDBRANCH   9  12
ENDBRANCH   8   9
TORSDOF 2
