REMARK  Name = 
REMARK  4 active torsions:
REMARK  status: ('A' for Active; 'I' for Inactive)
REMARK    1  A    between atoms: C_12  and  C_13
REMARK    2  A    between atoms: C_12  and  N_19
REMARK    3  A    between atoms: C_13  and  O_21
REMARK    4  A    between atoms: N_20  and  O_21
REMARK                            x       y       z     vdW  Elec       q    Type
REMARK                         _______ _______ _______ _____ _____    ______ ____
ROOT
ATOM      1  C   UNL     1       0.462   6.058   0.000  0.00  0.00    +0.000 A 
ATOM      2  C   UNL     1      -1.858   2.039   0.000  0.00  0.00    +0.000 A 
ATOM      3  C   UNL     1       1.067   5.496   0.000  0.00  0.00    +0.000 A 
ATOM      4  C   UNL     1      -1.069   1.796   0.000  0.00  0.00    +0.000 A 
ATOM      5  C   UNL     1      -0.326   5.814   0.000  0.00  0.00    +0.000 A 
ATOM      6  C   UNL     1      -2.041   2.844   0.000  0.00  0.00    +0.000 A 
ATOM      7  C   UNL     1       0.883   4.692   0.000  0.00  0.00    +0.000 A 
ATOM      8  C   UNL     1      -0.465   2.357   0.000  0.00  0.00    +0.000 A 
ATOM      9  C   UNL     1      -1.326   4.887   0.000  0.00  0.00    +0.000 A 
ATOM     10  C   UNL     1      -1.738   4.173   0.000  0.00  0.00    +0.000 A 
ATOM     11  C   UNL     1      -0.510   5.010   0.000  0.00  0.00    +0.000 A 
ATOM     12  C   UNL     1      -1.437   3.405   0.000  0.00  0.00    +0.000 A 
ATOM     13  C   UNL     1       0.095   4.449   0.000  0.00  0.00    +0.000 A 
ATOM     14  C   UNL     1      -0.648   3.162   0.000  0.00  0.00    +0.000 A 
ATOM     15  C   UNL     1       0.033   3.626   0.000  0.00  0.00    +0.000 A 
ATOM     16  N   UNL     1       0.748   3.214   0.000  0.00  0.00    +0.000 NA
ENDROOT
BRANCH  16  17
ATOM     17  O   UNL     1       1.462   3.626   0.000  0.00  0.00    +0.000 OA
BRANCH  17  18
ATOM     18  C   UNL     1       2.177   3.214   0.000  0.00  0.00    +0.000 C 
BRANCH  18  19
ATOM     19  C   UNL     1       2.891   3.626   0.000  0.00  0.00    +0.000 C 
BRANCH  19  21
ATOM     20  C   UNL     1       4.320   3.626   0.000  0.00  0.00    +0.000 C 
ATOM     21  N   UNL     1       3.606   3.214   0.000  0.00  0.00    +0.000 NA
ENDBRANCH  19  21
ENDBRANCH  18  19
ENDBRANCH  17  18
ENDBRANCH  16  17
TORSDOF 4
