REMARK  Name = 
REMARK  4 active torsions:
REMARK  status: ('A' for Active; 'I' for Inactive)
REMARK    1  A    between atoms: C_1  and  N_2
REMARK    2  A    between atoms: C_7  and  C_13
REMARK    3  A    between atoms: C_13  and  O_16
REMARK    4  A    between atoms: O_16  and  P_18
REMARK                            x       y       z     vdW  Elec       q    Type
REMARK                         _______ _______ _______ _____ _____    ______ ____
ROOT
ATOM      1  C   UNL     1       0.495   0.120   0.000  0.00  0.00    +0.000 C 
ATOM      2  O   UNL     1      -0.148   0.591   0.000  0.00  0.00    +0.000 OA
ATOM      3  C   UNL     1       0.251  -0.688   0.000  0.00  0.00    +0.000 C 
ATOM      4  C   UNL     1      -0.822   0.100   0.000  0.00  0.00    +0.000 C 
ATOM      5  C   UNL     1      -0.574  -0.688   0.000  0.00  0.00    +0.000 C 
ATOM      6  O   UNL     1       0.736  -1.351   0.000  0.00  0.00    +0.000 OA
ATOM      7  O   UNL     1      -1.062  -1.347   0.000  0.00  0.00    +0.000 OA
ENDROOT
BRANCH   1   8
ATOM      8  N   UNL     1       1.282   0.378   0.000  0.00  0.00    +0.000 N 
ATOM      9  C   UNL     1       1.901  -0.172   0.000  0.00  0.00    +0.000 A 
ATOM     10  C   UNL     1       1.454   1.186   0.000  0.00  0.00    +0.000 A 
ATOM     11  N   UNL     1       2.692   0.089   0.000  0.00  0.00    +0.000 NA
ATOM     12  O   UNL     1       1.739  -0.976   0.000  0.00  0.00    +0.000 OA
ATOM     13  C   UNL     1       2.234   1.447   0.000  0.00  0.00    +0.000 A 
ATOM     14  C   UNL     1       2.860   0.897   0.000  0.00  0.00    +0.000 A 
ATOM     15  O   UNL     1       3.644   1.155   0.000  0.00  0.00    +0.000 OA
ENDBRANCH   1   8
BRANCH   4  16
ATOM     16  C   UNL     1      -1.605   0.354   0.000  0.00  0.00    +0.000 C 
BRANCH  16  17
ATOM     17  O   UNL     1      -2.190  -0.220   0.000  0.00  0.00    +0.000 OA
BRANCH  17  18
ATOM     18  P   UNL     1      -3.011  -0.220   0.000  0.00  0.00    +0.000 P 
ATOM     19  O   UNL     1      -3.018  -1.042   0.000  0.00  0.00    +0.000 OA
ATOM     20  O   UNL     1      -3.836  -0.220   0.000  0.00  0.00    +0.000 OA
ATOM     21  O   UNL     1      -3.018   0.602   0.000  0.00  0.00    +0.000 OA
ENDBRANCH  17  18
ENDBRANCH  16  17
ENDBRANCH   4  16
TORSDOF 4
