REMARK  Name = 
REMARK  6 active torsions:
REMARK  status: ('A' for Active; 'I' for Inactive)
REMARK    1  A    between atoms: N_4  and  CA_5
REMARK    2  A    between atoms: CA_5  and  C_6
REMARK    3  A    between atoms: CA_5  and  C_13
REMARK    4  A    between atoms: C_6  and  C_7
REMARK    5  A    between atoms: C_7  and  C_8
REMARK    6  A    between atoms: C_8  and  N_9
REMARK                            x       y       z     vdW  Elec       q    Type
REMARK                         _______ _______ _______ _____ _____    ______ ____
ROOT
ATOM      1  CA  UNL     1       4.427   2.556   0.000  0.00  0.00    +0.000 C 
ENDROOT
BRANCH   1   5
ATOM      2  C   UNL     1       2.284   2.143   0.000  0.00  0.00    +0.000 C 
ATOM      3  C   UNL     1       2.998   2.556   0.000  0.00  0.00    +0.000 C 
ATOM      4  O   UNL     1       2.998   3.381   0.000  0.00  0.00    +0.000 OA
ATOM      5  N   UNL     1       3.712   2.143   0.000  0.00  0.00    +0.000 NA
ENDBRANCH   1   5
BRANCH   1   6
ATOM      6  C   UNL     1       4.427   3.381   0.000  0.00  0.00    +0.000 C 
ATOM      7  O   UNL     1       5.141   3.793   0.000  0.00  0.00    +0.000 OA
ATOM      8  OXT UNL     1       3.712   3.793   0.000  0.00  0.00    +0.000 OA
ENDBRANCH   1   6
BRANCH   1   9
ATOM      9  C   UNL     1       5.141   2.143   0.000  0.00  0.00    +0.000 C 
BRANCH   9  10
ATOM     10  C   UNL     1       5.856   2.556   0.000  0.00  0.00    +0.000 C 
BRANCH  10  11
ATOM     11  C   UNL     1       6.570   2.143   0.000  0.00  0.00    +0.000 C 
BRANCH  11  12
ATOM     12  N   UNL     1       7.285   2.556   0.000  0.00  0.00    +0.000 NA
ATOM     13  C   UNL     1       7.999   2.143   0.000  0.00  0.00    +0.000 C 
ATOM     14  N   UNL     1       8.714   2.556   0.000  0.00  0.00    +0.000 NA
ATOM     15  O   UNL     1       7.999   1.318   0.000  0.00  0.00    +0.000 OA
ENDBRANCH  11  12
ENDBRANCH  10  11
ENDBRANCH   9  10
ENDBRANCH   1   9
TORSDOF 6
