REMARK  Name = 
REMARK  4 active torsions:
REMARK  status: ('A' for Active; 'I' for Inactive)
REMARK    1  A    between atoms: N_6  and  C1*_11
REMARK    2  A    between atoms: N_7  and  C_16
REMARK    3  A    between atoms: N_7  and  C_22
REMARK    4  A    between atoms: C4*_14  and  C5*_15
REMARK                            x       y       z     vdW  Elec       q    Type
REMARK                         _______ _______ _______ _____ _____    ______ ____
ROOT
ATOM      1  N   UNL     1       5.165   0.217   0.000  0.00  0.00    +0.000 N 
ATOM      2  N   UNL     1       5.165  -1.111   0.000  0.00  0.00    +0.000 NA
ATOM      3  N   UNL     1       3.670   0.379   0.000  0.00  0.00    +0.000 NA
ATOM      4  N   UNL     1       2.956  -0.859   0.000  0.00  0.00    +0.000 NA
ATOM      5  C   UNL     1       4.385  -0.034   0.000  0.00  0.00    +0.000 A 
ATOM      6  C   UNL     1       4.385  -0.859   0.000  0.00  0.00    +0.000 A 
ATOM      7  C   UNL     1       5.647  -0.447   0.000  0.00  0.00    +0.000 A 
ATOM      8  C   UNL     1       3.670  -1.272   0.000  0.00  0.00    +0.000 A 
ATOM      9  C   UNL     1       2.956  -0.034   0.000  0.00  0.00    +0.000 A 
ENDROOT
BRANCH   1  13
ATOM     10  O4* UNL     1       6.207   1.255   0.000  0.00  0.00    +0.000 OA
ATOM     11  O2* UNL     1       4.113   1.671   0.000  0.00  0.00    +0.000 OA
ATOM     12  O3* UNL     1       5.170   3.122   0.000  0.00  0.00    +0.000 OA
ATOM     13  C1* UNL     1       5.422   1.002   0.000  0.00  0.00    +0.000 C 
ATOM     14  C2* UNL     1       4.938   1.670   0.000  0.00  0.00    +0.000 C 
ATOM     15  C3* UNL     1       5.424   2.337   0.000  0.00  0.00    +0.000 C 
ATOM     16  C4* UNL     1       6.208   2.080   0.000  0.00  0.00    +0.000 C 
BRANCH  16  18
ATOM     17  O5* UNL     1       7.630   2.227   0.000  0.00  0.00    +0.000 OA
ATOM     18  C5* UNL     1       6.877   2.564   0.000  0.00  0.00    +0.000 C 
ENDBRANCH  16  18
ENDBRANCH   1  13
BRANCH   8  19
ATOM     19  N   UNL     1       3.670  -2.096   0.000  0.00  0.00    +0.000 NA
BRANCH  19  21
ATOM     20  O   UNL     1       1.650  -2.787   0.000  0.00  0.00    +0.000 OA
ATOM     21  C   UNL     1       2.956  -2.509   0.000  0.00  0.00    +0.000 C 
ATOM     22  C   UNL     1       2.869  -3.330   0.000  0.00  0.00    +0.000 C 
ATOM     23  C   UNL     1       2.202  -2.174   0.000  0.00  0.00    +0.000 C 
ATOM     24  C   UNL     1       2.062  -3.501   0.000  0.00  0.00    +0.000 C 
ENDBRANCH  19  21
ENDBRANCH   8  19
TORSDOF 4
