REMARK  Name = 
REMARK  5 active torsions:
REMARK  status: ('A' for Active; 'I' for Inactive)
REMARK    1  A    between atoms: C_2  and  C_3
REMARK    2  A    between atoms: C_4  and  C_5
REMARK    3  A    between atoms: C_5  and  C_7
REMARK    4  A    between atoms: C_20  and  S_23
REMARK    5  A    between atoms: S_23  and  N_26
REMARK                            x       y       z     vdW  Elec       q    Type
REMARK                         _______ _______ _______ _____ _____    ______ ____
ROOT
ATOM      1  C   UNL     1      -0.628  -0.698   0.000  0.00  0.00    +0.000 A 
ATOM      2  C   UNL     1      -0.143  -1.365   0.000  0.00  0.00    +0.000 A 
ATOM      3  C   UNL     1       0.641  -1.110   0.000  0.00  0.00    +0.000 A 
ATOM      4  C   UNL     1       0.641  -0.285   0.000  0.00  0.00    +0.000 A 
ATOM      5  O   UNL     1      -0.143  -0.030   0.000  0.00  0.00    +0.000 OA
ATOM      6  C   UNL     1       1.356   0.127   0.000  0.00  0.00    +0.000 A 
ATOM      7  C   UNL     1       2.070  -0.285   0.000  0.00  0.00    +0.000 A 
ATOM      8  C   UNL     1       2.070  -1.110   0.000  0.00  0.00    +0.000 A 
ATOM      9  C   UNL     1       1.356  -1.523   0.000  0.00  0.00    +0.000 A 
ENDROOT
BRANCH   7  10
ATOM     10  S   UNL     1       2.784   0.127   0.000  0.00  0.00    +0.000 S 
ATOM     11  O   UNL     1       3.197  -0.587   0.000  0.00  0.00    +0.000 OA
ATOM     12  O   UNL     1       2.372   0.842   0.000  0.00  0.00    +0.000 OA
BRANCH  10  13
ATOM     13  N   UNL     1       3.499   0.540   0.000  0.00  0.00    +0.000 NA
ATOM     14  C   UNL     1       3.499   1.365   0.000  0.00  0.00    +0.000 C 
ATOM     15  C   UNL     1       4.213   0.127   0.000  0.00  0.00    +0.000 C 
ENDBRANCH  10  13
ENDBRANCH   7  10
BRANCH   1  17
ATOM     16  C   UNL     1      -1.866   0.017   0.000  0.00  0.00    +0.000 C 
ATOM     17  C   UNL     1      -1.453  -0.698   0.000  0.00  0.00    +0.000 C 
ENDBRANCH   1  17
BRANCH   2  18
ATOM     18  C   UNL     1      -0.398  -2.150   0.000  0.00  0.00    +0.000 C 
ATOM     19  O   UNL     1       0.154  -2.763   0.000  0.00  0.00    +0.000 OA
BRANCH  18  20
ATOM     20  C   UNL     1      -1.205  -2.321   0.000  0.00  0.00    +0.000 A 
ATOM     21  C   UNL     1      -1.460  -3.106   0.000  0.00  0.00    +0.000 A 
ATOM     22  C   UNL     1      -2.267  -3.278   0.000  0.00  0.00    +0.000 A 
ATOM     23 BR   UNL     1      -2.522  -4.062   0.000  0.00  0.00    +0.000 Br
ATOM     24  C   UNL     1      -2.819  -2.665   0.000  0.00  0.00    +0.000 A 
ATOM     25  O   UNL     1      -3.626  -2.836   0.000  0.00  0.00    +0.000 OA
ATOM     26  C   UNL     1      -2.564  -1.880   0.000  0.00  0.00    +0.000 A 
ATOM     27 BR   UNL     1      -3.116  -1.267   0.000  0.00  0.00    +0.000 Br
ATOM     28  C   UNL     1      -1.758  -1.708   0.000  0.00  0.00    +0.000 A 
ENDBRANCH  18  20
ENDBRANCH   2  18
TORSDOF 5
