REMARK  Name = 
REMARK  3 active torsions:
REMARK  status: ('A' for Active; 'I' for Inactive)
REMARK    1  A    between atoms: C_12  and  N_26
REMARK    2  A    between atoms: C_13  and  N_30
REMARK    3  A    between atoms: C_18  and  N_28
REMARK                            x       y       z     vdW  Elec       q    Type
REMARK                         _______ _______ _______ _____ _____    ______ ____
ROOT
ATOM      1  C   UNL     1       2.638   0.127   0.000  0.00  0.00    +0.000 A 
ATOM      2  C   UNL     1       1.923  -0.285   0.000  0.00  0.00    +0.000 A 
ATOM      3  C   UNL     1       1.923  -1.110   0.000  0.00  0.00    +0.000 A 
ATOM      4  C   UNL     1       3.352  -1.110   0.000  0.00  0.00    +0.000 A 
ATOM      5  C   UNL     1       0.654  -0.698   0.000  0.00  0.00    +0.000 A 
ATOM      6  N   UNL     1       3.352  -0.285   0.000  0.00  0.00    +0.000 NA
ATOM      7  N   UNL     1       4.067  -1.523   0.000  0.00  0.00    +0.000 NA
ATOM      8  N   UNL     1       1.139  -0.030   0.000  0.00  0.00    +0.000 NA
ATOM      9  N   UNL     1      -0.171  -0.698   0.000  0.00  0.00    +0.000 NA
ATOM     10  N   UNL     1       2.638  -1.523   0.000  0.00  0.00    +0.000 NA
ATOM     11  N   UNL     1       1.139  -1.365   0.000  0.00  0.00    +0.000 N 
ENDROOT
BRANCH   9  17
ATOM     12  C   UNL     1      -0.584   1.446   0.000  0.00  0.00    +0.000 A 
ATOM     13  C   UNL     1      -1.821   0.731   0.000  0.00  0.00    +0.000 A 
ATOM     14  C   UNL     1      -1.409   1.446   0.000  0.00  0.00    +0.000 A 
ATOM     15  C   UNL     1      -0.171   0.731   0.000  0.00  0.00    +0.000 A 
ATOM     16  C   UNL     1      -1.409   0.017   0.000  0.00  0.00    +0.000 A 
ATOM     17  C   UNL     1      -0.584   0.017   0.000  0.00  0.00    +0.000 A 
ATOM     18  F   UNL     1      -1.821   2.160   0.000  0.00  0.00    +0.000 F 
ATOM     19  F   UNL     1       0.654   0.731   0.000  0.00  0.00    +0.000 F 
ATOM     20  F   UNL     1      -1.821  -0.698   0.000  0.00  0.00    +0.000 F 
ENDBRANCH   9  17
BRANCH   7  25
ATOM     21  C   UNL     1       5.496  -1.523   0.000  0.00  0.00    +0.000 C 
ATOM     22  C   UNL     1       4.781  -0.285   0.000  0.00  0.00    +0.000 C 
ATOM     23  C   UNL     1       6.210  -1.110   0.000  0.00  0.00    +0.000 C 
ATOM     24  C   UNL     1       5.496   0.127   0.000  0.00  0.00    +0.000 C 
ATOM     25  C   UNL     1       4.781  -1.110   0.000  0.00  0.00    +0.000 C 
ATOM     26  C   UNL     1       6.210  -0.285   0.000  0.00  0.00    +0.000 C 
ATOM     27  O   UNL     1       6.925   0.127   0.000  0.00  0.00    +0.000 OA
ENDBRANCH   7  25
BRANCH  11  31
ATOM     28  C   UNL     1       0.099  -2.405   0.000  0.00  0.00    +0.000 C 
ATOM     29  C   UNL     1       0.099  -3.230   0.000  0.00  0.00    +0.000 C 
ATOM     30  C   UNL     1       1.369  -2.817   0.000  0.00  0.00    +0.000 C 
ATOM     31  C   UNL     1       0.884  -2.150   0.000  0.00  0.00    +0.000 C 
ATOM     32  O   UNL     1       0.884  -3.485   0.000  0.00  0.00    +0.000 OA
ENDBRANCH  11  31
TORSDOF 3
