REMARK  Name = 
REMARK  3 active torsions:
REMARK  status: ('A' for Active; 'I' for Inactive)
REMARK    1  A    between atoms: C_3  and  C_16
REMARK    2  A    between atoms: C_12  and  C_13
REMARK    3  A    between atoms: C_19  and  C_22
REMARK                            x       y       z     vdW  Elec       q    Type
REMARK                         _______ _______ _______ _____ _____    ______ ____
ROOT
ATOM      1  C   UNL     1       0.000  -1.650   0.000  0.00  0.00    +0.000 C 
ATOM      2  C   UNL     1       0.715  -1.238   0.000  0.00  0.00    +0.000 A 
ATOM      3  C   UNL     1       0.715  -0.412   0.000  0.00  0.00    +0.000 A 
ATOM      4  N   UNL     1       1.429   0.000   0.000  0.00  0.00    +0.000 NA
ATOM      5  C   UNL     1       2.143  -0.412   0.000  0.00  0.00    +0.000 A 
ATOM      6  C   UNL     1       2.858   0.000   0.000  0.00  0.00    +0.000 A 
ATOM      7  C   UNL     1       3.572  -0.412   0.000  0.00  0.00    +0.000 A 
ATOM      8  C   UNL     1       3.572  -1.238   0.000  0.00  0.00    +0.000 A 
ATOM      9  F   UNL     1       4.287  -1.650   0.000  0.00  0.00    +0.000 F 
ATOM     10  C   UNL     1       2.858  -1.650   0.000  0.00  0.00    +0.000 A 
ATOM     11  C   UNL     1       2.143  -1.238   0.000  0.00  0.00    +0.000 A 
ATOM     12  C   UNL     1       1.429  -1.650   0.000  0.00  0.00    +0.000 A 
ENDROOT
BRANCH   3  13
ATOM     13  C   UNL     1       0.000   0.000   0.000  0.00  0.00    +0.000 A 
ATOM     14  C   UNL     1      -0.715  -0.412   0.000  0.00  0.00    +0.000 A 
ATOM     15  C   UNL     1      -1.429   0.000   0.000  0.00  0.00    +0.000 A 
ATOM     16  C   UNL     1      -1.429   0.825   0.000  0.00  0.00    +0.000 A 
ATOM     17  C   UNL     1      -0.715   1.238   0.000  0.00  0.00    +0.000 A 
ATOM     18  C   UNL     1       0.000   0.825   0.000  0.00  0.00    +0.000 A 
BRANCH  16  19
ATOM     19  C   UNL     1      -2.143   1.238   0.000  0.00  0.00    +0.000 A 
ATOM     20  C   UNL     1      -2.858   0.825   0.000  0.00  0.00    +0.000 A 
ATOM     21  C   UNL     1      -3.572   1.238   0.000  0.00  0.00    +0.000 A 
ATOM     22  C   UNL     1      -3.572   2.062   0.000  0.00  0.00    +0.000 A 
ATOM     23  C   UNL     1      -2.858   2.475   0.000  0.00  0.00    +0.000 A 
ATOM     24  C   UNL     1      -2.143   2.062   0.000  0.00  0.00    +0.000 A 
ATOM     25  F   UNL     1      -1.429   2.475   0.000  0.00  0.00    +0.000 F 
ENDBRANCH  16  19
ENDBRANCH   3  13
BRANCH  12  26
ATOM     26  C   UNL     1       1.429  -2.475   0.000  0.00  0.00    +0.000 C 
ATOM     27  O   UNL     1       0.715  -2.888   0.000  0.00  0.00    +0.000 OA
ATOM     28  O   UNL     1       2.143  -2.888   0.000  0.00  0.00    +0.000 OA
ENDBRANCH  12  26
TORSDOF 3
