REMARK  Name = 
REMARK  7 active torsions:
REMARK  status: ('A' for Active; 'I' for Inactive)
REMARK    1  A    between atoms: C_3  and  C_13
REMARK    2  A    between atoms: C_3  and  C_17
REMARK    3  A    between atoms: C_5  and  N_21
REMARK    4  A    between atoms: C_8  and  C_16
REMARK    5  A    between atoms: N_21  and  S_22
REMARK    6  A    between atoms: S_22  and  C_25
REMARK    7  A    between atoms: C_25  and  C_26
REMARK                            x       y       z     vdW  Elec       q    Type
REMARK                         _______ _______ _______ _____ _____    ______ ____
ROOT
ATOM      1  C   UNL     1      11.058 -10.917   0.000  0.00  0.00    +0.000 C 
ATOM      2  O   UNL     1      10.506 -10.304   0.000  0.00  0.00    +0.000 OA
ENDROOT
BRANCH   1   9
ATOM      3  C   UNL     1      11.288 -12.369   0.000  0.00  0.00    +0.000 A 
ATOM      4  C   UNL     1       8.589 -11.957   0.000  0.00  0.00    +0.000 A 
ATOM      5  C   UNL     1       8.589 -12.782   0.000  0.00  0.00    +0.000 A 
ATOM      6  N   UNL     1       9.304 -13.194   0.000  0.00  0.00    +0.000 NA
ATOM      7  C   UNL     1       9.304 -11.544   0.000  0.00  0.00    +0.000 A 
ATOM      8  N   UNL     1      10.803 -13.037   0.000  0.00  0.00    +0.000 NA
ATOM      9  C   UNL     1      10.803 -11.702   0.000  0.00  0.00    +0.000 A 
ATOM     10  C   UNL     1      10.018 -11.957   0.000  0.00  0.00    +0.000 A 
ATOM     11  C   UNL     1      10.018 -12.782   0.000  0.00  0.00    +0.000 A 
BRANCH   4  13
ATOM     12  C   UNL     1       6.446 -10.719   0.000  0.00  0.00    +0.000 A 
ATOM     13  C   UNL     1       7.875 -11.544   0.000  0.00  0.00    +0.000 A 
ATOM     14  C   UNL     1       7.875 -10.719   0.000  0.00  0.00    +0.000 A 
ATOM     15  C   UNL     1       7.160 -10.307   0.000  0.00  0.00    +0.000 A 
ATOM     16  C   UNL     1       6.446 -11.544   0.000  0.00  0.00    +0.000 A 
ATOM     17  C   UNL     1       7.160 -11.957   0.000  0.00  0.00    +0.000 A 
ATOM     18 CL   UNL     1       5.731 -10.307   0.000  0.00  0.00    +0.000 Cl
ENDBRANCH   4  13
ENDBRANCH   1   9
BRANCH   1  23
ATOM     19  C   UNL     1      12.417 -11.359   0.000  0.00  0.00    +0.000 A 
ATOM     20  C   UNL     1      13.224 -11.188   0.000  0.00  0.00    +0.000 A 
ATOM     21  C   UNL     1      13.479 -10.403   0.000  0.00  0.00    +0.000 A 
ATOM     22  C   UNL     1      12.120  -9.961   0.000  0.00  0.00    +0.000 A 
ATOM     23  C   UNL     1      11.865 -10.746   0.000  0.00  0.00    +0.000 A 
ATOM     24  C   UNL     1      12.927  -9.790   0.000  0.00  0.00    +0.000 A 
ATOM     25  F   UNL     1      11.568  -9.348   0.000  0.00  0.00    +0.000 F 
ATOM     26  F   UNL     1      12.162 -12.144   0.000  0.00  0.00    +0.000 F 
BRANCH  20  27
ATOM     27  N   UNL     1      13.776 -11.800   0.000  0.00  0.00    +0.000 NA
BRANCH  27  28
ATOM     28  S   UNL     1      14.583 -11.629   0.000  0.00  0.00    +0.000 S 
ATOM     29  O   UNL     1      14.754 -12.436   0.000  0.00  0.00    +0.000 OA
ATOM     30  O   UNL     1      14.411 -10.822   0.000  0.00  0.00    +0.000 OA
BRANCH  28  31
ATOM     31  C   UNL     1      15.390 -11.457   0.000  0.00  0.00    +0.000 C 
BRANCH  31  32
ATOM     32  C   UNL     1      15.942 -12.071   0.000  0.00  0.00    +0.000 C 
ATOM     33  C   UNL     1      16.749 -11.899   0.000  0.00  0.00    +0.000 C 
ENDBRANCH  31  32
ENDBRANCH  28  31
ENDBRANCH  27  28
ENDBRANCH  20  27
ENDBRANCH   1  23
TORSDOF 7
