REMARK  Name = 
REMARK  1 active torsions:
REMARK  status: ('A' for Active; 'I' for Inactive)
REMARK    1  A    between atoms: C_7  and  C_8
REMARK                            x       y       z     vdW  Elec       q    Type
REMARK                         _______ _______ _______ _____ _____    ______ ____
ROOT
ATOM      1  C   UNL     1       3.631   0.658   0.000  0.00  0.00    +0.000 C 
ATOM      2  N   UNL     1       4.436   0.474   0.000  0.00  0.00    +0.000 NA
ATOM      3  C   UNL     1       4.794  -0.269   0.000  0.00  0.00    +0.000 C 
ATOM      4  O   UNL     1       5.619  -0.269   0.000  0.00  0.00    +0.000 OA
ATOM      5  C   UNL     1       4.436  -1.012   0.000  0.00  0.00    +0.000 C 
ATOM      6  O   UNL     1       4.950  -1.657   0.000  0.00  0.00    +0.000 OA
ATOM      7  N   UNL     1       3.631  -1.196   0.000  0.00  0.00    +0.000 N 
ATOM      8  C   UNL     1       2.986  -0.682   0.000  0.00  0.00    +0.000 A 
ATOM      9  C   UNL     1       2.986   0.143   0.000  0.00  0.00    +0.000 A 
ATOM     10  C   UNL     1       2.272   0.556   0.000  0.00  0.00    +0.000 A 
ATOM     11  C   UNL     1       1.558   0.143   0.000  0.00  0.00    +0.000 A 
ATOM     12 CL   UNL     1       0.843   0.556   0.000  0.00  0.00    +0.000 Cl
ATOM     13  C   UNL     1       1.558  -0.682   0.000  0.00  0.00    +0.000 A 
ATOM     14  C   UNL     1       2.272  -1.094   0.000  0.00  0.00    +0.000 A 
ATOM     15  C   UNL     1       3.448  -2.000   0.000  0.00  0.00    +0.000 C 
ENDROOT
BRANCH   1  22
ATOM     16 CL   UNL     1       2.055   1.144   0.000  0.00  0.00    +0.000 Cl
ATOM     17  C   UNL     1       2.660   1.705   0.000  0.00  0.00    +0.000 A 
ATOM     18  C   UNL     1       2.476   2.510   0.000  0.00  0.00    +0.000 A 
ATOM     19  C   UNL     1       3.081   3.071   0.000  0.00  0.00    +0.000 A 
ATOM     20  C   UNL     1       3.869   2.828   0.000  0.00  0.00    +0.000 A 
ATOM     21  C   UNL     1       4.053   2.023   0.000  0.00  0.00    +0.000 A 
ATOM     22  C   UNL     1       3.448   1.462   0.000  0.00  0.00    +0.000 A 
ENDBRANCH   1  22
TORSDOF 1
