REMARK  Name = 
REMARK  3 active torsions:
REMARK  status: ('A' for Active; 'I' for Inactive)
REMARK    1  A    between atoms: C_5  and  C_6
REMARK    2  A    between atoms: C_5  and  C_12
REMARK    3  A    between atoms: C_6  and  C_13
REMARK                            x       y       z     vdW  Elec       q    Type
REMARK                         _______ _______ _______ _____ _____    ______ ____
ROOT
ATOM      1  C   UNL     1       3.352   1.110   0.000  0.00  0.00    +0.000 A 
ATOM      2  C   UNL     1       3.352   1.935   0.000  0.00  0.00    +0.000 A 
ATOM      3  C   UNL     1       2.638   0.698   0.000  0.00  0.00    +0.000 A 
ATOM      4  C   UNL     1       2.638   2.348   0.000  0.00  0.00    +0.000 A 
ATOM      5  C   UNL     1       0.654   1.523   0.000  0.00  0.00    +0.000 A 
ATOM      6  C   UNL     1       1.139   0.856   0.000  0.00  0.00    +0.000 A 
ATOM      7  C   UNL     1       1.923   1.110   0.000  0.00  0.00    +0.000 A 
ATOM      8  C   UNL     1       1.923   1.935   0.000  0.00  0.00    +0.000 A 
ATOM      9  N   UNL     1       1.139   2.190   0.000  0.00  0.00    +0.000 NA
ENDROOT
BRANCH   6  10
ATOM     10  C   UNL     1       0.884   0.071   0.000  0.00  0.00    +0.000 C 
BRANCH  10  11
ATOM     11  C   UNL     1       0.077  -0.101   0.000  0.00  0.00    +0.000 C 
BRANCH  11  16
ATOM     12  C   UNL     1      -0.985  -1.057   0.000  0.00  0.00    +0.000 C 
ATOM     13  C   UNL     1       0.374  -1.498   0.000  0.00  0.00    +0.000 C 
ATOM     14  C   UNL     1      -1.240  -1.841   0.000  0.00  0.00    +0.000 C 
ATOM     15  C   UNL     1       0.119  -2.283   0.000  0.00  0.00    +0.000 C 
ATOM     16  C   UNL     1      -0.178  -0.885   0.000  0.00  0.00    +0.000 C 
ATOM     17  N   UNL     1      -0.688  -2.454   0.000  0.00  0.00    +0.000 NA
ENDBRANCH  11  16
ENDBRANCH  10  11
ENDBRANCH   6  10
TORSDOF 3
