REMARK  Name = 
REMARK  3 active torsions:
REMARK  status: ('A' for Active; 'I' for Inactive)
REMARK    1  A    between atoms: P_1  and  O_2
REMARK    2  A    between atoms: O_2  and  C_6
REMARK    3  A    between atoms: C_6  and  C_7
REMARK                            x       y       z     vdW  Elec       q    Type
REMARK                         _______ _______ _______ _____ _____    ______ ____
ROOT
ATOM      1  C   UNL     1       0.212   0.389   0.000  0.00  0.00    +0.000 C 
ATOM      2  C   UNL     1       0.212  -0.442   0.000  0.00  0.00    +0.000 C 
ATOM      3  O   UNL     1       0.922   0.801   0.000  0.00  0.00    +0.000 OA
ATOM      4  C   UNL     1       0.922  -0.862   0.000  0.00  0.00    +0.000 C 
ATOM      5  O   UNL     1      -0.502  -0.850   0.000  0.00  0.00    +0.000 OA
ATOM      6  C   UNL     1       1.644   0.389   0.000  0.00  0.00    +0.000 C 
ATOM      7  C   UNL     1       1.644  -0.442   0.000  0.00  0.00    +0.000 C 
ATOM      8  O   UNL     1       0.922  -1.685   0.000  0.00  0.00    +0.000 OA
ATOM      9  O   UNL     1       2.354   0.801   0.000  0.00  0.00    +0.000 OA
ATOM     10  N   UNL     1       2.354  -0.850   0.000  0.00  0.00    +0.000 NA
ENDROOT
BRANCH   1  11
ATOM     11  C   UNL     1      -0.502   0.801   0.000  0.00  0.00    +0.000 C 
BRANCH  11  12
ATOM     12  O   UNL     1      -1.213   0.389   0.000  0.00  0.00    +0.000 OA
BRANCH  12  13
ATOM     13  P   UNL     1      -2.037   0.389   0.000  0.00  0.00    +0.000 P 
ATOM     14  O   UNL     1      -2.857   0.389   0.000  0.00  0.00    +0.000 OA
ATOM     15  O   UNL     1      -2.037   1.213   0.000  0.00  0.00    +0.000 OA
ATOM     16  O   UNL     1      -2.037  -0.431   0.000  0.00  0.00    +0.000 OA
ENDBRANCH  12  13
ENDBRANCH  11  12
ENDBRANCH   1  11
TORSDOF 3
