REMARK  Name = 
REMARK  6 active torsions:
REMARK  status: ('A' for Active; 'I' for Inactive)
REMARK    1  A    between atoms: C_11  and  C_17
REMARK    2  A    between atoms: C_11  and  C_22
REMARK    3  A    between atoms: C_18  and  C_20
REMARK    4  A    between atoms: C_24  and  S_37
REMARK    5  A    between atoms: C_25  and  C_26
REMARK    6  A    between atoms: N_32  and  S_37
REMARK                            x       y       z     vdW  Elec       q    Type
REMARK                         _______ _______ _______ _____ _____    ______ ____
ROOT
ATOM      1  C   UNL     1      -0.768   1.127   0.000  0.00  0.00    +0.000 C 
ATOM      2  C   UNL     1      -1.593   1.127   0.000  0.00  0.00    +0.000 C 
ATOM      3  C   UNL     1      -0.768  -0.302   0.000  0.00  0.00    +0.000 C 
ATOM      4  C   UNL     1      -1.593  -0.302   0.000  0.00  0.00    +0.000 C 
ATOM      5  C   UNL     1      -2.830   0.412   0.000  0.00  0.00    +0.000 C 
ATOM      6  N   UNL     1      -0.355   0.412   0.000  0.00  0.00    +0.000 NA
ATOM      7  N   UNL     1      -2.005   0.412   0.000  0.00  0.00    +0.000 N 
ATOM      8  O   UNL     1      -3.243   1.127   0.000  0.00  0.00    +0.000 OA
ENDROOT
BRANCH   5  12
ATOM      9  C   UNL     1      -4.480  -1.016   0.000  0.00  0.00    +0.000 A 
ATOM     10  C   UNL     1      -3.243  -1.731   0.000  0.00  0.00    +0.000 A 
ATOM     11  C   UNL     1      -4.068  -1.731   0.000  0.00  0.00    +0.000 A 
ATOM     12  C   UNL     1      -3.243  -0.302   0.000  0.00  0.00    +0.000 A 
ATOM     13  N   UNL     1      -4.068  -0.302   0.000  0.00  0.00    +0.000 NA
ATOM     14  N   UNL     1      -2.830  -1.016   0.000  0.00  0.00    +0.000 NA
BRANCH  11  19
ATOM     15  C   UNL     1      -5.305  -2.445   0.000  0.00  0.00    +0.000 A 
ATOM     16  C   UNL     1      -4.068  -3.160   0.000  0.00  0.00    +0.000 A 
ATOM     17  C   UNL     1      -5.718  -3.160   0.000  0.00  0.00    +0.000 A 
ATOM     18  C   UNL     1      -4.480  -3.874   0.000  0.00  0.00    +0.000 A 
ATOM     19  C   UNL     1      -4.480  -2.445   0.000  0.00  0.00    +0.000 A 
ATOM     20  N   UNL     1      -5.305  -3.874   0.000  0.00  0.00    +0.000 NA
ENDBRANCH  11  19
ENDBRANCH   5  12
BRANCH   6  23
ATOM     21  O   UNL     1       0.470   1.238   0.000  0.00  0.00    +0.000 OA
ATOM     22  O   UNL     1       0.470  -0.412   0.000  0.00  0.00    +0.000 OA
ATOM     23  S   UNL     1       0.470   0.412   0.000  0.00  0.00    +0.000 S 
BRANCH  23  31
ATOM     24  C   UNL     1       3.993   0.825   0.000  0.00  0.00    +0.000 A 
ATOM     25  C   UNL     1       3.279   1.238   0.000  0.00  0.00    +0.000 A 
ATOM     26  C   UNL     1       3.279  -0.412   0.000  0.00  0.00    +0.000 A 
ATOM     27  C   UNL     1       1.780  -0.255   0.000  0.00  0.00    +0.000 A 
ATOM     28  C   UNL     1       2.564   0.000   0.000  0.00  0.00    +0.000 A 
ATOM     29  C   UNL     1       3.993   0.000   0.000  0.00  0.00    +0.000 A 
ATOM     30  C   UNL     1       2.564   0.825   0.000  0.00  0.00    +0.000 A 
ATOM     31  C   UNL     1       1.295   0.412   0.000  0.00  0.00    +0.000 A 
ATOM     32 CL   UNL     1       4.708  -0.412   0.000  0.00  0.00    +0.000 Cl
ATOM     33  N   UNL     1       1.780   1.080   0.000  0.00  0.00    +0.000 NA
ENDBRANCH  23  31
ENDBRANCH   6  23
BRANCH   4  34
ATOM     34  C   UNL     1      -2.005  -1.016   0.000  0.00  0.00    +0.000 C 
BRANCH  34  37
ATOM     35  C   UNL     1      -0.768  -1.731   0.000  0.00  0.00    +0.000 C 
ATOM     36  C   UNL     1      -2.005  -2.445   0.000  0.00  0.00    +0.000 C 
ATOM     37  C   UNL     1      -1.593  -1.731   0.000  0.00  0.00    +0.000 C 
ENDBRANCH  34  37
ENDBRANCH   4  34
TORSDOF 6
