REMARK  Name = 
REMARK  4 active torsions:
REMARK  status: ('A' for Active; 'I' for Inactive)
REMARK    1  A    between atoms: C_1  and  C_2
REMARK    2  A    between atoms: C_7  and  C_13
REMARK    3  A    between atoms: C_13  and  O_16
REMARK    4  A    between atoms: O_16  and  P_18
REMARK                            x       y       z     vdW  Elec       q    Type
REMARK                         _______ _______ _______ _____ _____    ______ ____
ROOT
ATOM      1  C   UNL     1       0.712  -1.033   0.000  0.00  0.00    +0.000 C 
ATOM      2  O   UNL     1       0.038  -0.541   0.000  0.00  0.00    +0.000 OA
ATOM      3  C   UNL     1       0.469  -1.809   0.000  0.00  0.00    +0.000 C 
ATOM      4  C   UNL     1      -0.621  -1.022   0.000  0.00  0.00    +0.000 C 
ATOM      5  C   UNL     1      -0.356  -1.809   0.000  0.00  0.00    +0.000 C 
ATOM      6  O   UNL     1       0.954  -2.471   0.000  0.00  0.00    +0.000 OA
ATOM      7  O   UNL     1      -0.836  -2.479   0.000  0.00  0.00    +0.000 OA
ENDROOT
BRANCH   1   8
ATOM      8  C   UNL     1       1.453   0.530   0.000  0.00  0.00    +0.000 A 
ATOM      9  C   UNL     1       2.176   0.954   0.000  0.00  0.00    +0.000 A 
ATOM     10  C   UNL     1       0.742   0.954   0.000  0.00  0.00    +0.000 A 
ATOM     11  N   UNL     1       2.176   1.786   0.000  0.00  0.00    +0.000 NA
ATOM     12  O   UNL     1       2.891   0.545   0.000  0.00  0.00    +0.000 OA
ATOM     13  N   UNL     1       0.742   1.786   0.000  0.00  0.00    +0.000 NA
ATOM     14  C   UNL     1       1.453   2.199   0.000  0.00  0.00    +0.000 A 
ATOM     15  O   UNL     1       1.453   3.020   0.000  0.00  0.00    +0.000 OA
ENDBRANCH   1   8
BRANCH   4  16
ATOM     16  C   UNL     1      -1.404  -0.772   0.000  0.00  0.00    +0.000 C 
BRANCH  16  17
ATOM     17  O   UNL     1      -1.582   0.030   0.000  0.00  0.00    +0.000 OA
BRANCH  17  18
ATOM     18  P   UNL     1      -2.407   0.034   0.000  0.00  0.00    +0.000 P 
ATOM     19  O   UNL     1      -3.232   0.034   0.000  0.00  0.00    +0.000 OA
ATOM     20  O   UNL     1      -2.414  -0.787   0.000  0.00  0.00    +0.000 OA
ATOM     21  O   UNL     1      -2.407   0.859   0.000  0.00  0.00    +0.000 OA
ENDBRANCH  17  18
ENDBRANCH  16  17
ENDBRANCH   4  16
TORSDOF 4
