REMARK  Name = 
REMARK  9 active torsions:
REMARK  status: ('A' for Active; 'I' for Inactive)
REMARK    1  A    between atoms: CG1_4  and  CB_8
REMARK    2  A    between atoms: C_6  and  C_11
REMARK    3  A    between atoms: C_6  and  N_16
REMARK    4  A    between atoms: C_7  and  C_10
REMARK    5  A    between atoms: C_7  and  O_23
REMARK    6  A    between atoms: CB_8  and  CA_12
REMARK    7  A    between atoms: CA_12  and  C_14
REMARK    8  A    between atoms: CA_12  and  N_16
REMARK    9  A    between atoms: O_23  and  P_24
REMARK                            x       y       z     vdW  Elec       q    Type
REMARK                         _______ _______ _______ _____ _____    ______ ____
ROOT
ATOM      1  C   UNK A   0       9.288  -2.888   0.000  0.00  0.00    +0.000 C 
ATOM      2  C   UNK A   0      10.003  -0.825   0.000  0.00  0.00    +0.000 A 
ATOM      3  C   UNK A   0       9.288  -2.062   0.000  0.00  0.00    +0.000 A 
ATOM      4  C   UNK A   0       9.288  -0.412   0.000  0.00  0.00    +0.000 A 
ATOM      5  C   UNK A   0       8.574  -0.825   0.000  0.00  0.00    +0.000 A 
ATOM      6  C   UNK A   0       8.574  -1.650   0.000  0.00  0.00    +0.000 A 
ATOM      7  N   UNK A   0      10.003  -1.650   0.000  0.00  0.00    +0.000 NA
ATOM      8  O   UNK A   0       7.859  -2.062   0.000  0.00  0.00    +0.000 OA
ENDROOT
BRANCH   4   9
ATOM      9  C   UNK A   0       9.288   0.412   0.000  0.00  0.00    +0.000 C 
BRANCH   9  10
ATOM     10  O   UNK A   0      10.003   0.825   0.000  0.00  0.00    +0.000 OA
BRANCH  10  14
ATOM     11  O   UNK A   0      10.003   2.475   0.000  0.00  0.00    +0.000 OA
ATOM     12  O   UNK A   0      10.828   1.650   0.000  0.00  0.00    +0.000 OA
ATOM     13  O   UNK A   0       9.178   1.650   0.000  0.00  0.00    +0.000 OA
ATOM     14  P   UNK A   0      10.003   1.650   0.000  0.00  0.00    +0.000 P 
ENDBRANCH  10  14
ENDBRANCH   9  10
ENDBRANCH   4   9
BRANCH   5  15
ATOM     15  C   UNK A   0       7.859  -0.412   0.000  0.00  0.00    +0.000 C 
BRANCH  15  16
ATOM     16  N   ILE A   1       7.145  -0.825   0.000  0.00  0.00    +0.000 NA
BRANCH  16  17
ATOM     17  CA  ILE A   1       6.430  -0.412   0.000  0.00  0.00    +0.000 C 
BRANCH  17  18
ATOM     18  C   ILE A   1       6.430   0.412   0.000  0.00  0.00    +0.000 C 
ATOM     19  O   ILE A   1       7.145   0.825   0.000  0.00  0.00    +0.000 OA
ATOM     20  OXT ILE A   1       5.716   0.825   0.000  0.00  0.00    +0.000 OA
ENDBRANCH  17  18
BRANCH  17  22
ATOM     21  CG2 ILE A   1       5.716  -1.650   0.000  0.00  0.00    +0.000 C 
ATOM     22  CB  ILE A   1       5.716  -0.825   0.000  0.00  0.00    +0.000 C 
BRANCH  22  24
ATOM     23  CD1 ILE A   1       4.287  -0.825   0.000  0.00  0.00    +0.000 C 
ATOM     24  CG1 ILE A   1       5.001  -0.412   0.000  0.00  0.00    +0.000 C 
ENDBRANCH  22  24
ENDBRANCH  17  22
ENDBRANCH  16  17
ENDBRANCH  15  16
ENDBRANCH   5  15
TORSDOF 9
