REMARK  Name = 
REMARK  17 active torsions:
REMARK  status: ('A' for Active; 'I' for Inactive)
REMARK    1  A    between atoms: C_2  and  C_4
REMARK    2  A    between atoms: C_7  and  C_8
REMARK    3  A    between atoms: C_8  and  N_9
REMARK    4  A    between atoms: C_10  and  C_12
REMARK    5  A    between atoms: C_12  and  C_13
REMARK    6  A    between atoms: C_12  and  N_18
REMARK    7  A    between atoms: C_13  and  C_14
REMARK    8  A    between atoms: C_14  and  C_15
REMARK    9  A    between atoms: C_19  and  C_21
REMARK   10  A    between atoms: C_21  and  C_22
REMARK   11  A    between atoms: C_21  and  N_36
REMARK   12  A    between atoms: C_22  and  C_23
REMARK   13  A    between atoms: C_29  and  O_30
REMARK   14  A    between atoms: O_30  and  C_31
REMARK   15  A    between atoms: C_31  and  C_32
REMARK   16  A    between atoms: N_36  and  S_37
REMARK   17  A    between atoms: S_37  and  C_40
REMARK                            x       y       z     vdW  Elec       q    Type
REMARK                         _______ _______ _______ _____ _____    ______ ____
ROOT
ATOM      1  N   UNL     1      -3.061  -0.743   0.000  0.00  0.00    +0.000 NA
ATOM      2  C   UNL     1      -2.747   0.019   0.000  0.00  0.00    +0.000 C 
ATOM      3  O   UNL     1      -3.250   0.673   0.000  0.00  0.00    +0.000 OA
ENDROOT
BRANCH   1   4
ATOM      4  C   UNL     1      -3.879  -0.852   0.000  0.00  0.00    +0.000 C 
BRANCH   4   6
ATOM      5  N   UNL     1      -5.011  -1.724   0.000  0.00  0.00    +0.000 NA
ATOM      6  C   UNL     1      -4.194  -1.615   0.000  0.00  0.00    +0.000 C 
ATOM      7  O   UNL     1      -3.690  -2.269   0.000  0.00  0.00    +0.000 OA
BRANCH   5   8
ATOM      8  C   UNL     1      -5.326  -2.487   0.000  0.00  0.00    +0.000 C 
BRANCH   8  12
ATOM      9  C   UNL     1      -7.779  -2.813   0.000  0.00  0.00    +0.000 A 
ATOM     10  C   UNL     1      -7.465  -2.051   0.000  0.00  0.00    +0.000 A 
ATOM     11  C   UNL     1      -6.647  -1.942   0.000  0.00  0.00    +0.000 A 
ATOM     12  C   UNL     1      -6.144  -2.596   0.000  0.00  0.00    +0.000 A 
ATOM     13  C   UNL     1      -6.458  -3.358   0.000  0.00  0.00    +0.000 A 
ATOM     14  C   UNL     1      -7.276  -3.467   0.000  0.00  0.00    +0.000 A 
BRANCH   9  16
ATOM     15  N   UNL     1      -8.911  -3.685   0.000  0.00  0.00    +0.000 NA
ATOM     16  C   UNL     1      -8.597  -2.922   0.000  0.00  0.00    +0.000 C 
ATOM     17  N   UNL     1      -9.100  -2.269   0.000  0.00  0.00    +0.000 NA
ENDBRANCH   9  16
ENDBRANCH   8  12
ENDBRANCH   5   8
ENDBRANCH   4   6
BRANCH   4  18
ATOM     18  C   UNL     1      -4.382  -0.199   0.000  0.00  0.00    +0.000 C 
BRANCH  18  19
ATOM     19  C   UNL     1      -5.200  -0.307   0.000  0.00  0.00    +0.000 C 
BRANCH  19  20
ATOM     20  C   UNL     1      -5.703   0.346   0.000  0.00  0.00    +0.000 C 
ATOM     21  N   UNL     1      -6.521   0.237   0.000  0.00  0.00    +0.000 NA
ATOM     22  O   UNL     1      -5.389   1.109   0.000  0.00  0.00    +0.000 OA
ENDBRANCH  19  20
ENDBRANCH  18  19
ENDBRANCH   4  18
ENDBRANCH   1   4
BRANCH   2  23
ATOM     23  C   UNL     1      -1.929   0.128   0.000  0.00  0.00    +0.000 C 
BRANCH  23  24
ATOM     24  C   UNL     1      -1.614   0.891   0.000  0.00  0.00    +0.000 C 
BRANCH  24  25
ATOM     25  C   UNL     1      -0.797   1.000   0.000  0.00  0.00    +0.000 A 
ATOM     26  C   UNL     1      -0.228   0.402   0.000  0.00  0.00    +0.000 A 
ATOM     27  N   UNL     1       0.516   0.759   0.000  0.00  0.00    +0.000 NA
ATOM     28  C   UNL     1       0.407   1.577   0.000  0.00  0.00    +0.000 A 
ATOM     29  C   UNL     1      -0.404   1.726   0.000  0.00  0.00    +0.000 A 
ATOM     30  C   UNL     1      -0.681   2.503   0.000  0.00  0.00    +0.000 A 
ATOM     31  C   UNL     1      -0.146   3.131   0.000  0.00  0.00    +0.000 A 
ATOM     32  C   UNL     1       0.666   2.982   0.000  0.00  0.00    +0.000 A 
ATOM     33  C   UNL     1       0.942   2.205   0.000  0.00  0.00    +0.000 A 
BRANCH  31  34
ATOM     34  O   UNL     1      -0.422   3.908   0.000  0.00  0.00    +0.000 OA
BRANCH  34  35
ATOM     35  C   UNL     1      -1.234   4.057   0.000  0.00  0.00    +0.000 C 
BRANCH  35  36
ATOM     36  C   UNL     1      -1.510   4.835   0.000  0.00  0.00    +0.000 C 
ATOM     37  C   UNL     1      -0.976   5.463   0.000  0.00  0.00    +0.000 C 
ENDBRANCH  35  36
ENDBRANCH  34  35
ENDBRANCH  31  34
ENDBRANCH  24  25
ENDBRANCH  23  24
BRANCH  23  38
ATOM     38  N   UNL     1      -1.426  -0.525   0.000  0.00  0.00    +0.000 NA
BRANCH  38  39
ATOM     39  S   UNL     1      -0.608  -0.416   0.000  0.00  0.00    +0.000 S 
ATOM     40  O   UNL     1      -0.717   0.401   0.000  0.00  0.00    +0.000 OA
ATOM     41  O   UNL     1      -0.499  -1.234   0.000  0.00  0.00    +0.000 OA
BRANCH  39  42
ATOM     42  C   UNL     1       0.210  -0.307   0.000  0.00  0.00    +0.000 C 
ATOM     43  C   UNL     1       0.713  -0.961   0.000  0.00  0.00    +0.000 C 
ENDBRANCH  39  42
ENDBRANCH  38  39
ENDBRANCH  23  38
ENDBRANCH   2  23
TORSDOF 17
