REMARK  Name = 
REMARK  4 active torsions:
REMARK  status: ('A' for Active; 'I' for Inactive)
REMARK    1  A    between atoms: C_2  and  O_3
REMARK    2  A    between atoms: O_3  and  P_4
REMARK    3  A    between atoms: P_4  and  O_7
REMARK    4  A    between atoms: O_7  and  P_8
REMARK                            x       y       z     vdW  Elec       q    Type
REMARK                         _______ _______ _______ _____ _____    ______ ____
ROOT
ATOM      1  P   UNL     1       3.904  -1.429   0.000  0.00  0.00    +0.000 P 
ATOM      2  O   UNL     1       3.491  -2.143   0.000  0.00  0.00    +0.000 OA
ATOM      3  O   UNL     1       4.316  -0.715   0.000  0.00  0.00    +0.000 OA
ENDROOT
BRANCH   1   4
ATOM      4  O   UNL     1       3.189  -1.016   0.000  0.00  0.00    +0.000 OA
BRANCH   4   6
ATOM      5  C   UNL     1       1.760  -1.016   0.000  0.00  0.00    +0.000 C 
ATOM      6  C   UNL     1       2.475  -1.429   0.000  0.00  0.00    +0.000 C 
ENDBRANCH   4   6
ENDBRANCH   1   4
BRANCH   1   7
ATOM      7  O   UNL     1       4.618  -1.841   0.000  0.00  0.00    +0.000 OA
BRANCH   7   8
ATOM      8  P   UNL     1       5.333  -1.429   0.000  0.00  0.00    +0.000 P 
ATOM      9  O   UNL     1       6.047  -1.016   0.000  0.00  0.00    +0.000 OA
ATOM     10  O   UNL     1       5.745  -2.143   0.000  0.00  0.00    +0.000 OA
ATOM     11  O   UNL     1       4.920  -0.715   0.000  0.00  0.00    +0.000 OA
ENDBRANCH   7   8
ENDBRANCH   1   7
TORSDOF 4
