REMARK  Name = 
REMARK  5 active torsions:
REMARK  status: ('A' for Active; 'I' for Inactive)
REMARK    1  A    between atoms: C_1  and  C_2
REMARK    2  A    between atoms: C_2  and  C_5
REMARK    3  A    between atoms: C_5  and  N_8
REMARK    4  A    between atoms: N_8  and  C_11
REMARK    5  A    between atoms: C_11  and  C_13
REMARK                            x       y       z     vdW  Elec       q    Type
REMARK                         _______ _______ _______ _____ _____    ______ ____
ROOT
ATOM      1  C   UNL     1       5.279  -3.860   0.000  0.00  0.00    +0.000 C 
ATOM      2  C   UNL     1       5.282  -4.684   0.000  0.00  0.00    +0.000 C 
ENDROOT
BRANCH   1   3
ATOM      3  N   UNL     1       5.996  -3.446   0.000  0.00  0.00    +0.000 NA
ATOM      4  C   UNL     1       5.992  -2.619   0.000  0.00  0.00    +0.000 C 
BRANCH   3   5
ATOM      5  C   UNL     1       6.710  -3.857   0.000  0.00  0.00    +0.000 C 
BRANCH   5   6
ATOM      6  C   UNL     1       7.423  -3.443   0.000  0.00  0.00    +0.000 A 
ATOM      7  C   UNL     1       8.137  -3.857   0.000  0.00  0.00    +0.000 A 
ATOM      8  C   UNL     1       7.420  -2.619   0.000  0.00  0.00    +0.000 A 
ATOM      9  C   UNL     1       8.850  -3.443   0.000  0.00  0.00    +0.000 A 
ATOM     10  C   UNL     1       8.133  -2.206   0.000  0.00  0.00    +0.000 A 
ATOM     11  C   UNL     1       8.847  -2.619   0.000  0.00  0.00    +0.000 A 
ENDBRANCH   5   6
ENDBRANCH   3   5
ENDBRANCH   1   3
BRANCH   1  12
ATOM     12  C   UNL     1       4.565  -3.446   0.000  0.00  0.00    +0.000 C 
BRANCH  12  13
ATOM     13  C   UNL     1       3.848  -3.864   0.000  0.00  0.00    +0.000 A 
ATOM     14  C   UNL     1       3.848  -4.691   0.000  0.00  0.00    +0.000 A 
ATOM     15  C   UNL     1       3.131  -3.446   0.000  0.00  0.00    +0.000 A 
ATOM     16  C   UNL     1       3.131  -5.105   0.000  0.00  0.00    +0.000 A 
ATOM     17  C   UNL     1       2.411  -3.864   0.000  0.00  0.00    +0.000 A 
ATOM     18  C   UNL     1       2.411  -4.691   0.000  0.00  0.00    +0.000 A 
ENDBRANCH  12  13
ENDBRANCH   1  12
TORSDOF 5
