REMARK  Name = 
REMARK  7 active torsions:
REMARK  status: ('A' for Active; 'I' for Inactive)
REMARK    1  A    between atoms: C_2  and  O_3
REMARK    2  A    between atoms: O_3  and  P_4
REMARK    3  A    between atoms: P_4  and  O_6
REMARK    4  A    between atoms: P_4  and  O_9
REMARK    5  A    between atoms: O_6  and  C_7
REMARK    6  A    between atoms: O_9  and  C_10
REMARK    7  A    between atoms: C_13  and  N_16
REMARK                            x       y       z     vdW  Elec       q    Type
REMARK                         _______ _______ _______ _____ _____    ______ ____
ROOT
ATOM      1  O   UNL     1      13.444 -11.296   0.000  0.00  0.00    +0.000 OA
ENDROOT
BRANCH   1   2
ATOM      2  C   UNL     1      13.032 -10.582   0.000  0.00  0.00    +0.000 A 
ATOM      3  C   UNL     1      13.444  -9.867   0.000  0.00  0.00    +0.000 A 
ATOM      4  C   UNL     1      13.032  -9.153   0.000  0.00  0.00    +0.000 A 
ATOM      5  C   UNL     1      12.207  -9.153   0.000  0.00  0.00    +0.000 A 
ATOM      6  C   UNL     1      11.794  -9.867   0.000  0.00  0.00    +0.000 A 
ATOM      7  C   UNL     1      12.207 -10.582   0.000  0.00  0.00    +0.000 A 
BRANCH   5   8
ATOM      8  N   UNL     1      11.794  -8.438   0.000  0.00  0.00    +0.000 N 
ATOM      9  O   UNL     1      12.207  -7.724   0.000  0.00  0.00    +0.000 OA
ATOM     10  O   UNL     1      10.969  -8.438   0.000  0.00  0.00    +0.000 OA
ENDBRANCH   5   8
ENDBRANCH   1   2
BRANCH   1  11
ATOM     11  P   UNL     1      14.269 -11.296   0.000  0.00  0.00    +0.000 P 
ATOM     12  O   UNL     1      14.269 -10.472   0.000  0.00  0.00    +0.000 OA
BRANCH  11  13
ATOM     13  O   UNL     1      15.094 -11.296   0.000  0.00  0.00    +0.000 OA
BRANCH  13  14
ATOM     14  C   UNL     1      15.507 -12.010   0.000  0.00  0.00    +0.000 C 
ATOM     15  C   UNL     1      16.332 -12.010   0.000  0.00  0.00    +0.000 C 
ENDBRANCH  13  14
ENDBRANCH  11  13
BRANCH  11  16
ATOM     16  O   UNL     1      14.269 -12.121   0.000  0.00  0.00    +0.000 OA
BRANCH  16  18
ATOM     17  C   UNL     1      14.984 -13.359   0.000  0.00  0.00    +0.000 C 
ATOM     18  C   UNL     1      14.984 -12.534   0.000  0.00  0.00    +0.000 C 
ENDBRANCH  16  18
ENDBRANCH  11  16
ENDBRANCH   1  11
TORSDOF 7
