REMARK  Name = 
REMARK  5 active torsions:
REMARK  status: ('A' for Active; 'I' for Inactive)
REMARK    1  A    between atoms: C_4  and  C_9
REMARK    2  A    between atoms: C_6  and  C_7
REMARK    3  A    between atoms: C_16  and  C_19
REMARK    4  A    between atoms: C_19  and  C_20
REMARK    5  A    between atoms: C_22  and  C_25
REMARK                            x       y       z     vdW  Elec       q    Type
REMARK                         _______ _______ _______ _____ _____    ______ ____
ROOT
ATOM      1  C   UNL     1      10.158  -7.668   0.000  0.00  0.00    +0.000 A 
ATOM      2  C   UNL     1      10.771  -8.220   0.000  0.00  0.00    +0.000 A 
ATOM      3  C   UNL     1      11.555  -7.965   0.000  0.00  0.00    +0.000 A 
ATOM      4  C   UNL     1      11.727  -7.158   0.000  0.00  0.00    +0.000 A 
ATOM      5  C   UNL     1      11.114  -6.606   0.000  0.00  0.00    +0.000 A 
ATOM      6  C   UNL     1      10.329  -6.861   0.000  0.00  0.00    +0.000 A 
ATOM      7  C   UNL     1      12.511  -6.904   0.000  0.00  0.00    +0.000 C 
ENDROOT
BRANCH   1  11
ATOM      8  C   UNL     1       7.947  -8.752   0.000  0.00  0.00    +0.000 C 
ATOM      9  C   UNL     1       8.662  -9.163   0.000  0.00  0.00    +0.000 C 
ATOM     10  C   UNL     1       9.376  -8.748   0.000  0.00  0.00    +0.000 C 
ATOM     11  C   UNL     1       9.373  -7.923   0.000  0.00  0.00    +0.000 C 
ATOM     12  O   UNL     1       8.658  -7.513   0.000  0.00  0.00    +0.000 OA
ATOM     13  C   UNL     1       7.944  -7.927   0.000  0.00  0.00    +0.000 C 
ATOM     14  O   UNL     1       8.665  -9.988   0.000  0.00  0.00    +0.000 OA
ATOM     15  O   UNL     1      10.091  -9.159   0.000  0.00  0.00    +0.000 OA
ATOM     16  O   UNL     1       7.233  -9.167   0.000  0.00  0.00    +0.000 OA
BRANCH  13  17
ATOM     17  C   UNL     1       7.229  -7.517   0.000  0.00  0.00    +0.000 C 
ATOM     18  O   UNL     1       7.226  -6.692   0.000  0.00  0.00    +0.000 OA
ENDBRANCH  13  17
ENDBRANCH   1  11
BRANCH   5  19
ATOM     19  C   UNL     1      11.285  -5.799   0.000  0.00  0.00    +0.000 C 
BRANCH  19  20
ATOM     20  C   UNL     1      12.070  -5.544   0.000  0.00  0.00    +0.000 A 
ATOM     21  S   UNL     1      12.737  -6.029   0.000  0.00  0.00    +0.000 S 
ATOM     22  C   UNL     1      13.405  -5.544   0.000  0.00  0.00    +0.000 A 
ATOM     23  C   UNL     1      13.150  -4.760   0.000  0.00  0.00    +0.000 A 
ATOM     24  C   UNL     1      12.325  -4.760   0.000  0.00  0.00    +0.000 A 
BRANCH  22  25
ATOM     25  C   UNL     1      14.189  -5.799   0.000  0.00  0.00    +0.000 A 
ATOM     26  C   UNL     1      14.361  -6.606   0.000  0.00  0.00    +0.000 A 
ATOM     27  C   UNL     1      15.146  -6.861   0.000  0.00  0.00    +0.000 A 
ATOM     28  C   UNL     1      15.759  -6.309   0.000  0.00  0.00    +0.000 A 
ATOM     29  C   UNL     1      15.587  -5.502   0.000  0.00  0.00    +0.000 A 
ATOM     30  C   UNL     1      14.803  -5.247   0.000  0.00  0.00    +0.000 A 
ATOM     31  F   UNL     1      16.543  -6.564   0.000  0.00  0.00    +0.000 F 
ENDBRANCH  22  25
ENDBRANCH  19  20
ENDBRANCH   5  19
TORSDOF 5
