REMARK  Name = 
REMARK  6 active torsions:
REMARK  status: ('A' for Active; 'I' for Inactive)
REMARK    1  A    between atoms: C_1  and  C_4
REMARK    2  A    between atoms: C_1  and  O_23
REMARK    3  A    between atoms: C_9  and  S_27
REMARK    4  A    between atoms: C_10  and  N_14
REMARK    5  A    between atoms: O_23  and  P_25
REMARK    6  A    between atoms: P_26  and  S_27
REMARK                            x       y       z     vdW  Elec       q    Type
REMARK                         _______ _______ _______ _____ _____    ______ ____
ROOT
ATOM      1  C   UNL     1       3.993   0.825   0.000  0.00  0.00    +0.000 A 
ATOM      2  C   UNL     1       1.295   0.412   0.000  0.00  0.00    +0.000 A 
ATOM      3  C   UNL     1       2.564   0.000   0.000  0.00  0.00    +0.000 A 
ATOM      4  C   UNL     1       2.564   0.825   0.000  0.00  0.00    +0.000 A 
ATOM      5  C   UNL     1       3.279  -0.412   0.000  0.00  0.00    +0.000 A 
ATOM      6  N   UNL     1       3.279   1.238   0.000  0.00  0.00    +0.000 NA
ATOM      7  N   UNL     1       3.993   0.000   0.000  0.00  0.00    +0.000 NA
ATOM      8  N   UNL     1       1.780  -0.255   0.000  0.00  0.00    +0.000 NA
ATOM      9  N   UNL     1       1.780   1.080   0.000  0.00  0.00    +0.000 N 
ENDROOT
BRANCH   9  13
ATOM     10  C   UNL     1       1.525   3.199   0.000  0.00  0.00    +0.000 C 
ATOM     11  C   UNL     1       0.740   2.945   0.000  0.00  0.00    +0.000 C 
ATOM     12  C   UNL     1       0.740   2.119   0.000  0.00  0.00    +0.000 C 
ATOM     13  C   UNL     1       1.525   1.865   0.000  0.00  0.00    +0.000 C 
ATOM     14  O   UNL     1       0.073   3.429   0.000  0.00  0.00    +0.000 OA
ATOM     15  O   UNL     1       0.073   1.635   0.000  0.00  0.00    +0.000 OA
ATOM     16  O   UNL     1       2.010   2.532   0.000  0.00  0.00    +0.000 OA
BRANCH  10  17
ATOM     17  C   UNL     1       1.780   3.984   0.000  0.00  0.00    +0.000 C 
BRANCH  17  18
ATOM     18  O   UNL     1       1.228   4.597   0.000  0.00  0.00    +0.000 OA
BRANCH  18  22
ATOM     19  O   UNL     1       1.738   6.166   0.000  0.00  0.00    +0.000 OA
ATOM     20  O   UNL     1       0.698   5.637   0.000  0.00  0.00    +0.000 OA
ATOM     21  O   UNL     1       2.267   5.127   0.000  0.00  0.00    +0.000 OA
ATOM     22  P   UNL     1       1.483   5.382   0.000  0.00  0.00    +0.000 P 
ENDBRANCH  18  22
ENDBRANCH  17  18
ENDBRANCH  10  17
ENDBRANCH   9  13
BRANCH   5  23
ATOM     23  S   UNL     1       3.279  -1.238   0.000  0.00  0.00    +0.000 S 
BRANCH  23  27
ATOM     24  O   UNL     1       4.708  -2.062   0.000  0.00  0.00    +0.000 OA
ATOM     25  O   UNL     1       3.581  -2.365   0.000  0.00  0.00    +0.000 OA
ATOM     26  O   UNL     1       4.406  -0.935   0.000  0.00  0.00    +0.000 OA
ATOM     27  P   UNL     1       3.993  -1.650   0.000  0.00  0.00    +0.000 P 
ENDBRANCH  23  27
ENDBRANCH   5  23
TORSDOF 6
