REMARK  Name = 
REMARK  5 active torsions:
REMARK  status: ('A' for Active; 'I' for Inactive)
REMARK    1  A    between atoms: CA_2  and  C_3
REMARK    2  A    between atoms: CA_2  and  C_11
REMARK    3  A    between atoms: C_3  and  C_4
REMARK    4  A    between atoms: C_4  and  C_5
REMARK    5  A    between atoms: C_6  and  B_7
REMARK                            x       y       z     vdW  Elec       q    Type
REMARK                         _______ _______ _______ _____ _____    ______ ____
ROOT
ATOM      1  C   UNL     1       0.523   1.127   0.000  0.00  0.00    +0.000 C 
ENDROOT
BRANCH   1   2
ATOM      2  C   UNL     1      -0.191   0.715   0.000  0.00  0.00    +0.000 C 
ATOM      3  C   UNL     1      -0.906   1.127   0.000  0.00  0.00    +0.000 C 
BRANCH   3   4
ATOM      4  B   UNL     1      -1.620   0.715   0.000  0.00  0.00    +0.000 B 
ATOM      5  O   UNL     1      -2.335   0.302   0.000  0.00  0.00    +0.000 OA
ATOM      6  O   UNL     1      -1.208   0.000   0.000  0.00  0.00    +0.000 OA
ATOM      7  O   UNL     1      -2.033   1.429   0.000  0.00  0.00    +0.000 OA
ENDBRANCH   3   4
ENDBRANCH   1   2
BRANCH   1   8
ATOM      8  C   UNL     1       1.238   0.715   0.000  0.00  0.00    +0.000 C 
BRANCH   8  10
ATOM      9  N   UNL     1       1.952   1.952   0.000  0.00  0.00    +0.000 NA
ATOM     10  CA  UNL     1       1.952   1.127   0.000  0.00  0.00    +0.000 C 
BRANCH  10  11
ATOM     11  C   UNL     1       2.666   0.715   0.000  0.00  0.00    +0.000 C 
ATOM     12  O   UNL     1       3.381   1.127   0.000  0.00  0.00    +0.000 OA
ATOM     13  OXT UNL     1       2.666  -0.111   0.000  0.00  0.00    +0.000 OA
ENDBRANCH  10  11
ENDBRANCH   8  10
ENDBRANCH   1   8
TORSDOF 5
