REMARK  Name = 
REMARK  10 active torsions:
REMARK  status: ('A' for Active; 'I' for Inactive)
REMARK    1  A    between atoms: CB_2  and  CG_3
REMARK    2  A    between atoms: CB_2  and  CA_10
REMARK    3  A    between atoms: CG_3  and  CD_11
REMARK    4  A    between atoms: C_5  and  C_9
REMARK    5  A    between atoms: C_5  and  N_15
REMARK    6  A    between atoms: C_6  and  C_8
REMARK    7  A    between atoms: C_6  and  O_24
REMARK    8  A    between atoms: CA_10  and  C_13
REMARK    9  A    between atoms: CA_10  and  N_15
REMARK   10  A    between atoms: O_24  and  P_25
REMARK                            x       y       z     vdW  Elec       q    Type
REMARK                         _______ _______ _______ _____ _____    ______ ____
ROOT
ATOM      1  C   UNK A   0       9.288  -2.888   0.000  0.00  0.00    +0.000 C 
ATOM      2  C   UNK A   0      10.003  -0.825   0.000  0.00  0.00    +0.000 A 
ATOM      3  C   UNK A   0       9.288  -2.062   0.000  0.00  0.00    +0.000 A 
ATOM      4  C   UNK A   0       9.288  -0.412   0.000  0.00  0.00    +0.000 A 
ATOM      5  C   UNK A   0       8.574  -0.825   0.000  0.00  0.00    +0.000 A 
ATOM      6  C   UNK A   0       8.574  -1.650   0.000  0.00  0.00    +0.000 A 
ATOM      7  N   UNK A   0      10.003  -1.650   0.000  0.00  0.00    +0.000 NA
ATOM      8  O   UNK A   0       7.859  -2.062   0.000  0.00  0.00    +0.000 OA
ENDROOT
BRANCH   4   9
ATOM      9  C   UNK A   0       9.288   0.412   0.000  0.00  0.00    +0.000 C 
BRANCH   9  10
ATOM     10  O   UNK A   0      10.003   0.825   0.000  0.00  0.00    +0.000 OA
BRANCH  10  14
ATOM     11  O   UNK A   0      10.003   2.475   0.000  0.00  0.00    +0.000 OA
ATOM     12  O   UNK A   0      10.828   1.650   0.000  0.00  0.00    +0.000 OA
ATOM     13  O   UNK A   0       9.178   1.650   0.000  0.00  0.00    +0.000 OA
ATOM     14  P   UNK A   0      10.003   1.650   0.000  0.00  0.00    +0.000 P 
ENDBRANCH  10  14
ENDBRANCH   9  10
ENDBRANCH   4   9
BRANCH   5  15
ATOM     15  C   UNK A   0       7.859  -0.412   0.000  0.00  0.00    +0.000 C 
BRANCH  15  16
ATOM     16  N   GLU A   1       7.145  -0.825   0.000  0.00  0.00    +0.000 NA
BRANCH  16  17
ATOM     17  CA  GLU A   1       6.430  -0.412   0.000  0.00  0.00    +0.000 C 
BRANCH  17  18
ATOM     18  C   GLU A   1       6.430   0.412   0.000  0.00  0.00    +0.000 C 
ATOM     19  O   GLU A   1       7.145   0.825   0.000  0.00  0.00    +0.000 OA
ATOM     20  OXT GLU A   1       5.716   0.825   0.000  0.00  0.00    +0.000 OA
ENDBRANCH  17  18
BRANCH  17  21
ATOM     21  CB  GLU A   1       5.716  -0.825   0.000  0.00  0.00    +0.000 C 
BRANCH  21  22
ATOM     22  CG  GLU A   1       5.001  -0.412   0.000  0.00  0.00    +0.000 C 
BRANCH  22  23
ATOM     23  CD  GLU A   1       4.287  -0.825   0.000  0.00  0.00    +0.000 C 
ATOM     24  OE1 GLU A   1       3.572  -0.412   0.000  0.00  0.00    +0.000 OA
ATOM     25  OE2 GLU A   1       4.287  -1.650   0.000  0.00  0.00    +0.000 OA
ENDBRANCH  22  23
ENDBRANCH  21  22
ENDBRANCH  17  21
ENDBRANCH  16  17
ENDBRANCH  15  16
ENDBRANCH   5  15
TORSDOF 10
