REMARK  Name = 
REMARK  15 active torsions:
REMARK  status: ('A' for Active; 'I' for Inactive)
REMARK    1  A    between atoms: S_1  and  N_14
REMARK    2  A    between atoms: S_1  and  C_30
REMARK    3  A    between atoms: O_5  and  C_18
REMARK    4  A    between atoms: O_5  and  C_23
REMARK    5  A    between atoms: O_12  and  C_40
REMARK    6  A    between atoms: O_12  and  C_44
REMARK    7  A    between atoms: N_13  and  C_22
REMARK    8  A    between atoms: N_14  and  C_25
REMARK    9  A    between atoms: N_14  and  C_27
REMARK   10  A    between atoms: C_22  and  C_24
REMARK   11  A    between atoms: C_22  and  C_26
REMARK   12  A    between atoms: C_24  and  C_25
REMARK   13  A    between atoms: C_26  and  C_29
REMARK   14  A    between atoms: C_27  and  C_28
REMARK   15  A    between atoms: C_44  and  C_45
REMARK                            x       y       z     vdW  Elec       q    Type
REMARK                         _______ _______ _______ _____ _____    ______ ____
ROOT
ATOM      1  C   UNL     1       6.528   0.617   0.000  0.00  0.00    +0.000 C 
ENDROOT
BRANCH   1   3
ATOM      2  O   UNL     1       6.528   2.267   0.000  0.00  0.00    +0.000 OA
ATOM      3  N   UNL     1       5.814   1.029   0.000  0.00  0.00    +0.000 NA
ATOM      4  C   UNL     1       5.814   1.854   0.000  0.00  0.00    +0.000 C 
BRANCH   4   5
ATOM      5  O   UNL     1       5.099   2.267   0.000  0.00  0.00    +0.000 OA
BRANCH   5  10
ATOM      6  O   UNL     1       5.512   4.361   0.000  0.00  0.00    +0.000 OA
ATOM      7  O   UNL     1       4.022   4.842   0.000  0.00  0.00    +0.000 OA
ATOM      8  C   UNL     1       4.432   3.577   0.000  0.00  0.00    +0.000 C 
ATOM      9  C   UNL     1       4.687   4.361   0.000  0.00  0.00    +0.000 C 
ATOM     10  C   UNL     1       5.099   3.092   0.000  0.00  0.00    +0.000 C 
ATOM     11  C   UNL     1       3.612   3.579   0.000  0.00  0.00    +0.000 C 
ATOM     12  C   UNL     1       5.767   3.577   0.000  0.00  0.00    +0.000 C 
ATOM     13  C   UNL     1       3.359   4.359   0.000  0.00  0.00    +0.000 C 
ENDBRANCH   5  10
ENDBRANCH   4   5
ENDBRANCH   1   3
BRANCH   1  15
ATOM     14  O   UNL     1       7.243   1.854   0.000  0.00  0.00    +0.000 OA
ATOM     15  C   UNL     1       7.243   1.029   0.000  0.00  0.00    +0.000 C 
BRANCH  15  16
ATOM     16  C   UNL     1       7.957   0.617   0.000  0.00  0.00    +0.000 C 
BRANCH  16  17
ATOM     17  N   UNL     1       8.672   1.029   0.000  0.00  0.00    +0.000 NA
BRANCH  17  18
ATOM     18  S   UNL     1       9.386   0.617   0.000  0.00  0.00    +0.000 S 
ATOM     19  O   UNL     1       9.799   1.331   0.000  0.00  0.00    +0.000 OA
ATOM     20  O   UNL     1       8.974  -0.098   0.000  0.00  0.00    +0.000 OA
BRANCH  18  23
ATOM     21  O   UNL     1      12.310   0.456   0.000  0.00  0.00    +0.000 OA
ATOM     22  O   UNL     1      12.310  -0.872   0.000  0.00  0.00    +0.000 OA
ATOM     23  C   UNL     1      10.101   0.204   0.000  0.00  0.00    +0.000 A 
ATOM     24  C   UNL     1      10.815   0.617   0.000  0.00  0.00    +0.000 A 
ATOM     25  C   UNL     1      10.101  -0.621   0.000  0.00  0.00    +0.000 A 
ATOM     26  C   UNL     1      11.530   0.204   0.000  0.00  0.00    +0.000 A 
ATOM     27  C   UNL     1      10.815  -1.033   0.000  0.00  0.00    +0.000 A 
ATOM     28  C   UNL     1      11.530  -0.621   0.000  0.00  0.00    +0.000 A 
ATOM     29  C   UNL     1      12.792  -0.208   0.000  0.00  0.00    +0.000 C 
ENDBRANCH  18  23
ENDBRANCH  17  18
BRANCH  17  30
ATOM     30  C   UNL     1       8.672   1.854   0.000  0.00  0.00    +0.000 C 
BRANCH  30  31
ATOM     31  C   UNL     1       9.386   2.267   0.000  0.00  0.00    +0.000 C 
ATOM     32  C   UNL     1      10.101   1.854   0.000  0.00  0.00    +0.000 C 
ATOM     33  C   UNL     1       9.386   3.092   0.000  0.00  0.00    +0.000 C 
ENDBRANCH  30  31
ENDBRANCH  17  30
ENDBRANCH  16  17
ENDBRANCH  15  16
ENDBRANCH   1  15
BRANCH   1  34
ATOM     34  C   UNL     1       6.528  -0.208   0.000  0.00  0.00    +0.000 C 
BRANCH  34  35
ATOM     35  C   UNL     1       5.814  -0.621   0.000  0.00  0.00    +0.000 A 
ATOM     36  C   UNL     1       5.814  -1.446   0.000  0.00  0.00    +0.000 A 
ATOM     37  C   UNL     1       5.099  -0.208   0.000  0.00  0.00    +0.000 A 
ATOM     38  C   UNL     1       5.099  -1.858   0.000  0.00  0.00    +0.000 A 
ATOM     39  C   UNL     1       4.385  -0.621   0.000  0.00  0.00    +0.000 A 
ATOM     40  C   UNL     1       4.385  -1.446   0.000  0.00  0.00    +0.000 A 
BRANCH  40  41
ATOM     41  O   UNL     1       3.670  -1.858   0.000  0.00  0.00    +0.000 OA
BRANCH  41  42
ATOM     42  C   UNL     1       3.670  -2.683   0.000  0.00  0.00    +0.000 C 
BRANCH  42  45
ATOM     43  S   UNL     1       1.650  -3.373   0.000  0.00  0.00    +0.000 S 
ATOM     44  N   UNL     1       2.869  -3.916   0.000  0.00  0.00    +0.000 NA
ATOM     45  C   UNL     1       2.956  -3.096   0.000  0.00  0.00    +0.000 A 
ATOM     46  C   UNL     1       2.202  -2.760   0.000  0.00  0.00    +0.000 A 
ATOM     47  C   UNL     1       2.062  -4.088   0.000  0.00  0.00    +0.000 A 
ATOM     48  C   UNL     1       1.727  -4.842   0.000  0.00  0.00    +0.000 C 
ENDBRANCH  42  45
ENDBRANCH  41  42
ENDBRANCH  40  41
ENDBRANCH  34  35
ENDBRANCH   1  34
TORSDOF 15
