REMARK  Name = 
REMARK  5 active torsions:
REMARK  status: ('A' for Active; 'I' for Inactive)
REMARK    1  A    between atoms: C_1  and  C_2
REMARK    2  A    between atoms: C_4  and  C_7
REMARK    3  A    between atoms: C_7  and  C_10
REMARK    4  A    between atoms: N_8  and  C_10
REMARK    5  A    between atoms: N_8  and  C_15
REMARK                            x       y       z     vdW  Elec       q    Type
REMARK                         _______ _______ _______ _____ _____    ______ ____
ROOT
ATOM      1  C   UNL     1       4.904  -6.050   0.000  0.00  0.00    +0.000 A 
ATOM      2  C   UNL     1       5.618  -6.463   0.000  0.00  0.00    +0.000 A 
ATOM      3  C   UNL     1       6.332  -6.050   0.000  0.00  0.00    +0.000 A 
ATOM      4  C   UNL     1       4.904  -5.225   0.000  0.00  0.00    +0.000 A 
ATOM      5  C   UNL     1       5.618  -4.813   0.000  0.00  0.00    +0.000 A 
ATOM      6  C   UNL     1       6.332  -5.225   0.000  0.00  0.00    +0.000 A 
ENDROOT
BRANCH   1   7
ATOM      7  C   UNL     1       4.189  -6.463   0.000  0.00  0.00    +0.000 C 
ATOM      8  F   UNL     1       4.189  -7.288   0.000  0.00  0.00    +0.000 F 
ATOM      9  F   UNL     1       3.474  -6.050   0.000  0.00  0.00    +0.000 F 
ATOM     10  F   UNL     1       3.469  -6.882   0.000  0.00  0.00    +0.000 F 
ENDBRANCH   1   7
BRANCH   3  11
ATOM     11  C   UNL     1       7.047  -6.463   0.000  0.00  0.00    +0.000 C 
BRANCH  11  12
ATOM     12  C   UNL     1       7.761  -6.050   0.000  0.00  0.00    +0.000 C 
ATOM     13  C   UNL     1       8.476  -6.463   0.000  0.00  0.00    +0.000 C 
BRANCH  12  14
ATOM     14  N   UNL     1       7.761  -5.225   0.000  0.00  0.00    +0.000 NA
BRANCH  14  15
ATOM     15  C   UNL     1       7.047  -4.813   0.000  0.00  0.00    +0.000 C 
ATOM     16  C   UNL     1       7.047  -3.988   0.000  0.00  0.00    +0.000 C 
ENDBRANCH  14  15
ENDBRANCH  12  14
ENDBRANCH  11  12
ENDBRANCH   3  11
TORSDOF 5
