REMARK  Name = 
REMARK  4 active torsions:
REMARK  status: ('A' for Active; 'I' for Inactive)
REMARK    1  A    between atoms: C_18  and  N_28
REMARK    2  A    between atoms: C_19  and  N_25
REMARK    3  A    between atoms: C_20  and  C_22
REMARK    4  A    between atoms: C_21  and  N_26
REMARK                            x       y       z     vdW  Elec       q    Type
REMARK                         _______ _______ _______ _____ _____    ______ ____
ROOT
ATOM      1  C   UNL     1      -0.285   1.411   0.000  0.00  0.00    +0.000 C 
ATOM      2  C   UNL     1      -0.136   2.832   0.000  0.00  0.00    +0.000 C 
ATOM      3  C   UNL     1       0.535   1.325   0.000  0.00  0.00    +0.000 C 
ATOM      4  C   UNL     1       0.684   2.746   0.000  0.00  0.00    +0.000 C 
ATOM      5  N   UNL     1      -0.621   2.165   0.000  0.00  0.00    +0.000 NA
ATOM      6  N   UNL     1       1.020   1.992   0.000  0.00  0.00    +0.000 N 
ENDROOT
BRANCH   6  10
ATOM      7  C   UNL     1       3.673   0.811   0.000  0.00  0.00    +0.000 C 
ATOM      8  C   UNL     1       2.253   1.191   0.000  0.00  0.00    +0.000 A 
ATOM      9  C   UNL     1       3.060   1.363   0.000  0.00  0.00    +0.000 A 
ATOM     10  C   UNL     1       1.840   1.906   0.000  0.00  0.00    +0.000 A 
ATOM     11  N   UNL     1       3.146   2.183   0.000  0.00  0.00    +0.000 NA
ATOM     12  N   UNL     1       2.393   2.519   0.000  0.00  0.00    +0.000 N 
BRANCH  12  18
ATOM     13  C   UNL     1       1.878   4.940   0.000  0.00  0.00    +0.000 A 
ATOM     14  C   UNL     1       1.265   4.388   0.000  0.00  0.00    +0.000 A 
ATOM     15  C   UNL     1       2.663   4.685   0.000  0.00  0.00    +0.000 A 
ATOM     16  C   UNL     1       1.436   3.581   0.000  0.00  0.00    +0.000 A 
ATOM     17  C   UNL     1       2.834   3.878   0.000  0.00  0.00    +0.000 A 
ATOM     18  C   UNL     1       2.221   3.326   0.000  0.00  0.00    +0.000 A 
ENDBRANCH  12  18
ENDBRANCH   6  10
BRANCH   5  21
ATOM     19  C   UNL     1      -1.994   1.638   0.000  0.00  0.00    +0.000 C 
ATOM     20  C   UNL     1      -1.854   2.965   0.000  0.00  0.00    +0.000 C 
ATOM     21  C   UNL     1      -1.442   2.251   0.000  0.00  0.00    +0.000 C 
ATOM     22  C   UNL     1      -2.747   1.973   0.000  0.00  0.00    +0.000 C 
ATOM     23  N   UNL     1      -2.661   2.794   0.000  0.00  0.00    +0.000 NA
BRANCH  22  27
ATOM     24  C   UNL     1      -4.129   0.251   0.000  0.00  0.00    +0.000 C 
ATOM     25  C   UNL     1      -3.874  -0.534   0.000  0.00  0.00    +0.000 C 
ATOM     26  C   UNL     1      -2.794   0.251   0.000  0.00  0.00    +0.000 C 
ATOM     27  C   UNL     1      -3.462   1.561   0.000  0.00  0.00    +0.000 C 
ATOM     28  N   UNL     1      -3.462   0.736   0.000  0.00  0.00    +0.000 N 
ATOM     29  O   UNL     1      -4.176   1.973   0.000  0.00  0.00    +0.000 OA
ATOM     30  S   UNL     1      -3.049  -0.534   0.000  0.00  0.00    +0.000 S 
ENDBRANCH  22  27
ENDBRANCH   5  21
TORSDOF 4
