REMARK  Name = 
REMARK  6 active torsions:
REMARK  status: ('A' for Active; 'I' for Inactive)
REMARK    1  A    between atoms: C_15  and  C_17
REMARK    2  A    between atoms: C_16  and  C_19
REMARK    3  A    between atoms: C_23  and  N_32
REMARK    4  A    between atoms: C_24  and  S_36
REMARK    5  A    between atoms: C_25  and  O_35
REMARK    6  A    between atoms: N_32  and  S_36
REMARK                            x       y       z     vdW  Elec       q    Type
REMARK                         _______ _______ _______ _____ _____    ______ ____
ROOT
ATOM      1  C   UNL     1       0.000   0.000   0.000  0.00  0.00    +0.000 A 
ATOM      2  C   UNL     1      -0.715   1.238   0.000  0.00  0.00    +0.000 A 
ATOM      3  C   UNL     1       0.000   0.825   0.000  0.00  0.00    +0.000 A 
ATOM      4  C   UNL     1      -0.715  -0.412   0.000  0.00  0.00    +0.000 A 
ATOM      5  C   UNL     1      -1.429   0.000   0.000  0.00  0.00    +0.000 A 
ATOM      6  N   UNL     1      -1.429   0.825   0.000  0.00  0.00    +0.000 NA
ENDROOT
BRANCH   3  12
ATOM      7  C   UNL     1       0.715   2.062   0.000  0.00  0.00    +0.000 A 
ATOM      8  C   UNL     1       1.429   2.475   0.000  0.00  0.00    +0.000 A 
ATOM      9  C   UNL     1       3.572   1.238   0.000  0.00  0.00    +0.000 A 
ATOM     10  C   UNL     1       3.572   2.062   0.000  0.00  0.00    +0.000 A 
ATOM     11  C   UNL     1       1.429   0.825   0.000  0.00  0.00    +0.000 A 
ATOM     12  C   UNL     1       0.715   1.238   0.000  0.00  0.00    +0.000 A 
ATOM     13  C   UNL     1       2.858   0.825   0.000  0.00  0.00    +0.000 A 
ATOM     14  C   UNL     1       2.143   1.238   0.000  0.00  0.00    +0.000 A 
ATOM     15  C   UNL     1       2.143   2.062   0.000  0.00  0.00    +0.000 A 
ATOM     16  N   UNL     1       2.858   2.475   0.000  0.00  0.00    +0.000 NA
BRANCH  13  20
ATOM     17  C   UNL     1       2.143  -0.412   0.000  0.00  0.00    +0.000 A 
ATOM     18  C   UNL     1       2.143  -1.238   0.000  0.00  0.00    +0.000 A 
ATOM     19  C   UNL     1       3.572  -0.412   0.000  0.00  0.00    +0.000 A 
ATOM     20  C   UNL     1       2.858   0.000   0.000  0.00  0.00    +0.000 A 
ATOM     21  N   UNL     1       2.858  -1.650   0.000  0.00  0.00    +0.000 NA
ATOM     22  N   UNL     1       3.572  -1.238   0.000  0.00  0.00    +0.000 NA
ENDBRANCH  13  20
ENDBRANCH   3  12
BRANCH   5  24
ATOM     23  C   UNL     1      -2.858   0.000   0.000  0.00  0.00    +0.000 C 
ATOM     24  O   UNL     1      -2.143  -0.412   0.000  0.00  0.00    +0.000 OA
ENDBRANCH   5  24
BRANCH   4  25
ATOM     25  N   UNL     1      -0.715  -1.238   0.000  0.00  0.00    +0.000 NA
BRANCH  25  28
ATOM     26  O   UNL     1      -1.016  -2.365   0.000  0.00  0.00    +0.000 OA
ATOM     27  O   UNL     1      -1.841  -0.935   0.000  0.00  0.00    +0.000 OA
ATOM     28  S   UNL     1      -1.429  -1.650   0.000  0.00  0.00    +0.000 S 
BRANCH  28  34
ATOM     29  C   UNL     1      -2.858  -3.300   0.000  0.00  0.00    +0.000 A 
ATOM     30  C   UNL     1      -2.143  -2.888   0.000  0.00  0.00    +0.000 A 
ATOM     31  C   UNL     1      -3.572  -2.062   0.000  0.00  0.00    +0.000 A 
ATOM     32  C   UNL     1      -3.572  -2.888   0.000  0.00  0.00    +0.000 A 
ATOM     33  C   UNL     1      -2.858  -1.650   0.000  0.00  0.00    +0.000 A 
ATOM     34  C   UNL     1      -2.143  -2.062   0.000  0.00  0.00    +0.000 A 
ATOM     35  F   UNL     1      -4.287  -3.300   0.000  0.00  0.00    +0.000 F 
ATOM     36  F   UNL     1      -2.858  -0.825   0.000  0.00  0.00    +0.000 F 
ENDBRANCH  28  34
ENDBRANCH  25  28
ENDBRANCH   4  25
TORSDOF 6
