REMARK  Name = 
REMARK  1 active torsions:
REMARK  status: ('A' for Active; 'I' for Inactive)
REMARK    1  A    between atoms: C_2  and  C_4
REMARK                            x       y       z     vdW  Elec       q    Type
REMARK                         _______ _______ _______ _____ _____    ______ ____
ROOT
ATOM      1  C   UNL     1       2.858   1.650   0.000  0.00  0.00    +0.000 C 
ATOM      2  C   UNL     1       2.858   0.825   0.000  0.00  0.00    +0.000 C 
ATOM      3  C   UNL     1       2.143   0.412   0.000  0.00  0.00    +0.000 C 
ATOM      4  C   UNL     1       1.429   0.825   0.000  0.00  0.00    +0.000 C 
ATOM      5  C   UNL     1       1.016   0.111   0.000  0.00  0.00    +0.000 C 
ATOM      6  O   UNL     1       0.715   1.238   0.000  0.00  0.00    +0.000 OA
ATOM      7  C   UNL     1       1.429   1.650   0.000  0.00  0.00    +0.000 C 
ATOM      8  C   UNL     1       2.143   2.062   0.000  0.00  0.00    +0.000 C 
ENDROOT
BRANCH   1  10
ATOM      9  C   UNL     1       3.572   2.888   0.000  0.00  0.00    +0.000 C 
ATOM     10  C   UNL     1       3.572   2.062   0.000  0.00  0.00    +0.000 C 
ATOM     11  C   UNL     1       4.287   1.650   0.000  0.00  0.00    +0.000 C 
ENDBRANCH   1  10
TORSDOF 1
