REMARK  Name = 
REMARK  4 active torsions:
REMARK  status: ('A' for Active; 'I' for Inactive)
REMARK    1  A    between atoms: C_4  and  C_9
REMARK    2  A    between atoms: C_4  and  C_14
REMARK    3  A    between atoms: C_7  and  C_9
REMARK    4  A    between atoms: C_7  and  N_21
REMARK                            x       y       z     vdW  Elec       q    Type
REMARK                         _______ _______ _______ _____ _____    ______ ____
ROOT
ATOM      1  C   UNL     1       2.143  -0.412   0.000  0.00  0.00    +0.000 A 
ATOM      2  C   UNL     1       2.143   1.238   0.000  0.00  0.00    +0.000 A 
ATOM      3  C   UNL     1       4.287   0.825   0.000  0.00  0.00    +0.000 A 
ATOM      4  C   UNL     1       2.858   0.000   0.000  0.00  0.00    +0.000 A 
ATOM      5  C   UNL     1       1.429   0.825   0.000  0.00  0.00    +0.000 A 
ATOM      6  C   UNL     1       1.429   0.000   0.000  0.00  0.00    +0.000 A 
ATOM      7  C   UNL     1       2.858   0.825   0.000  0.00  0.00    +0.000 A 
ATOM      8  C   UNL     1       3.572  -0.412   0.000  0.00  0.00    +0.000 A 
ATOM      9 BR   UNL     1       0.715   1.238   0.000  0.00  0.00    +0.000 Br
ATOM     10 CL   UNL     1       0.715  -0.412   0.000  0.00  0.00    +0.000 Cl
ATOM     11  N   UNL     1       3.572   1.238   0.000  0.00  0.00    +0.000 NA
ATOM     12  N   UNL     1       4.287   0.000   0.000  0.00  0.00    +0.000 N 
ATOM     13  O   UNL     1       3.572  -1.238   0.000  0.00  0.00    +0.000 OA
ENDROOT
BRANCH  12  14
ATOM     14  C   UNL     1       5.001  -0.412   0.000  0.00  0.00    +0.000 C 
BRANCH  14  15
ATOM     15  C   UNL     1       5.716   0.000   0.000  0.00  0.00    +0.000 C 
ATOM     16  O   UNL     1       5.716   0.825   0.000  0.00  0.00    +0.000 OA
BRANCH  15  17
ATOM     17  C   UNL     1       6.430  -0.412   0.000  0.00  0.00    +0.000 C 
BRANCH  17  21
ATOM     18  C   UNL     1       8.574   0.825   0.000  0.00  0.00    +0.000 C 
ATOM     19  C   UNL     1       7.859   1.238   0.000  0.00  0.00    +0.000 C 
ATOM     20  C   UNL     1       8.574   0.000   0.000  0.00  0.00    +0.000 C 
ATOM     21  C   UNL     1       7.145   0.000   0.000  0.00  0.00    +0.000 C 
ATOM     22  C   UNL     1       7.145   0.825   0.000  0.00  0.00    +0.000 C 
ATOM     23  N   UNL     1       7.859  -0.412   0.000  0.00  0.00    +0.000 NA
ATOM     24  O   UNL     1       6.430   1.238   0.000  0.00  0.00    +0.000 OA
ENDBRANCH  17  21
ENDBRANCH  15  17
ENDBRANCH  14  15
ENDBRANCH  12  14
TORSDOF 4
