REMARK  Name = 
REMARK  1 active torsions:
REMARK  status: ('A' for Active; 'I' for Inactive)
REMARK    1  A    between atoms: C_16  and  C_21
REMARK                            x       y       z     vdW  Elec       q    Type
REMARK                         _______ _______ _______ _____ _____    ______ ____
ROOT
ATOM      1  O   UNL     1       3.554   1.459   0.000  0.00  0.00    +0.000 OA
ATOM      2  O   UNL     1       4.269   1.867   0.000  0.00  0.00    +0.000 OA
ATOM      3  O   UNL     1       6.435  -0.220   0.000  0.00  0.00    +0.000 OA
ATOM      4  O   UNL     1       4.724   2.205   0.000  0.00  0.00    +0.000 OA
ATOM      5  O   UNL     1       2.094  -0.240   0.000  0.00  0.00    +0.000 OA
ATOM      6  O   UNL     1       2.089   0.628   0.000  0.00  0.00    +0.000 OA
ATOM      7  O   UNL     1       3.268   0.553   0.000  0.00  0.00    +0.000 OA
ATOM      8  N   UNL     1       5.019  -1.079   0.000  0.00  0.00    +0.000 NA
ATOM      9  N   UNL     1       3.534  -1.085   0.000  0.00  0.00    +0.000 NA
ATOM     10  N   UNL     1       4.282  -2.340   0.000  0.00  0.00    +0.000 NA
ATOM     11  C   UNL     1       5.006  -0.220   0.000  0.00  0.00    +0.000 C 
ATOM     12  C   UNL     1       4.292   0.193   0.000  0.00  0.00    +0.000 C 
ATOM     13  C   UNL     1       4.292   1.018   0.000  0.00  0.00    +0.000 C 
ATOM     14  C   UNL     1       5.721   0.193   0.000  0.00  0.00    +0.000 C 
ATOM     15  C   UNL     1       5.006   1.430   0.000  0.00  0.00    +0.000 C 
ATOM     16  C   UNL     1       5.721   1.018   0.000  0.00  0.00    +0.000 C 
ATOM     17  C   UNL     1       2.807   0.175   0.000  0.00  0.00    +0.000 C 
ATOM     18  C   UNL     1       2.807   1.035   0.000  0.00  0.00    +0.000 C 
ATOM     19  C   UNL     1       3.541  -0.226   0.000  0.00  0.00    +0.000 C 
ATOM     20  C   UNL     1       4.279  -1.515   0.000  0.00  0.00    +0.000 C 
ENDROOT
BRANCH  15  22
ATOM     21  O   UNL     1       6.244   2.144   0.000  0.00  0.00    +0.000 OA
ATOM     22  C   UNL     1       5.419   2.144   0.000  0.00  0.00    +0.000 C 
ENDBRANCH  15  22
TORSDOF 1
