REMARK  Name = 
REMARK  36 active torsions:
REMARK  status: ('A' for Active; 'I' for Inactive)
REMARK    1  A    between atoms: C_11  and  C_17
REMARK    2  A    between atoms: C_11  and  C_19
REMARK    3  A    between atoms: C_12  and  C_18
REMARK    4  A    between atoms: C_12  and  C_20
REMARK    5  A    between atoms: C_13  and  C_21
REMARK    6  A    between atoms: C_13  and  C_23
REMARK    7  A    between atoms: C_14  and  C_22
REMARK    8  A    between atoms: C_14  and  C_24
REMARK    9  A    between atoms: C_15  and  C_25
REMARK   10  A    between atoms: C_15  and  C_27
REMARK   11  A    between atoms: C_16  and  C_26
REMARK   12  A    between atoms: C_16  and  C_28
REMARK   13  A    between atoms: C_17  and  C_35
REMARK   14  A    between atoms: C_18  and  C_36
REMARK   15  A    between atoms: C_19  and  C_37
REMARK   16  A    between atoms: C_20  and  C_38
REMARK   17  A    between atoms: C_21  and  C_37
REMARK   18  A    between atoms: C_22  and  C_38
REMARK   19  A    between atoms: C_23  and  C_39
REMARK   20  A    between atoms: C_24  and  C_40
REMARK   21  A    between atoms: C_25  and  C_39
REMARK   22  A    between atoms: C_26  and  C_40
REMARK   23  A    between atoms: C_27  and  C_41
REMARK   24  A    between atoms: C_28  and  C_42
REMARK   25  A    between atoms: C_29  and  C_31
REMARK   26  A    between atoms: C_29  and  C_41
REMARK   27  A    between atoms: C_30  and  C_32
REMARK   28  A    between atoms: C_30  and  C_42
REMARK   29  A    between atoms: C_31  and  O_47
REMARK   30  A    between atoms: C_32  and  O_48
REMARK   31  A    between atoms: C_33  and  C_43
REMARK   32  A    between atoms: C_33  and  O_47
REMARK   33  A    between atoms: C_34  and  C_43
REMARK   34  A    between atoms: C_34  and  O_49
REMARK   35  A    between atoms: C_43  and  O_48
REMARK   36  A    between atoms: O_49  and  P_50
REMARK                            x       y       z     vdW  Elec       q    Type
REMARK                         _______ _______ _______ _____ _____    ______ ____
ROOT
ATOM      1  C   UNL     1      22.157  -5.716   0.000  0.00  0.00    +0.000 C 
ENDROOT
BRANCH   1   2
ATOM      2  C   UNL     1      21.442  -5.303   0.000  0.00  0.00    +0.000 C 
BRANCH   2   3
ATOM      3  O   UNL     1      20.728  -5.716   0.000  0.00  0.00    +0.000 OA
BRANCH   3   4
ATOM      4  C   UNL     1      20.013  -5.303   0.000  0.00  0.00    +0.000 C 
BRANCH   4   5
ATOM      5  C   UNL     1      19.299  -5.716   0.000  0.00  0.00    +0.000 C 
BRANCH   5   7
ATOM      6  C   UNL     1      18.584  -4.478   0.000  0.00  0.00    +0.000 C 
ATOM      7  C   UNL     1      18.584  -5.303   0.000  0.00  0.00    +0.000 C 
BRANCH   7   8
ATOM      8  C   UNL     1      17.870  -5.716   0.000  0.00  0.00    +0.000 C 
BRANCH   8   9
ATOM      9  C   UNL     1      17.155  -5.303   0.000  0.00  0.00    +0.000 C 
BRANCH   9  10
ATOM     10  C   UNL     1      16.441  -5.716   0.000  0.00  0.00    +0.000 C 
BRANCH  10  12
ATOM     11  C   UNL     1      15.726  -4.478   0.000  0.00  0.00    +0.000 C 
ATOM     12  C   UNL     1      15.726  -5.303   0.000  0.00  0.00    +0.000 C 
BRANCH  12  13
ATOM     13  C   UNL     1      15.012  -5.716   0.000  0.00  0.00    +0.000 C 
BRANCH  13  14
ATOM     14  C   UNL     1      14.297  -5.303   0.000  0.00  0.00    +0.000 C 
BRANCH  14  15
ATOM     15  C   UNL     1      13.583  -5.716   0.000  0.00  0.00    +0.000 C 
BRANCH  15  17
ATOM     16  C   UNL     1      12.868  -4.478   0.000  0.00  0.00    +0.000 C 
ATOM     17  C   UNL     1      12.868  -5.303   0.000  0.00  0.00    +0.000 C 
BRANCH  17  18
ATOM     18  C   UNL     1      12.154  -5.716   0.000  0.00  0.00    +0.000 C 
BRANCH  18  19
ATOM     19  C   UNL     1      11.440  -5.303   0.000  0.00  0.00    +0.000 C 
BRANCH  19  20
ATOM     20  C   UNL     1      10.725  -5.716   0.000  0.00  0.00    +0.000 C 
BRANCH  20  23
ATOM     21  C   UNL     1       9.296  -5.716   0.000  0.00  0.00    +0.000 C 
ATOM     22  C   UNL     1      10.011  -4.478   0.000  0.00  0.00    +0.000 C 
ATOM     23  C   UNL     1      10.011  -5.303   0.000  0.00  0.00    +0.000 C 
ENDBRANCH  20  23
ENDBRANCH  19  20
ENDBRANCH  18  19
ENDBRANCH  17  18
ENDBRANCH  15  17
ENDBRANCH  14  15
ENDBRANCH  13  14
ENDBRANCH  12  13
ENDBRANCH  10  12
ENDBRANCH   9  10
ENDBRANCH   8   9
ENDBRANCH   7   8
ENDBRANCH   5   7
ENDBRANCH   4   5
ENDBRANCH   3   4
ENDBRANCH   2   3
ENDBRANCH   1   2
BRANCH   1  24
ATOM     24  C   UNL     1      22.157  -6.541   0.000  0.00  0.00    +0.000 C 
BRANCH  24  25
ATOM     25  O   UNL     1      22.871  -6.953   0.000  0.00  0.00    +0.000 OA
BRANCH  25  29
ATOM     26  O   UNL     1      22.046  -7.778   0.000  0.00  0.00    +0.000 OA
ATOM     27  O   UNL     1      23.696  -7.778   0.000  0.00  0.00    +0.000 OA
ATOM     28  O   UNL     1      22.871  -8.603   0.000  0.00  0.00    +0.000 OA
ATOM     29  P   UNL     1      22.871  -7.778   0.000  0.00  0.00    +0.000 P 
ENDBRANCH  25  29
ENDBRANCH  24  25
ENDBRANCH   1  24
BRANCH   1  30
ATOM     30  O   UNL     1      22.871  -5.303   0.000  0.00  0.00    +0.000 OA
BRANCH  30  31
ATOM     31  C   UNL     1      23.585  -5.716   0.000  0.00  0.00    +0.000 C 
BRANCH  31  32
ATOM     32  C   UNL     1      24.300  -5.303   0.000  0.00  0.00    +0.000 C 
BRANCH  32  34
ATOM     33  C   UNL     1      25.014  -6.541   0.000  0.00  0.00    +0.000 C 
ATOM     34  C   UNL     1      25.014  -5.716   0.000  0.00  0.00    +0.000 C 
BRANCH  34  35
ATOM     35  C   UNL     1      25.729  -5.303   0.000  0.00  0.00    +0.000 C 
BRANCH  35  36
ATOM     36  C   UNL     1      26.443  -5.716   0.000  0.00  0.00    +0.000 C 
BRANCH  36  37
ATOM     37  C   UNL     1      27.158  -5.303   0.000  0.00  0.00    +0.000 C 
BRANCH  37  39
ATOM     38  C   UNL     1      27.872  -6.541   0.000  0.00  0.00    +0.000 C 
ATOM     39  C   UNL     1      27.872  -5.716   0.000  0.00  0.00    +0.000 C 
BRANCH  39  40
ATOM     40  C   UNL     1      28.587  -5.303   0.000  0.00  0.00    +0.000 C 
BRANCH  40  41
ATOM     41  C   UNL     1      29.301  -5.716   0.000  0.00  0.00    +0.000 C 
BRANCH  41  42
ATOM     42  C   UNL     1      30.016  -5.303   0.000  0.00  0.00    +0.000 C 
BRANCH  42  44
ATOM     43  C   UNL     1      30.730  -6.541   0.000  0.00  0.00    +0.000 C 
ATOM     44  C   UNL     1      30.730  -5.716   0.000  0.00  0.00    +0.000 C 
BRANCH  44  45
ATOM     45  C   UNL     1      31.445  -5.303   0.000  0.00  0.00    +0.000 C 
BRANCH  45  46
ATOM     46  C   UNL     1      32.159  -5.716   0.000  0.00  0.00    +0.000 C 
BRANCH  46  47
ATOM     47  C   UNL     1      32.874  -5.303   0.000  0.00  0.00    +0.000 C 
BRANCH  47  50
ATOM     48  C   UNL     1      34.303  -5.303   0.000  0.00  0.00    +0.000 C 
ATOM     49  C   UNL     1      33.588  -6.541   0.000  0.00  0.00    +0.000 C 
ATOM     50  C   UNL     1      33.588  -5.716   0.000  0.00  0.00    +0.000 C 
ENDBRANCH  47  50
ENDBRANCH  46  47
ENDBRANCH  45  46
ENDBRANCH  44  45
ENDBRANCH  42  44
ENDBRANCH  41  42
ENDBRANCH  40  41
ENDBRANCH  39  40
ENDBRANCH  37  39
ENDBRANCH  36  37
ENDBRANCH  35  36
ENDBRANCH  34  35
ENDBRANCH  32  34
ENDBRANCH  31  32
ENDBRANCH  30  31
ENDBRANCH   1  30
TORSDOF 36
