REMARK  Name = 
REMARK  13 active torsions:
REMARK  status: ('A' for Active; 'I' for Inactive)
REMARK    1  A    between atoms: C_2  and  C_3
REMARK    2  A    between atoms: C_4  and  C_5
REMARK    3  A    between atoms: C_6  and  C_7
REMARK    4  A    between atoms: C_8  and  C_9
REMARK    5  A    between atoms: C_9  and  C_10
REMARK    6  A    between atoms: C_10  and  C_11
REMARK    7  A    between atoms: C_11  and  C_12
REMARK    8  A    between atoms: C_12  and  C_13
REMARK    9  A    between atoms: C_13  and  C_14
REMARK   10  A    between atoms: C_14  and  C_15
REMARK   11  A    between atoms: C_15  and  C_16
REMARK   12  A    between atoms: C_16  and  C_17
REMARK   13  A    between atoms: C_17  and  C_18
REMARK                            x       y       z     vdW  Elec       q    Type
REMARK                         _______ _______ _______ _____ _____    ______ ____
ROOT
ATOM      1  C   UNL     1       4.950   2.858   0.000  0.00  0.00    +0.000 C 
ENDROOT
BRANCH   1   2
ATOM      2  C   UNL     1       5.665   3.270   0.000  0.00  0.00    +0.000 C 
BRANCH   2   3
ATOM      3  C   UNL     1       6.379   2.858   0.000  0.00  0.00    +0.000 C 
BRANCH   3   4
ATOM      4  C   UNL     1       7.093   3.270   0.000  0.00  0.00    +0.000 C 
BRANCH   4   5
ATOM      5  C   UNL     1       7.808   2.858   0.000  0.00  0.00    +0.000 C 
BRANCH   5   6
ATOM      6  C   UNL     1       8.522   3.270   0.000  0.00  0.00    +0.000 C 
BRANCH   6   7
ATOM      7  C   UNL     1       9.237   2.858   0.000  0.00  0.00    +0.000 C 
BRANCH   7   8
ATOM      8  C   UNL     1       9.951   3.270   0.000  0.00  0.00    +0.000 C 
BRANCH   8   9
ATOM      9  C   UNL     1      10.666   2.858   0.000  0.00  0.00    +0.000 C 
ATOM     10  O   UNL     1      11.380   3.270   0.000  0.00  0.00    +0.000 OA
ATOM     11  O   UNL     1      10.666   2.033   0.000  0.00  0.00    +0.000 OA
ENDBRANCH   8   9
ENDBRANCH   7   8
ENDBRANCH   6   7
ENDBRANCH   5   6
ENDBRANCH   4   5
ENDBRANCH   3   4
ENDBRANCH   2   3
ENDBRANCH   1   2
BRANCH   1  12
ATOM     12  C   UNL     1       4.236   3.270   0.000  0.00  0.00    +0.000 C 
BRANCH  12  14
ATOM     13  C   UNL     1       2.807   3.270   0.000  0.00  0.00    +0.000 C 
ATOM     14  C   UNL     1       3.521   2.858   0.000  0.00  0.00    +0.000 C 
BRANCH  13  16
ATOM     15  C   UNL     1       1.378   3.270   0.000  0.00  0.00    +0.000 C 
ATOM     16  C   UNL     1       2.092   2.858   0.000  0.00  0.00    +0.000 C 
BRANCH  15  18
ATOM     17  C   UNL     1      -0.051   3.270   0.000  0.00  0.00    +0.000 C 
ATOM     18  C   UNL     1       0.663   2.858   0.000  0.00  0.00    +0.000 C 
BRANCH  17  20
ATOM     19  C   UNL     1      -0.766   4.508   0.000  0.00  0.00    +0.000 C 
ATOM     20  C   UNL     1      -0.051   4.095   0.000  0.00  0.00    +0.000 C 
ENDBRANCH  17  20
ENDBRANCH  15  18
ENDBRANCH  13  16
ENDBRANCH  12  14
ENDBRANCH   1  12
TORSDOF 13
