REMARK  Name = 
REMARK  9 active torsions:
REMARK  status: ('A' for Active; 'I' for Inactive)
REMARK    1  A    between atoms: C_3  and  N_21
REMARK    2  A    between atoms: C_4  and  N_21
REMARK    3  A    between atoms: C_15  and  C_16
REMARK    4  A    between atoms: C_15  and  N_21
REMARK    5  A    between atoms: C_16  and  O_24
REMARK    6  A    between atoms: C_17  and  C_20
REMARK    7  A    between atoms: C_18  and  C_20
REMARK    8  A    between atoms: C_19  and  C_20
REMARK    9  A    between atoms: C_19  and  O_24
REMARK                            x       y       z     vdW  Elec       q    Type
REMARK                         _______ _______ _______ _____ _____    ______ ____
ROOT
ATOM      1  C   UNL     1       8.603  -1.318   0.000  0.00  0.00    +0.000 C 
ATOM      2  O   UNL     1       8.191  -2.033   0.000  0.00  0.00    +0.000 OA
ENDROOT
BRANCH   1   8
ATOM      3  C   UNL     1      10.747  -2.556   0.000  0.00  0.00    +0.000 A 
ATOM      4  C   UNL     1      10.747  -1.731   0.000  0.00  0.00    +0.000 A 
ATOM      5  C   UNL     1      10.032  -2.968   0.000  0.00  0.00    +0.000 A 
ATOM      6  C   UNL     1      10.032  -1.318   0.000  0.00  0.00    +0.000 A 
ATOM      7  C   UNL     1       9.318  -2.556   0.000  0.00  0.00    +0.000 A 
ATOM      8  C   UNL     1       9.318  -1.731   0.000  0.00  0.00    +0.000 A 
ENDBRANCH   1   8
BRANCH   1  14
ATOM      9  C   UNL     1       9.841   0.825   0.000  0.00  0.00    +0.000 A 
ATOM     10  C   UNL     1       9.016   0.825   0.000  0.00  0.00    +0.000 A 
ATOM     11  C   UNL     1      10.253   0.111   0.000  0.00  0.00    +0.000 A 
ATOM     12  C   UNL     1       8.603   0.111   0.000  0.00  0.00    +0.000 A 
ATOM     13  C   UNL     1       9.841  -0.604   0.000  0.00  0.00    +0.000 A 
ATOM     14  C   UNL     1       9.016  -0.604   0.000  0.00  0.00    +0.000 A 
ENDBRANCH   1  14
BRANCH   1  15
ATOM     15  C   UNL     1       7.889  -0.906   0.000  0.00  0.00    +0.000 C 
ATOM     16  O   UNL     1       7.889  -0.081   0.000  0.00  0.00    +0.000 OA
BRANCH  15  17
ATOM     17  O   UNL     1       7.174  -1.318   0.000  0.00  0.00    +0.000 OA
BRANCH  17  18
ATOM     18  C   UNL     1       6.460  -0.906   0.000  0.00  0.00    +0.000 C 
BRANCH  18  19
ATOM     19  C   UNL     1       5.745  -1.318   0.000  0.00  0.00    +0.000 C 
BRANCH  19  20
ATOM     20  N   UNL     1       5.031  -0.906   0.000  0.00  0.00    +0.000 NA
BRANCH  20  22
ATOM     21  C   UNL     1       3.602  -0.906   0.000  0.00  0.00    +0.000 C 
ATOM     22  C   UNL     1       4.316  -1.318   0.000  0.00  0.00    +0.000 C 
ENDBRANCH  20  22
BRANCH  20  24
ATOM     23  C   UNL     1       5.745   0.332   0.000  0.00  0.00    +0.000 C 
ATOM     24  C   UNL     1       5.031  -0.081   0.000  0.00  0.00    +0.000 C 
ENDBRANCH  20  24
ENDBRANCH  19  20
ENDBRANCH  18  19
ENDBRANCH  17  18
ENDBRANCH  15  17
ENDBRANCH   1  15
TORSDOF 9
