REMARK  Name = 
REMARK  4 active torsions:
REMARK  status: ('A' for Active; 'I' for Inactive)
REMARK    1  A    between atoms: O_2  and  C_8
REMARK    2  A    between atoms: O_2  and  C_13
REMARK    3  A    between atoms: C_25  and  O_34
REMARK    4  A    between atoms: C_46  and  O_51
REMARK                            x       y       z     vdW  Elec       q    Type
REMARK                         _______ _______ _______ _____ _____    ______ ____
ROOT
ATOM      1  O   UNL     1      12.612  -3.324   0.000  0.00  0.00    +0.000 OA
ATOM      2  O   UNL     1      11.456  -2.657   0.000  0.00  0.00    +0.000 OA
ATOM      3  C   UNL     1      13.498  -1.280   0.000  0.00  0.00    +0.000 A 
ATOM      4  C   UNL     1      13.498  -2.105   0.000  0.00  0.00    +0.000 A 
ATOM      5  C   UNL     1      12.784  -2.517   0.000  0.00  0.00    +0.000 A 
ATOM      6  C   UNL     1      12.784  -0.867   0.000  0.00  0.00    +0.000 A 
ATOM      7  C   UNL     1      12.069  -2.105   0.000  0.00  0.00    +0.000 A 
ATOM      8  C   UNL     1      12.069  -1.280   0.000  0.00  0.00    +0.000 A 
ATOM      9  C   UNL     1      11.792  -3.410   0.000  0.00  0.00    +0.000 C 
ATOM     10  C   UNL     1      11.355  -0.867   0.000  0.00  0.00    +0.000 C 
ATOM     11  C   UNL     1      14.213  -0.867   0.000  0.00  0.00    +0.000 C 
ATOM     12  C   UNL     1      14.213  -2.517   0.000  0.00  0.00    +0.000 C 
ATOM     13  N   UNL     1      14.927  -2.105   0.000  0.00  0.00    +0.000 NA
ATOM     14  C   UNL     1      14.927  -1.280   0.000  0.00  0.00    +0.000 C 
ATOM     15  C   UNL     1      15.642  -0.867   0.000  0.00  0.00    +0.000 C 
ATOM     16  C   UNL     1      15.642  -2.517   0.000  0.00  0.00    +0.000 C 
ATOM     17  C   UNL     1      16.356  -2.105   0.000  0.00  0.00    +0.000 C 
ATOM     18  N   UNL     1      16.356  -1.280   0.000  0.00  0.00    +0.000 NA
ATOM     19  C   UNL     1      12.784   3.037   0.000  0.00  0.00    +0.000 A 
ATOM     20  C   UNL     1      12.069   2.624   0.000  0.00  0.00    +0.000 A 
ATOM     21  C   UNL     1      12.069   1.799   0.000  0.00  0.00    +0.000 A 
ATOM     22  C   UNL     1      12.784   1.387   0.000  0.00  0.00    +0.000 A 
ATOM     23  C   UNL     1      13.498   1.799   0.000  0.00  0.00    +0.000 A 
ATOM     24  C   UNL     1      13.498   2.624   0.000  0.00  0.00    +0.000 A 
ATOM     25  C   UNL     1      14.213   3.037   0.000  0.00  0.00    +0.000 C 
ATOM     26  C   UNL     1      14.213   1.387   0.000  0.00  0.00    +0.000 C 
ATOM     27  N   UNL     1      14.927   1.799   0.000  0.00  0.00    +0.000 NA
ATOM     28  C   UNL     1      14.927   2.624   0.000  0.00  0.00    +0.000 C 
ATOM     29  O   UNL     1      11.355   3.037   0.000  0.00  0.00    +0.000 OA
ATOM     30  C   UNL     1      14.331  -1.663   0.000  0.00  0.00    +0.000 C 
ATOM     31  O   UNL     1      13.800  -0.388   0.000  0.00  0.00    +0.000 OA
ATOM     32  S   UNL     1      14.625  -0.153   0.000  0.00  0.00    +0.000 S 
ATOM     33  C   UNL     1      14.625   0.672   0.000  0.00  0.00    +0.000 C 
ATOM     34  C   UNL     1      13.630   0.804   0.000  0.00  0.00    +0.000 C 
ATOM     35  C   UNL     1      16.989  -0.921   0.000  0.00  0.00    +0.000 C 
ATOM     36  O   UNL     1      12.833   1.017   0.000  0.00  0.00    +0.000 OA
ATOM     37  O   UNL     1      15.642  -3.342   0.000  0.00  0.00    +0.000 OA
ATOM     38  C   UNL     1      17.595  -0.536   0.000  0.00  0.00    +0.000 A 
ATOM     39  C   UNL     1      17.595   1.114   0.000  0.00  0.00    +0.000 A 
ATOM     40  C   UNL     1      16.880   0.701   0.000  0.00  0.00    +0.000 A 
ATOM     41  C   UNL     1      18.309  -0.124   0.000  0.00  0.00    +0.000 A 
ATOM     42  C   UNL     1      18.309   0.701   0.000  0.00  0.00    +0.000 A 
ATOM     43  C   UNL     1      19.023   1.114   0.000  0.00  0.00    +0.000 C 
ATOM     44  O   UNL     1      16.166   1.114   0.000  0.00  0.00    +0.000 OA
ATOM     45  C   UNL     1      16.880  -0.124   0.000  0.00  0.00    +0.000 A 
ATOM     46  C   UNL     1      17.595  -1.361   0.000  0.00  0.00    +0.000 C 
ENDROOT
BRANCH  21  47
ATOM     47  O   UNL     1      11.355   1.387   0.000  0.00  0.00    +0.000 OA
ATOM     48  C   UNL     1      10.640   1.799   0.000  0.00  0.00    +0.000 C 
ENDBRANCH  21  47
BRANCH  39  49
ATOM     49  O   UNL     1      17.595   1.939   0.000  0.00  0.00    +0.000 OA
ATOM     50  C   UNL     1      18.309   2.351   0.000  0.00  0.00    +0.000 C 
ENDBRANCH  39  49
BRANCH   6  51
ATOM     51  O   UNL     1      12.784  -0.042   0.000  0.00  0.00    +0.000 OA
BRANCH  51  53
ATOM     52  O   UNL     1      12.069   1.195   0.000  0.00  0.00    +0.000 OA
ATOM     53  C   UNL     1      12.069   0.370   0.000  0.00  0.00    +0.000 C 
ATOM     54  C   UNL     1      11.355  -0.042   0.000  0.00  0.00    +0.000 C 
ENDBRANCH  51  53
ENDBRANCH   6  51
TORSDOF 4
