REMARK  Name = 
REMARK  4 active torsions:
REMARK  status: ('A' for Active; 'I' for Inactive)
REMARK    1  A    between atoms: C_3  and  O_23
REMARK    2  A    between atoms: C_8  and  C_21
REMARK    3  A    between atoms: C_13  and  C_15
REMARK    4  A    between atoms: C_20  and  C_21
REMARK                            x       y       z     vdW  Elec       q    Type
REMARK                         _______ _______ _______ _____ _____    ______ ____
ROOT
ATOM      1  C   UNL     1      -0.715  -0.825   0.000  0.00  0.00    +0.000 A 
ATOM      2  C   UNL     1      -1.429  -0.412   0.000  0.00  0.00    +0.000 A 
ATOM      3  C   UNL     1      -1.429   0.412   0.000  0.00  0.00    +0.000 A 
ATOM      4  C   UNL     1      -0.715   0.825   0.000  0.00  0.00    +0.000 A 
ATOM      5  C   UNL     1       0.000   0.412   0.000  0.00  0.00    +0.000 A 
ATOM      6  C   UNL     1       0.000  -0.412   0.000  0.00  0.00    +0.000 A 
ATOM      7  N   UNL     1       0.715  -0.825   0.000  0.00  0.00    +0.000 NA
ATOM      8  C   UNL     1       0.715   0.825   0.000  0.00  0.00    +0.000 A 
ATOM      9  C   UNL     1       1.429   0.412   0.000  0.00  0.00    +0.000 A 
ATOM     10  C   UNL     1       1.429  -0.412   0.000  0.00  0.00    +0.000 A 
ENDROOT
BRANCH   8  11
ATOM     11  C   UNL     1       0.714   1.650   0.000  0.00  0.00    +0.000 C 
ATOM     12  O   UNL     1       0.000   2.062   0.000  0.00  0.00    +0.000 OA
BRANCH  11  20
ATOM     13  C   UNL     1       1.429   2.888   0.000  0.00  0.00    +0.000 C 
ATOM     14  C   UNL     1       2.858   2.063   0.000  0.00  0.00    +0.000 C 
ATOM     15  C   UNL     1       2.858   2.888   0.000  0.00  0.00    +0.000 C 
ATOM     16  C   UNL     1       2.556   2.586   0.000  0.00  0.00    +0.000 C 
ATOM     17  C   UNL     1       2.143   3.300   0.000  0.00  0.00    +0.000 C 
ATOM     18  N   UNL     1       2.143   1.650   0.000  0.00  0.00    +0.000 NA
ATOM     19  C   UNL     1       2.556   0.936   0.000  0.00  0.00    +0.000 C 
ATOM     20  C   UNL     1       1.429   2.062   0.000  0.00  0.00    +0.000 C 
BRANCH  15  21
ATOM     21  C   UNL     1       3.572   3.300   0.000  0.00  0.00    +0.000 C 
ATOM     22  C   UNL     1       4.287   2.888   0.000  0.00  0.00    +0.000 C 
ENDBRANCH  15  21
ENDBRANCH  11  20
ENDBRANCH   8  11
BRANCH   3  23
ATOM     23  O   UNL     1      -2.143   0.825   0.000  0.00  0.00    +0.000 OA
ATOM     24  C   UNL     1      -2.858   0.412   0.000  0.00  0.00    +0.000 C 
ENDBRANCH   3  23
TORSDOF 4
