REMARK  Name = 
REMARK  7 active torsions:
REMARK  status: ('A' for Active; 'I' for Inactive)
REMARK    1  A    between atoms: C_1  and  C_8
REMARK    2  A    between atoms: C_2  and  C_9
REMARK    3  A    between atoms: C_3  and  C_10
REMARK    4  A    between atoms: C_4  and  C_11
REMARK    5  A    between atoms: C_5  and  C_12
REMARK    6  A    between atoms: C_6  and  C_13
REMARK    7  A    between atoms: C_7  and  C_14
REMARK                            x       y       z     vdW  Elec       q    Type
REMARK                         _______ _______ _______ _____ _____    ______ ____
ROOT
ATOM      1  C   UNL     1      11.279   1.691   0.000  0.00  0.00    +0.000 C 
ATOM      2  C   UNL     1       9.105   0.298   0.000  0.00  0.00    +0.000 C 
ATOM      3  C   UNL     1      11.546   4.259   0.000  0.00  0.00    +0.000 C 
ATOM      4  C   UNL     1       6.661   1.129   0.000  0.00  0.00    +0.000 C 
ATOM      5  C   UNL     1      10.233   7.412   0.000  0.00  0.00    +0.000 C 
ATOM      6  C   UNL     1       5.787   3.558   0.000  0.00  0.00    +0.000 C 
ATOM      7  C   UNL     1       7.141   5.756   0.000  0.00  0.00    +0.000 C 
ATOM      8  C   UNL     1      12.472   0.876   0.000  0.00  0.00    +0.000 C 
ATOM      9  C   UNL     1      12.927   4.684   0.000  0.00  0.00    +0.000 C 
ATOM     10  C   UNL     1       9.212  -1.143   0.000  0.00  0.00    +0.000 C 
ATOM     11  C   UNL     1       9.704   6.068   0.000  0.00  0.00    +0.000 C 
ATOM     12  C   UNL     1       5.601   0.147   0.000  0.00  0.00    +0.000 C 
ATOM     13  C   UNL     1       6.420   7.008   0.000  0.00  0.00    +0.000 C 
ATOM     14  C   UNL     1       4.359   3.775   0.000  0.00  0.00    +0.000 C 
ATOM     15  C   UNL     1      12.006   0.181   0.000  0.00  0.00    +0.000 C 
ATOM     16  C   UNL     1      13.179   3.886   0.000  0.00  0.00    +0.000 C 
ATOM     17  C   UNL     1       8.379  -1.211   0.000  0.00  0.00    +0.000 C 
ATOM     18  C   UNL     1      10.468   5.766   0.000  0.00  0.00    +0.000 C 
ATOM     19  C   UNL     1       5.028   0.756   0.000  0.00  0.00    +0.000 C 
ATOM     20  C   UNL     1       7.141   7.431   0.000  0.00  0.00    +0.000 C 
ATOM     21  C   UNL     1       4.477   4.603   0.000  0.00  0.00    +0.000 C 
ATOM     22  C   UNL     1      12.122   1.648   0.000  0.00  0.00    +0.000 C 
ATOM     23  C   UNL     1       9.597  -0.388   0.000  0.00  0.00    +0.000 C 
ATOM     24  C   UNL     1      12.104   4.891   0.000  0.00  0.00    +0.000 C 
ATOM     25  C   UNL     1       6.432   0.317   0.000  0.00  0.00    +0.000 C 
ATOM     26  C   UNL     1       9.558   6.899   0.000  0.00  0.00    +0.000 C 
ATOM     27  C   UNL     1       5.009   3.231   0.000  0.00  0.00    +0.000 C 
ATOM     28  C   UNL     1       6.401   6.160   0.000  0.00  0.00    +0.000 C 
ATOM     29  C   UNL     1      11.160   0.241   0.000  0.00  0.00    +0.000 C 
ATOM     30  C   UNL     1      12.604   3.262   0.000  0.00  0.00    +0.000 C 
ATOM     31  C   UNL     1       7.898  -0.512   0.000  0.00  0.00    +0.000 C 
ATOM     32  C   UNL     1      11.143   6.274   0.000  0.00  0.00    +0.000 C 
ATOM     33  C   UNL     1       5.275   1.568   0.000  0.00  0.00    +0.000 C 
ATOM     34  C   UNL     1       7.878   7.010   0.000  0.00  0.00    +0.000 C 
ATOM     35  C   UNL     1       5.266   4.916   0.000  0.00  0.00    +0.000 C 
ATOM     36  O   UNL     1      13.294   0.808   0.000  0.00  0.00    +0.000 OA
ATOM     37  O   UNL     1      13.492   5.284   0.000  0.00  0.00    +0.000 OA
ATOM     38  O   UNL     1       9.672  -1.828   0.000  0.00  0.00    +0.000 OA
ATOM     39  O   UNL     1       9.065   5.547   0.000  0.00  0.00    +0.000 OA
ATOM     40  O   UNL     1       5.352  -0.639   0.000  0.00  0.00    +0.000 OA
ATOM     41  O   UNL     1       5.708   7.426   0.000  0.00  0.00    +0.000 OA
ATOM     42  O   UNL     1       3.588   3.479   0.000  0.00  0.00    +0.000 OA
ATOM     43  O   UNL     1      12.368  -0.560   0.000  0.00  0.00    +0.000 OA
ATOM     44  O   UNL     1      13.984   3.707   0.000  0.00  0.00    +0.000 OA
ATOM     45  O   UNL     1       8.025  -1.957   0.000  0.00  0.00    +0.000 OA
ATOM     46  O   UNL     1      10.579   4.949   0.000  0.00  0.00    +0.000 OA
ATOM     47  O   UNL     1       4.225   0.568   0.000  0.00  0.00    +0.000 OA
ATOM     48  O   UNL     1       7.137   8.257   0.000  0.00  0.00    +0.000 OA
ATOM     49  O   UNL     1       3.829   5.114   0.000  0.00  0.00    +0.000 OA
ATOM     50  O   UNL     1      10.815   1.013   0.000  0.00  0.00    +0.000 OA
ATOM     51  O   UNL     1      11.786   3.473   0.000  0.00  0.00    +0.000 OA
ATOM     52  O   UNL     1       8.286   0.238   0.000  0.00  0.00    +0.000 OA
ATOM     53  O   UNL     1      11.014   7.112   0.000  0.00  0.00    +0.000 OA
ATOM     54  O   UNL     1       6.103   1.732   0.000  0.00  0.00    +0.000 OA
ATOM     55  O   UNL     1       7.854   6.166   0.000  0.00  0.00    +0.000 OA
ATOM     56  O   UNL     1       5.911   4.371   0.000  0.00  0.00    +0.000 OA
ATOM     57  O   UNL     1      12.536   2.399   0.000  0.00  0.00    +0.000 OA
ATOM     58  O   UNL     1      10.443  -0.243   0.000  0.00  0.00    +0.000 OA
ATOM     59  O   UNL     1      11.776   5.683   0.000  0.00  0.00    +0.000 OA
ATOM     60  O   UNL     1       7.072  -0.254   0.000  0.00  0.00    +0.000 OA
ATOM     61  O   UNL     1       8.734   7.136   0.000  0.00  0.00    +0.000 OA
ATOM     62  O   UNL     1       4.962   2.375   0.000  0.00  0.00    +0.000 OA
ATOM     63  O   UNL     1       5.702   5.664   0.000  0.00  0.00    +0.000 OA
ENDROOT
BRANCH   2  64
ATOM     64  C   UNL     1       9.455   1.045   0.000  0.00  0.00    +0.000 C 
ATOM     65  O   UNL     1       8.983   1.721   0.000  0.00  0.00    +0.000 OA
ENDBRANCH   2  64
BRANCH   3  66
ATOM     66  C   UNL     1      10.739   4.433   0.000  0.00  0.00    +0.000 C 
ATOM     67  O   UNL     1      10.185   3.822   0.000  0.00  0.00    +0.000 OA
ENDBRANCH   3  66
BRANCH   4  68
ATOM     68  C   UNL     1       7.463   1.321   0.000  0.00  0.00    +0.000 C 
ATOM     69  O   UNL     1       7.698   2.112   0.000  0.00  0.00    +0.000 OA
ENDBRANCH   4  68
BRANCH   1  70
ATOM     70  C   UNL     1      10.913   2.430   0.000  0.00  0.00    +0.000 C 
ATOM     71  O   UNL     1      10.090   2.482   0.000  0.00  0.00    +0.000 OA
ENDBRANCH   1  70
BRANCH   6  72
ATOM     72  C   UNL     1       6.438   3.051   0.000  0.00  0.00    +0.000 C 
ATOM     73  O   UNL     1       7.202   3.361   0.000  0.00  0.00    +0.000 OA
ENDBRANCH   6  72
BRANCH   7  74
ATOM     74  C   UNL     1       7.150   4.931   0.000  0.00  0.00    +0.000 C 
ATOM     75  O   UNL     1       7.869   4.527   0.000  0.00  0.00    +0.000 OA
ENDBRANCH   7  74
BRANCH   5  76
ATOM     76  C   UNL     1      10.116   8.229   0.000  0.00  0.00    +0.000 C 
ATOM     77  O   UNL     1      10.765   8.739   0.000  0.00  0.00    +0.000 OA
ENDBRANCH   5  76
TORSDOF 7
