REMARK  Name = 
REMARK  7 active torsions:
REMARK  status: ('A' for Active; 'I' for Inactive)
REMARK    1  A    between atoms: C_6  and  C_20
REMARK    2  A    between atoms: C_7  and  C_9
REMARK    3  A    between atoms: C_7  and  C_21
REMARK    4  A    between atoms: C_8  and  C_10
REMARK    5  A    between atoms: C_8  and  C_22
REMARK    6  A    between atoms: C_9  and  C_32
REMARK    7  A    between atoms: C_10  and  C_33
REMARK                            x       y       z     vdW  Elec       q    Type
REMARK                         _______ _______ _______ _____ _____    ______ ____
ROOT
ATOM      1  C   UNL     1      -1.544  -3.329   0.000  0.00  0.00    +0.000 C 
ATOM      2  C   UNL     1       2.895   1.189   0.000  0.00  0.00    +0.000 C 
ATOM      3  C   UNL     1      -2.805   1.093   0.000  0.00  0.00    +0.000 C 
ATOM      4  C   UNL     1       2.920  -2.055   0.000  0.00  0.00    +0.000 C 
ATOM      5  C   UNL     1       2.093  -0.431   0.000  0.00  0.00    +0.000 C 
ATOM      6  C   UNL     1      -2.006  -0.496   0.000  0.00  0.00    +0.000 C 
ATOM      7  C   UNL     1       0.061  -2.499   0.000  0.00  0.00    +0.000 C 
ATOM      8  C   UNL     1       0.055   1.600   0.000  0.00  0.00    +0.000 C 
ATOM      9  C   UNL     1       1.700  -3.298   0.000  0.00  0.00    +0.000 C 
ATOM     10  C   UNL     1      -1.432  -2.512   0.000  0.00  0.00    +0.000 C 
ATOM     11  C   UNL     1       2.080   1.062   0.000  0.00  0.00    +0.000 A 
ATOM     12  C   UNL     1      -1.989   0.968   0.000  0.00  0.00    +0.000 A 
ATOM     13  C   UNL     1       2.106  -1.924   0.000  0.00  0.00    +0.000 A 
ATOM     14  C   UNL     1      -1.993  -1.960   0.000  0.00  0.00    +0.000 C 
ATOM     15  C   UNL     1       1.519   1.613   0.000  0.00  0.00    +0.000 A 
ATOM     16  C   UNL     1      -1.409   1.558   0.000  0.00  0.00    +0.000 A 
ATOM     17  C   UNL     1       1.554  -2.486   0.000  0.00  0.00    +0.000 A 
ATOM     18  C   UNL     1       1.677   0.297   0.000  0.00  0.00    +0.000 A 
ATOM     19  C   UNL     1       1.718  -1.137   0.000  0.00  0.00    +0.000 A 
ATOM     20  C   UNL     1      -0.674  -2.095   0.000  0.00  0.00    +0.000 C 
ATOM     21  C   UNL     1      -1.632   0.268   0.000  0.00  0.00    +0.000 A 
ATOM     22  C   UNL     1      -1.619  -1.196   0.000  0.00  0.00    +0.000 C 
ATOM     23  C   UNL     1       0.761   1.226   0.000  0.00  0.00    +0.000 A 
ATOM     24  C   UNL     1      -0.674   1.214   0.000  0.00  0.00    +0.000 A 
ATOM     25  C   UNL     1       0.761  -2.112   0.000  0.00  0.00    +0.000 A 
ATOM     26  N   UNL     1      -0.798  -1.335   0.000  0.00  0.00    +0.000 NA
ATOM     27  N   UNL     1       0.914   0.407   0.000  0.00  0.00    +0.000 NA
ATOM     28  N   UNL     1      -0.843   0.421   0.000  0.00  0.00    +0.000 NA
ATOM     29  N   UNL     1       0.900  -1.320   0.000  0.00  0.00    +0.000 NA
ATOM     30  O   UNL     1       1.069  -3.830   0.000  0.00  0.00    +0.000 OA
ENDROOT
BRANCH  14  32
ATOM     31  C   UNL     1      -3.333  -1.465   0.000  0.00  0.00    +0.000 C 
ATOM     32  C   UNL     1      -2.806  -2.099   0.000  0.00  0.00    +0.000 C 
ENDBRANCH  14  32
BRANCH  16  33
ATOM     33  C   UNL     1      -1.554   2.370   0.000  0.00  0.00    +0.000 C 
BRANCH  33  34
ATOM     34  C   UNL     1      -2.331   2.650   0.000  0.00  0.00    +0.000 C 
BRANCH  34  35
ATOM     35  C   UNL     1      -2.477   3.462   0.000  0.00  0.00    +0.000 C 
ATOM     36  O   UNL     1      -3.253   3.742   0.000  0.00  0.00    +0.000 OA
ATOM     37  O   UNL     1      -1.846   3.994   0.000  0.00  0.00    +0.000 OA
ENDBRANCH  34  35
ENDBRANCH  33  34
ENDBRANCH  16  33
BRANCH  15  38
ATOM     38  C   UNL     1       1.644   2.429   0.000  0.00  0.00    +0.000 C 
BRANCH  38  39
ATOM     39  C   UNL     1       2.413   2.728   0.000  0.00  0.00    +0.000 C 
BRANCH  39  40
ATOM     40  C   UNL     1       2.538   3.543   0.000  0.00  0.00    +0.000 C 
ATOM     41  O   UNL     1       1.894   4.060   0.000  0.00  0.00    +0.000 OA
ATOM     42  O   UNL     1       3.306   3.843   0.000  0.00  0.00    +0.000 OA
ENDBRANCH  39  40
ENDBRANCH  38  39
ENDBRANCH  15  38
TORSDOF 7
REMARK  Name = 
REMARK  7 active torsions:
REMARK  status: ('A' for Active; 'I' for Inactive)
REMARK    1  A    between atoms: C_6  and  C_20
REMARK    2  A    between atoms: C_7  and  C_9
REMARK    3  A    between atoms: C_7  and  C_21
REMARK    4  A    between atoms: C_8  and  C_10
REMARK    5  A    between atoms: C_8  and  C_22
REMARK    6  A    between atoms: C_9  and  C_32
REMARK    7  A    between atoms: C_10  and  C_33
REMARK                            x       y       z     vdW  Elec       q    Type
REMARK                         _______ _______ _______ _____ _____    ______ ____
ROOT
ATOM      1 FE   UNL     1       5.663   0.000   0.000  0.00  0.00    +0.000 Fe
ENDROOT
TORSDOF 0
