REMARK  Name = 
REMARK  8 active torsions:
REMARK  status: ('A' for Active; 'I' for Inactive)
REMARK    1  A    between atoms: N_4  and  C_6
REMARK    2  A    between atoms: C_6  and  C_7
REMARK    3  A    between atoms: C_7  and  C_8
REMARK    4  A    between atoms: C_8  and  C_10
REMARK    5  A    between atoms: C_10  and  C_11
REMARK    6  A    between atoms: N_13  and  C_14
REMARK    7  A    between atoms: C_17  and  N_23
REMARK    8  A    between atoms: C_19  and  C_20
REMARK                            x       y       z     vdW  Elec       q    Type
REMARK                         _______ _______ _______ _____ _____    ______ ____
ROOT
ATOM      1  C   UNL     1       0.715  -2.888   0.000  0.00  0.00    +0.000 C 
ATOM      2  C   UNL     1       0.000  -2.475   0.000  0.00  0.00    +0.000 C 
ATOM      3  C   UNL     1       0.000  -1.650   0.000  0.00  0.00    +0.000 C 
ATOM      4  C   UNL     1       0.715  -1.238   0.000  0.00  0.00    +0.000 C 
ATOM      5  O   UNL     1       1.429  -1.650   0.000  0.00  0.00    +0.000 OA
ATOM      6  C   UNL     1       1.429  -2.475   0.000  0.00  0.00    +0.000 C 
ENDROOT
BRANCH   4   7
ATOM      7  N   UNL     1       0.715  -0.412   0.000  0.00  0.00    +0.000 N 
ATOM      8  C   UNL     1       0.000   0.000   0.000  0.00  0.00    +0.000 C 
ATOM      9  C   UNL     1       0.000   0.825   0.000  0.00  0.00    +0.000 C 
ATOM     10  C   UNL     1       0.715   1.238   0.000  0.00  0.00    +0.000 C 
ATOM     11  N   UNL     1       0.184   1.869   0.000  0.00  0.00    +0.000 NA
ATOM     12  O   UNL     1       1.245   1.869   0.000  0.00  0.00    +0.000 OA
ATOM     13  N   UNL     1       1.429   0.825   0.000  0.00  0.00    +0.000 NA
ATOM     14  C   UNL     1       1.429   0.000   0.000  0.00  0.00    +0.000 C 
ATOM     15  O   UNL     1       2.143  -0.412   0.000  0.00  0.00    +0.000 OA
ENDBRANCH   4   7
BRANCH   1  18
ATOM     16  C   UNL     1       0.000  -4.125   0.000  0.00  0.00    +0.000 C 
ATOM     17  O   UNL     1       0.000  -4.950   0.000  0.00  0.00    +0.000 OA
ATOM     18  N   UNL     1       0.715  -3.712   0.000  0.00  0.00    +0.000 NA
BRANCH  16  19
ATOM     19  C   UNL     1      -0.715  -3.712   0.000  0.00  0.00    +0.000 C 
BRANCH  19  20
ATOM     20  C   UNL     1      -1.429  -4.125   0.000  0.00  0.00    +0.000 C 
ATOM     21  N   UNL     1      -1.429  -4.950   0.000  0.00  0.00    +0.000 NA
BRANCH  20  22
ATOM     22  C   UNL     1      -2.143  -3.712   0.000  0.00  0.00    +0.000 C 
BRANCH  22  23
ATOM     23  C   UNL     1      -2.858  -4.125   0.000  0.00  0.00    +0.000 C 
BRANCH  23  27
ATOM     24  N   UNL     1      -5.001  -3.712   0.000  0.00  0.00    +0.000 NA
ATOM     25  C   UNL     1      -4.287  -4.125   0.000  0.00  0.00    +0.000 C 
ATOM     26  N   UNL     1      -4.287  -4.950   0.000  0.00  0.00    +0.000 NA
ATOM     27  N   UNL     1      -3.572  -3.712   0.000  0.00  0.00    +0.000 N 
ATOM     28  C   UNL     1      -3.572  -2.888   0.000  0.00  0.00    +0.000 C 
ENDBRANCH  23  27
ENDBRANCH  22  23
ENDBRANCH  20  22
ENDBRANCH  19  20
ENDBRANCH  16  19
ENDBRANCH   1  18
BRANCH   6  29
ATOM     29  C   UNL     1       2.143  -2.888   0.000  0.00  0.00    +0.000 C 
ATOM     30  O   UNL     1       2.143  -3.712   0.000  0.00  0.00    +0.000 OA
ATOM     31  O   UNL     1       2.858  -2.475   0.000  0.00  0.00    +0.000 OA
ENDBRANCH   6  29
TORSDOF 8
