REMARK  Name = 
REMARK  0 active torsions:
REMARK  status: ('A' for Active; 'I' for Inactive)
REMARK                            x       y       z     vdW  Elec       q    Type
REMARK                         _______ _______ _______ _____ _____    ______ ____
ROOT
ATOM      1 PT   UNL     1       4.051   4.255   0.000  0.00  0.00    +0.000 Pt
ENDROOT
TORSDOF 0
REMARK  Name = 
REMARK  0 active torsions:
REMARK  status: ('A' for Active; 'I' for Inactive)
REMARK                            x       y       z     vdW  Elec       q    Type
REMARK                         _______ _______ _______ _____ _____    ______ ____
ROOT
ATOM      1 CL   UNL     1       3.336   4.667   0.000  0.00  0.00    +0.000 Cl
ENDROOT
TORSDOF 0
REMARK  Name = 
REMARK  0 active torsions:
REMARK  status: ('A' for Active; 'I' for Inactive)
REMARK                            x       y       z     vdW  Elec       q    Type
REMARK                         _______ _______ _______ _____ _____    ______ ____
ROOT
ATOM      1 CL   UNL     1       4.765   4.667   0.000  0.00  0.00    +0.000 Cl
ENDROOT
TORSDOF 0
REMARK  Name = 
REMARK  0 active torsions:
REMARK  status: ('A' for Active; 'I' for Inactive)
REMARK                            x       y       z     vdW  Elec       q    Type
REMARK                         _______ _______ _______ _____ _____    ______ ____
ROOT
ATOM      1  N   UNL     1       4.408   0.443   0.000  0.00  0.00    +0.000 NA
ATOM      2  C   UNL     1       3.693   0.856   0.000  0.00  0.00    +0.000 A 
ATOM      3  C   UNL     1       3.693   1.681   0.000  0.00  0.00    +0.000 A 
ATOM      4  C   UNL     1       2.979   0.443   0.000  0.00  0.00    +0.000 C 
ATOM      5  C   UNL     1       4.408   2.093   0.000  0.00  0.00    +0.000 A 
ATOM      6  C   UNL     1       5.122   1.681   0.000  0.00  0.00    +0.000 A 
ATOM      7  C   UNL     1       5.122   0.856   0.000  0.00  0.00    +0.000 A 
ENDROOT
TORSDOF 0
REMARK  Name = 
REMARK  0 active torsions:
REMARK  status: ('A' for Active; 'I' for Inactive)
REMARK                            x       y       z     vdW  Elec       q    Type
REMARK                         _______ _______ _______ _____ _____    ______ ____
ROOT
ATOM      1  N   UNL     1       0.443   2.461   0.000  0.00  0.00    +0.000 NA
ENDROOT
TORSDOF 0
