REMARK  Name = 
REMARK  0 active torsions:
REMARK  status: ('A' for Active; 'I' for Inactive)
REMARK                            x       y       z     vdW  Elec       q    Type
REMARK                         _______ _______ _______ _____ _____    ______ ____
ROOT
ATOM      1  C   UNL     1       1.429  -2.475   0.000  0.00  0.00    +0.000 C 
ATOM      2  N   UNL     1       1.429  -1.650   0.000  0.00  0.00    +0.000 N 
ATOM      3  C   UNL     1       0.715  -1.238   0.000  0.00  0.00    +0.000 A 
ATOM      4  O   UNL     1       0.000  -1.650   0.000  0.00  0.00    +0.000 OA
ATOM      5  C   UNL     1       0.715  -0.412   0.000  0.00  0.00    +0.000 A 
ATOM      6  C   UNL     1       1.429   0.000   0.000  0.00  0.00    +0.000 A 
ATOM      7  C   UNL     1       2.143  -0.412   0.000  0.00  0.00    +0.000 A 
ATOM      8  C   UNL     1       2.858   0.000   0.000  0.00  0.00    +0.000 A 
ATOM      9  C   UNL     1       3.572  -0.412   0.000  0.00  0.00    +0.000 A 
ATOM     10  C   UNL     1       3.572  -1.238   0.000  0.00  0.00    +0.000 A 
ATOM     11  C   UNL     1       2.858  -1.650   0.000  0.00  0.00    +0.000 A 
ATOM     12  C   UNL     1       2.143  -1.238   0.000  0.00  0.00    +0.000 A 
ENDROOT
TORSDOF 0
