REMARK  Name = 
REMARK  6 active torsions:
REMARK  status: ('A' for Active; 'I' for Inactive)
REMARK    1  A    between atoms: C_5  and  C_6
REMARK    2  A    between atoms: C_6  and  N_7
REMARK    3  A    between atoms: C_10  and  C_11
REMARK    4  A    between atoms: C_11  and  C_12
REMARK    5  A    between atoms: C_12  and  O_13
REMARK    6  A    between atoms: O_13  and  P_14
REMARK                            x       y       z     vdW  Elec       q    Type
REMARK                         _______ _______ _______ _____ _____    ______ ____
ROOT
ATOM      1  N   UNL     1      -4.784   4.585   0.000  0.00  0.00    +0.000 N 
ATOM      2  C   UNL     1      -4.371   5.299   0.000  0.00  0.00    +0.000 A 
ATOM      3  S   UNL     1      -3.564   5.127   0.000  0.00  0.00    +0.000 S 
ATOM      4  C   UNL     1      -3.478   4.307   0.000  0.00  0.00    +0.000 A 
ATOM      5  C   UNL     1      -4.232   3.971   0.000  0.00  0.00    +0.000 A 
ATOM      6  C   UNL     1      -4.403   3.164   0.000  0.00  0.00    +0.000 C 
ENDROOT
BRANCH   1   7
ATOM      7  C   UNL     1      -5.604   4.498   0.000  0.00  0.00    +0.000 C 
BRANCH   7  12
ATOM      8  C   UNL     1      -7.544   7.168   0.000  0.00  0.00    +0.000 C 
ATOM      9  C   UNL     1      -7.059   6.500   0.000  0.00  0.00    +0.000 A 
ATOM     10  N   UNL     1      -6.239   6.587   0.000  0.00  0.00    +0.000 NA
ATOM     11  C   UNL     1      -5.754   5.919   0.000  0.00  0.00    +0.000 A 
ATOM     12  C   UNL     1      -6.089   5.166   0.000  0.00  0.00    +0.000 A 
ATOM     13  C   UNL     1      -6.910   5.079   0.000  0.00  0.00    +0.000 A 
ATOM     14  N   UNL     1      -7.245   4.326   0.000  0.00  0.00    +0.000 NA
ATOM     15  N   UNL     1      -7.395   5.747   0.000  0.00  0.00    +0.000 NA
ENDBRANCH   7  12
ENDBRANCH   1   7
BRANCH   4  16
ATOM     16  C   UNL     1      -2.764   3.894   0.000  0.00  0.00    +0.000 C 
BRANCH  16  17
ATOM     17  C   UNL     1      -2.049   4.307   0.000  0.00  0.00    +0.000 C 
BRANCH  17  18
ATOM     18  O   UNL     1      -1.335   3.894   0.000  0.00  0.00    +0.000 OA
BRANCH  18  19
ATOM     19  P   UNL     1      -0.620   4.307   0.000  0.00  0.00    +0.000 P 
ATOM     20  O   UNL     1       0.094   4.719   0.000  0.00  0.00    +0.000 OA
ATOM     21  O   UNL     1      -0.208   3.592   0.000  0.00  0.00    +0.000 OA
ATOM     22  O   UNL     1      -1.033   5.021   0.000  0.00  0.00    +0.000 OA
ENDBRANCH  18  19
ENDBRANCH  17  18
ENDBRANCH  16  17
ENDBRANCH   4  16
TORSDOF 6
