REMARK  Name = 
REMARK  6 active torsions:
REMARK  status: ('A' for Active; 'I' for Inactive)
REMARK    1  A    between atoms: C_17  and  O_25
REMARK    2  A    between atoms: C_17  and  C_28
REMARK    3  A    between atoms: O_25  and  C_33
REMARK    4  A    between atoms: C_28  and  S_30
REMARK    5  A    between atoms: S_30  and  C_31
REMARK    6  A    between atoms: C_33  and  C_34
REMARK                            x       y       z     vdW  Elec       q    Type
REMARK                         _______ _______ _______ _____ _____    ______ ____
ROOT
ATOM      1  C   UNL     1      11.712 -16.983   0.000  0.00  0.00    +0.000 C 
ATOM      2  C   UNL     1      11.712 -17.777   0.000  0.00  0.00    +0.000 C 
ATOM      3  C   UNL     1      12.423 -18.196   0.000  0.00  0.00    +0.000 C 
ATOM      4  C   UNL     1      13.092 -17.777   0.000  0.00  0.00    +0.000 C 
ATOM      5  C   UNL     1      13.092 -16.983   0.000  0.00  0.00    +0.000 C 
ATOM      6  C   UNL     1      12.423 -16.564   0.000  0.00  0.00    +0.000 C 
ATOM      7  C   UNL     1      13.804 -18.196   0.000  0.00  0.00    +0.000 C 
ATOM      8  C   UNL     1      14.556 -17.777   0.000  0.00  0.00    +0.000 C 
ATOM      9  C   UNL     1      14.556 -16.983   0.000  0.00  0.00    +0.000 C 
ATOM     10  C   UNL     1      13.804 -16.564   0.000  0.00  0.00    +0.000 C 
ATOM     11  C   UNL     1      15.184 -16.564   0.000  0.00  0.00    +0.000 C 
ATOM     12  C   UNL     1      15.184 -15.770   0.000  0.00  0.00    +0.000 C 
ATOM     13  C   UNL     1      14.556 -15.351   0.000  0.00  0.00    +0.000 C 
ATOM     14  C   UNL     1      13.804 -15.770   0.000  0.00  0.00    +0.000 C 
ATOM     15  C   UNL     1      16.564 -16.564   0.000  0.00  0.00    +0.000 C 
ATOM     16  C   UNL     1      16.564 -15.770   0.000  0.00  0.00    +0.000 C 
ATOM     17  C   UNL     1      15.853 -15.351   0.000  0.00  0.00    +0.000 C 
ATOM     18  O   UNL     1      11.001 -18.196   0.000  0.00  0.00    +0.000 OA
ATOM     19  C   UNL     1      13.092 -16.146   0.000  0.00  0.00    +0.000 C 
ATOM     20  F   UNL     1      13.804 -17.359   0.000  0.00  0.00    +0.000 F 
ATOM     21  O   UNL     1      13.092 -15.351   0.000  0.00  0.00    +0.000 OA
ATOM     22  C   UNL     1      15.184 -14.933   0.000  0.00  0.00    +0.000 C 
ATOM     23  C   UNL     1      17.401 -15.770   0.000  0.00  0.00    +0.000 C 
ATOM     24  F   UNL     1      13.804 -19.032   0.000  0.00  0.00    +0.000 F 
ENDROOT
BRANCH  17  25
ATOM     25  C   UNL     1      15.853 -14.515   0.000  0.00  0.00    +0.000 C 
ATOM     26  O   UNL     1      16.606 -14.096   0.000  0.00  0.00    +0.000 OA
BRANCH  25  27
ATOM     27  S   UNL     1      15.100 -14.096   0.000  0.00  0.00    +0.000 S 
BRANCH  27  28
ATOM     28  C   UNL     1      14.389 -14.515   0.000  0.00  0.00    +0.000 C 
ATOM     29  F   UNL     1      13.678 -14.096   0.000  0.00  0.00    +0.000 F 
ENDBRANCH  27  28
ENDBRANCH  25  27
ENDBRANCH  17  25
BRANCH  17  30
ATOM     30  O   UNL     1      16.690 -14.807   0.000  0.00  0.00    +0.000 OA
BRANCH  30  31
ATOM     31  C   UNL     1      17.401 -14.389   0.000  0.00  0.00    +0.000 C 
ATOM     32  O   UNL     1      17.401 -13.553   0.000  0.00  0.00    +0.000 OA
BRANCH  31  33
ATOM     33  C   UNL     1      18.112 -14.807   0.000  0.00  0.00    +0.000 A 
ATOM     34  C   UNL     1      18.405 -15.602   0.000  0.00  0.00    +0.000 A 
ATOM     35  C   UNL     1      19.241 -15.602   0.000  0.00  0.00    +0.000 A 
ATOM     36  C   UNL     1      19.492 -14.807   0.000  0.00  0.00    +0.000 A 
ATOM     37  O   UNL     1      18.781 -14.306   0.000  0.00  0.00    +0.000 OA
ENDBRANCH  31  33
ENDBRANCH  30  31
ENDBRANCH  17  30
TORSDOF 6
