REMARK  Name = 
REMARK  2 active torsions:
REMARK  status: ('A' for Active; 'I' for Inactive)
REMARK    1  A    between atoms: C_3  and  C_4
REMARK    2  A    between atoms: C_3  and  N_5
REMARK                            x       y       z     vdW  Elec       q    Type
REMARK                         _______ _______ _______ _____ _____    ______ ____
ROOT
ATOM      1  C   UNL     1       1.238  -0.715   0.000  0.00  0.00    +0.000 C 
ENDROOT
BRANCH   1   4
ATOM      2  C   UNL     1       2.475  -1.429   0.000  0.00  0.00    +0.000 C 
ATOM      3  C   UNL     1       2.475   0.000   0.000  0.00  0.00    +0.000 C 
ATOM      4  N   UNL     1       2.062  -0.715   0.000  0.00  0.00    +0.000 NA
ENDBRANCH   1   4
BRANCH   1   5
ATOM      5  C   UNL     1       0.825   0.000   0.000  0.00  0.00    +0.000 C 
ATOM      6  O   UNL     1       0.000   0.000   0.000  0.00  0.00    +0.000 OA
ENDBRANCH   1   5
TORSDOF 2
