REMARK  Name = 
REMARK  2 active torsions:
REMARK  status: ('A' for Active; 'I' for Inactive)
REMARK    1  A    between atoms: C_2  and  C_3
REMARK    2  A    between atoms: C_2  and  C_7
REMARK                            x       y       z     vdW  Elec       q    Type
REMARK                         _______ _______ _______ _____ _____    ______ ____
ROOT
ATOM      1  O   UNL     1       2.062  -0.715   0.000  0.00  0.00    +0.000 OA
ATOM      2  C   UNL     1       1.238  -0.715   0.000  0.00  0.00    +0.000 C 
ENDROOT
BRANCH   2   3
ATOM      3  C   UNL     1       0.825   0.000   0.000  0.00  0.00    +0.000 C 
ATOM      4  C   UNL     1       0.000   0.000   0.000  0.00  0.00    +0.000 C 
ATOM      5  O   UNL     1      -0.412  -0.715   0.000  0.00  0.00    +0.000 OA
ATOM      6  O   UNL     1      -0.412   0.715   0.000  0.00  0.00    +0.000 OA
ENDBRANCH   2   3
BRANCH   2   7
ATOM      7  C   UNL     1       0.825  -1.429   0.000  0.00  0.00    +0.000 C 
ATOM      8  O   UNL     1       1.238  -2.143   0.000  0.00  0.00    +0.000 OA
ATOM      9  O   UNL     1       0.000  -1.429   0.000  0.00  0.00    +0.000 OA
ENDBRANCH   2   7
TORSDOF 2
