REMARK  Name = 
REMARK  13 active torsions:
REMARK  status: ('A' for Active; 'I' for Inactive)
REMARK    1  A    between atoms: C_2  and  C_4
REMARK    2  A    between atoms: C_4  and  C_5
REMARK    3  A    between atoms: C_5  and  N_6
REMARK    4  A    between atoms: C_5  and  C_17
REMARK    5  A    between atoms: N_6  and  S_7
REMARK    6  A    between atoms: S_7  and  C_10
REMARK    7  A    between atoms: C_10  and  C_11
REMARK    8  A    between atoms: C_23  and  C_24
REMARK    9  A    between atoms: N_26  and  C_27
REMARK   10  A    between atoms: C_27  and  C_28
REMARK   11  A    between atoms: C_28  and  C_29
REMARK   12  A    between atoms: C_29  and  C_30
REMARK   13  A    between atoms: C_30  and  N_31
REMARK                            x       y       z     vdW  Elec       q    Type
REMARK                         _______ _______ _______ _____ _____    ______ ____
ROOT
ATOM      1  C   UNL     1      -5.848  -6.050   0.000  0.00  0.00    +0.000 C 
ATOM      2  O   UNL     1      -5.235  -6.602   0.000  0.00  0.00    +0.000 OA
ATOM      3  N   UNL     1      -5.677  -5.243   0.000  0.00  0.00    +0.000 N 
ATOM      4  C   UNL     1      -6.229  -4.630   0.000  0.00  0.00    +0.000 C 
ATOM      5  C   UNL     1      -5.816  -3.915   0.000  0.00  0.00    +0.000 C 
ATOM      6  C   UNL     1      -5.009  -4.087   0.000  0.00  0.00    +0.000 C 
ATOM      7  C   UNL     1      -4.923  -4.907   0.000  0.00  0.00    +0.000 C 
ENDROOT
BRANCH   7   8
ATOM      8  C   UNL     1      -4.209  -5.319   0.000  0.00  0.00    +0.000 C 
ATOM      9  O   UNL     1      -4.209  -6.144   0.000  0.00  0.00    +0.000 OA
ATOM     10  N   UNL     1      -3.494  -4.907   0.000  0.00  0.00    +0.000 NA
BRANCH  10  11
ATOM     11  C   UNL     1      -2.780  -5.319   0.000  0.00  0.00    +0.000 C 
BRANCH  11  12
ATOM     12  C   UNL     1      -2.065  -4.907   0.000  0.00  0.00    +0.000 C 
BRANCH  12  13
ATOM     13  C   UNL     1      -1.351  -5.319   0.000  0.00  0.00    +0.000 C 
BRANCH  13  14
ATOM     14  C   UNL     1      -0.636  -4.907   0.000  0.00  0.00    +0.000 C 
BRANCH  14  15
ATOM     15  N   UNL     1       0.078  -5.319   0.000  0.00  0.00    +0.000 NA
ATOM     16  C   UNL     1       0.793  -4.907   0.000  0.00  0.00    +0.000 C 
ATOM     17  N   UNL     1       0.793  -4.082   0.000  0.00  0.00    +0.000 NA
ATOM     18  N   UNL     1       1.507  -5.319   0.000  0.00  0.00    +0.000 NA
ENDBRANCH  14  15
ENDBRANCH  13  14
ENDBRANCH  12  13
ENDBRANCH  11  12
ENDBRANCH  10  11
ENDBRANCH   7   8
BRANCH   1  19
ATOM     19  C   UNL     1      -6.633  -6.304   0.000  0.00  0.00    +0.000 C 
BRANCH  19  20
ATOM     20  C   UNL     1      -7.246  -5.753   0.000  0.00  0.00    +0.000 C 
BRANCH  20  22
ATOM     21  C   UNL     1      -8.202  -6.814   0.000  0.00  0.00    +0.000 C 
ATOM     22  C   UNL     1      -8.031  -6.007   0.000  0.00  0.00    +0.000 C 
ATOM     23  C   UNL     1      -8.644  -5.455   0.000  0.00  0.00    +0.000 C 
ENDBRANCH  20  22
ENDBRANCH  19  20
BRANCH  19  24
ATOM     24  N   UNL     1      -6.804  -7.112   0.000  0.00  0.00    +0.000 NA
BRANCH  24  25
ATOM     25  S   UNL     1      -7.589  -7.366   0.000  0.00  0.00    +0.000 S 
ATOM     26  O   UNL     1      -7.334  -8.151   0.000  0.00  0.00    +0.000 OA
ATOM     27  O   UNL     1      -7.844  -6.582   0.000  0.00  0.00    +0.000 OA
BRANCH  25  28
ATOM     28  C   UNL     1      -8.374  -7.621   0.000  0.00  0.00    +0.000 C 
BRANCH  28  29
ATOM     29  C   UNL     1      -8.545  -8.428   0.000  0.00  0.00    +0.000 A 
ATOM     30  C   UNL     1      -7.932  -8.980   0.000  0.00  0.00    +0.000 A 
ATOM     31  C   UNL     1      -8.104  -9.787   0.000  0.00  0.00    +0.000 A 
ATOM     32  C   UNL     1      -8.888 -10.042   0.000  0.00  0.00    +0.000 A 
ATOM     33  C   UNL     1      -9.501  -9.490   0.000  0.00  0.00    +0.000 A 
ATOM     34  C   UNL     1      -9.330  -8.683   0.000  0.00  0.00    +0.000 A 
ENDBRANCH  28  29
ENDBRANCH  25  28
ENDBRANCH  24  25
ENDBRANCH  19  24
ENDBRANCH   1  19
TORSDOF 13
