REMARK  Name = 
REMARK  7 active torsions:
REMARK  status: ('A' for Active; 'I' for Inactive)
REMARK    1  A    between atoms: N_13  and  C_16
REMARK    2  A    between atoms: C_19  and  C_22
REMARK    3  A    between atoms: N_24  and  CA_25
REMARK    4  A    between atoms: CA_25  and  CB_26
REMARK    5  A    between atoms: CA_25  and  C_31
REMARK    6  A    between atoms: CB_26  and  CG_27
REMARK    7  A    between atoms: CG_27  and  CD_28
REMARK                            x       y       z     vdW  Elec       q    Type
REMARK                         _______ _______ _______ _____ _____    ______ ____
ROOT
ATOM      1  C   UNK A   0       3.553  -1.127   0.000  0.00  0.00    +0.000 A 
ATOM      2  C   UNK A   0       3.553  -0.302   0.000  0.00  0.00    +0.000 A 
ATOM      3  C   UNK A   0       4.268   0.111   0.000  0.00  0.00    +0.000 A 
ATOM      4  C   UNK A   0       4.982  -0.302   0.000  0.00  0.00    +0.000 A 
ATOM      5  C   UNK A   0       4.982  -1.127   0.000  0.00  0.00    +0.000 A 
ATOM      6  C   UNK A   0       4.268  -1.540   0.000  0.00  0.00    +0.000 A 
ENDROOT
BRANCH   1  19
ATOM      7  N   UNK A   0       0.295  -5.389   0.000  0.00  0.00    +0.000 NA
ATOM      8  C   UNK A   0       0.708  -4.675   0.000  0.00  0.00    +0.000 A 
ATOM      9  N   UNK A   0       1.533  -4.675   0.000  0.00  0.00    +0.000 NA
ATOM     10  C   UNK A   0       1.945  -3.960   0.000  0.00  0.00    +0.000 A 
ATOM     11  O   UNK A   0       2.770  -3.960   0.000  0.00  0.00    +0.000 OA
ATOM     12  C   UNK A   0       1.533  -3.246   0.000  0.00  0.00    +0.000 A 
ATOM     13  C   UNK A   0       0.708  -3.246   0.000  0.00  0.00    +0.000 A 
ATOM     14  N   UNK A   0       0.295  -3.960   0.000  0.00  0.00    +0.000 NA
ATOM     15  N   UNK A   0       0.295  -2.531   0.000  0.00  0.00    +0.000 NA
ATOM     16  C   UNK A   0       0.708  -1.817   0.000  0.00  0.00    +0.000 C 
ATOM     17  C   UNK A   0       1.533  -1.817   0.000  0.00  0.00    +0.000 C 
ATOM     18  C   UNK A   0       2.085  -1.204   0.000  0.00  0.00    +0.000 C 
ATOM     19  N   UNK A   0       2.839  -1.540   0.000  0.00  0.00    +0.000 N 
ATOM     20  C   UNK A   0       2.752  -2.360   0.000  0.00  0.00    +0.000 C 
ATOM     21  N   UNK A   0       1.945  -2.531   0.000  0.00  0.00    +0.000 N 
ENDBRANCH   1  19
BRANCH   4  22
ATOM     22  C   UNK A   0       5.697   0.111   0.000  0.00  0.00    +0.000 C 
ATOM     23  O   UNK A   0       5.697   0.935   0.000  0.00  0.00    +0.000 OA
ATOM     24  N   GLU A   1       6.411  -0.302   0.000  0.00  0.00    +0.000 NA
BRANCH  24  25
ATOM     25  CA  GLU A   1       7.125   0.111   0.000  0.00  0.00    +0.000 C 
BRANCH  25  26
ATOM     26  C   GLU A   1       7.125   0.935   0.000  0.00  0.00    +0.000 C 
ATOM     27  O   GLU A   1       7.840   1.348   0.000  0.00  0.00    +0.000 OA
ATOM     28  OXT GLU A   1       6.411   1.348   0.000  0.00  0.00    +0.000 OA
ENDBRANCH  25  26
BRANCH  25  29
ATOM     29  CB  GLU A   1       7.840  -0.302   0.000  0.00  0.00    +0.000 C 
BRANCH  29  30
ATOM     30  CG  GLU A   1       8.554   0.111   0.000  0.00  0.00    +0.000 C 
BRANCH  30  31
ATOM     31  CD  GLU A   1       9.269  -0.302   0.000  0.00  0.00    +0.000 C 
ATOM     32  OE1 GLU A   1       9.983   0.111   0.000  0.00  0.00    +0.000 OA
ATOM     33  OE2 GLU A   1       9.269  -1.127   0.000  0.00  0.00    +0.000 OA
ENDBRANCH  30  31
ENDBRANCH  29  30
ENDBRANCH  25  29
ENDBRANCH  24  25
ENDBRANCH   4  22
TORSDOF 7
