REMARK  Name = 
REMARK  7 active torsions:
REMARK  status: ('A' for Active; 'I' for Inactive)
REMARK    1  A    between atoms: C_2  and  C_3
REMARK    2  A    between atoms: C_3  and  C_4
REMARK    3  A    between atoms: C_4  and  C_5
REMARK    4  A    between atoms: C_5  and  C_6
REMARK    5  A    between atoms: C_6  and  C_7
REMARK    6  A    between atoms: C_7  and  O_8
REMARK    7  A    between atoms: O_8  and  P_13
REMARK                            x       y       z     vdW  Elec       q    Type
REMARK                         _______ _______ _______ _____ _____    ______ ____
ROOT
ATOM      1  C   UNL     1      12.016 -10.808   0.000  0.00  0.00    +0.000 C 
ATOM      2  O   UNL     1      12.016 -11.633   0.000  0.00  0.00    +0.000 OA
ENDROOT
BRANCH   1   3
ATOM      3  C   UNL     1      11.301 -10.395   0.000  0.00  0.00    +0.000 C 
ATOM      4  O   UNL     1      11.301  -9.570   0.000  0.00  0.00    +0.000 OA
BRANCH   3   5
ATOM      5  C   UNL     1      10.587 -10.808   0.000  0.00  0.00    +0.000 C 
ATOM      6  O   UNL     1      10.587 -11.633   0.000  0.00  0.00    +0.000 OA
BRANCH   5   8
ATOM      7  O   UNL     1       9.158 -10.808   0.000  0.00  0.00    +0.000 OA
ATOM      8  C   UNL     1       9.872 -10.395   0.000  0.00  0.00    +0.000 C 
ENDBRANCH   5   8
ENDBRANCH   3   5
ENDBRANCH   1   3
BRANCH   1   9
ATOM      9  C   UNL     1      12.730 -10.395   0.000  0.00  0.00    +0.000 C 
ATOM     10  O   UNL     1      12.730  -9.570   0.000  0.00  0.00    +0.000 OA
BRANCH   9  11
ATOM     11  C   UNL     1      13.445 -10.808   0.000  0.00  0.00    +0.000 C 
BRANCH  11  12
ATOM     12  O   UNL     1      14.159 -10.395   0.000  0.00  0.00    +0.000 OA
BRANCH  12  13
ATOM     13  P   UNL     1      14.984 -10.395   0.000  0.00  0.00    +0.000 P 
ATOM     14  O   UNL     1      15.809 -10.395   0.000  0.00  0.00    +0.000 OA
ATOM     15  O   UNL     1      14.984  -9.570   0.000  0.00  0.00    +0.000 OA
ATOM     16  O   UNL     1      14.984 -11.220   0.000  0.00  0.00    +0.000 OA
ENDBRANCH  12  13
ENDBRANCH  11  12
ENDBRANCH   9  11
ENDBRANCH   1   9
TORSDOF 7
