REMARK  Name = 
REMARK  4 active torsions:
REMARK  status: ('A' for Active; 'I' for Inactive)
REMARK    1  A    between atoms: C_5  and  C_28
REMARK    2  A    between atoms: C_17  and  N_29
REMARK    3  A    between atoms: C_19  and  O_37
REMARK    4  A    between atoms: C_20  and  O_37
REMARK                            x       y       z     vdW  Elec       q    Type
REMARK                         _______ _______ _______ _____ _____    ______ ____
ROOT
ATOM      1  C   UNL     1       7.145   2.475   0.000  0.00  0.00    +0.000 A 
ATOM      2  C   UNL     1       6.430   2.062   0.000  0.00  0.00    +0.000 A 
ATOM      3  C   UNL     1       7.145   3.300   0.000  0.00  0.00    +0.000 A 
ATOM      4  C   UNL     1       3.572   2.062   0.000  0.00  0.00    +0.000 A 
ATOM      5  C   UNL     1       2.143   2.062   0.000  0.00  0.00    +0.000 C 
ATOM      6  C   UNL     1       1.429   3.300   0.000  0.00  0.00    +0.000 C 
ATOM      7  C   UNL     1       2.858   2.475   0.000  0.00  0.00    +0.000 A 
ATOM      8  C   UNL     1       5.716   2.475   0.000  0.00  0.00    +0.000 A 
ATOM      9  C   UNL     1       4.287   2.475   0.000  0.00  0.00    +0.000 A 
ATOM     10  C   UNL     1       6.430   3.712   0.000  0.00  0.00    +0.000 A 
ATOM     11  C   UNL     1       2.143   3.712   0.000  0.00  0.00    +0.000 C 
ATOM     12  C   UNL     1       2.858   3.300   0.000  0.00  0.00    +0.000 A 
ATOM     13  C   UNL     1       5.716   3.300   0.000  0.00  0.00    +0.000 A 
ATOM     14  C   UNL     1       4.287   3.300   0.000  0.00  0.00    +0.000 A 
ATOM     15  C   UNL     1       5.001   2.062   0.000  0.00  0.00    +0.000 C 
ATOM     16  C   UNL     1       3.572   3.712   0.000  0.00  0.00    +0.000 A 
ATOM     17  C   UNL     1       5.001   3.712   0.000  0.00  0.00    +0.000 C 
ATOM     18  C   UNL     1       1.429   2.475   0.000  0.00  0.00    +0.000 C 
ATOM     19  O   UNL     1       6.430   4.537   0.000  0.00  0.00    +0.000 OA
ATOM     20  O   UNL     1       5.001   1.238   0.000  0.00  0.00    +0.000 OA
ATOM     21  O   UNL     1       3.572   4.537   0.000  0.00  0.00    +0.000 OA
ATOM     22  O   UNL     1       5.001   4.537   0.000  0.00  0.00    +0.000 OA
ATOM     23  O   UNL     1       1.147   1.700   0.000  0.00  0.00    +0.000 OA
ENDROOT
BRANCH  18  25
ATOM     24  C   UNL     1       0.334   3.393   0.000  0.00  0.00    +0.000 C 
ATOM     25  C   UNL     1       0.617   2.618   0.000  0.00  0.00    +0.000 C 
ENDBRANCH  18  25
BRANCH  11  26
ATOM     26  O   UNL     1       2.143   4.537   0.000  0.00  0.00    +0.000 OA
BRANCH  26  31
ATOM     27  C   UNL     1      -0.715   4.537   0.000  0.00  0.00    +0.000 C 
ATOM     28  C   UNL     1       1.429   5.775   0.000  0.00  0.00    +0.000 C 
ATOM     29  C   UNL     1       0.000   4.950   0.000  0.00  0.00    +0.000 C 
ATOM     30  C   UNL     1       0.715   6.188   0.000  0.00  0.00    +0.000 C 
ATOM     31  C   UNL     1       1.429   4.950   0.000  0.00  0.00    +0.000 C 
ATOM     32  C   UNL     1       0.000   5.775   0.000  0.00  0.00    +0.000 C 
ATOM     33  O   UNL     1      -0.715   6.188   0.000  0.00  0.00    +0.000 OA
ATOM     34  O   UNL     1       0.715   4.537   0.000  0.00  0.00    +0.000 OA
BRANCH  30  37
ATOM     35  C   UNL     1       0.000   7.425   0.000  0.00  0.00    +0.000 C 
ATOM     36  C   UNL     1       1.429   7.425   0.000  0.00  0.00    +0.000 C 
ATOM     37  N   UNL     1       0.715   7.013   0.000  0.00  0.00    +0.000 NA
ENDBRANCH  30  37
ENDBRANCH  26  31
ENDBRANCH  11  26
TORSDOF 4
