REMARK  Name = 
REMARK  4 active torsions:
REMARK  status: ('A' for Active; 'I' for Inactive)
REMARK    1  A    between atoms: C_4  and  N_13
REMARK    2  A    between atoms: C_5  and  N_13
REMARK    3  A    between atoms: C_9  and  C_12
REMARK    4  A    between atoms: C_11  and  O_16
REMARK                            x       y       z     vdW  Elec       q    Type
REMARK                         _______ _______ _______ _____ _____    ______ ____
ROOT
ATOM      1  C   UNL     1       1.429   0.000   0.000  0.00  0.00    +0.000 A 
ATOM      2  C   UNL     1       1.429   0.825   0.000  0.00  0.00    +0.000 A 
ATOM      3  C   UNL     1       0.000   0.000   0.000  0.00  0.00    +0.000 A 
ATOM      4  C   UNL     1       0.715  -0.412   0.000  0.00  0.00    +0.000 A 
ATOM      5  C   UNL     1       0.715   1.238   0.000  0.00  0.00    +0.000 A 
ATOM      6  C   UNL     1       0.000   0.825   0.000  0.00  0.00    +0.000 A 
ATOM      7  O   UNL     1       0.715   2.062   0.000  0.00  0.00    +0.000 OA
ENDROOT
BRANCH   4   8
ATOM      8  C   UNL     1       0.715  -1.238   0.000  0.00  0.00    +0.000 C 
ATOM      9  N   UNL     1       1.429  -1.650   0.000  0.00  0.00    +0.000 N 
ATOM     10  O   UNL     1       0.000  -1.650   0.000  0.00  0.00    +0.000 OA
BRANCH   9  12
ATOM     11  C   UNL     1       2.143  -0.412   0.000  0.00  0.00    +0.000 C 
ATOM     12  C   UNL     1       2.143  -1.238   0.000  0.00  0.00    +0.000 C 
ENDBRANCH   9  12
BRANCH   9  14
ATOM     13  C   UNL     1       0.715  -2.888   0.000  0.00  0.00    +0.000 C 
ATOM     14  C   UNL     1       1.429  -2.475   0.000  0.00  0.00    +0.000 C 
ENDBRANCH   9  14
ENDBRANCH   4   8
BRANCH   6  16
ATOM     15  C   UNL     1      -1.429   0.825   0.000  0.00  0.00    +0.000 C 
ATOM     16  O   UNL     1      -0.715   1.238   0.000  0.00  0.00    +0.000 OA
ENDBRANCH   6  16
TORSDOF 4
