REMARK  Name = 
REMARK  5 active torsions:
REMARK  status: ('A' for Active; 'I' for Inactive)
REMARK    1  A    between atoms: C_9  and  C_12
REMARK    2  A    between atoms: C_9  and  C_14
REMARK    3  A    between atoms: C_10  and  C_11
REMARK    4  A    between atoms: C_10  and  N_16
REMARK    5  A    between atoms: C_11  and  C_14
REMARK                            x       y       z     vdW  Elec       q    Type
REMARK                         _______ _______ _______ _____ _____    ______ ____
ROOT
ATOM      1  C   UNL     1      -0.412  -0.935   0.000  0.00  0.00    +0.000 C 
ATOM      2  C   UNL     1       0.000  -1.650   0.000  0.00  0.00    +0.000 C 
ATOM      3  O   UNL     1       0.412  -2.365   0.000  0.00  0.00    +0.000 OA
ENDROOT
BRANCH   2   5
ATOM      4  C   UNL     1      -1.429  -1.650   0.000  0.00  0.00    +0.000 C 
ATOM      5  C   UNL     1      -0.715  -2.062   0.000  0.00  0.00    +0.000 C 
BRANCH   5   6
ATOM      6  C   UNL     1      -0.715  -2.888   0.000  0.00  0.00    +0.000 C 
BRANCH   6   9
ATOM      7  C   UNL     1      -1.429  -4.125   0.000  0.00  0.00    +0.000 C 
ATOM      8  C   UNL     1      -2.143  -2.888   0.000  0.00  0.00    +0.000 C 
ATOM      9  N   UNL     1      -1.429  -3.300   0.000  0.00  0.00    +0.000 NA
ENDBRANCH   6   9
ENDBRANCH   5   6
ENDBRANCH   2   5
BRANCH   2  10
ATOM     10  C   UNL     1       0.715  -1.238   0.000  0.00  0.00    +0.000 C 
BRANCH  10  15
ATOM     11  C   UNL     1       1.429   0.000   0.000  0.00  0.00    +0.000 A 
ATOM     12  C   UNL     1       0.000   0.000   0.000  0.00  0.00    +0.000 A 
ATOM     13  C   UNL     1       1.429   0.825   0.000  0.00  0.00    +0.000 A 
ATOM     14  C   UNL     1       0.000   0.825   0.000  0.00  0.00    +0.000 A 
ATOM     15  C   UNL     1       0.715  -0.412   0.000  0.00  0.00    +0.000 A 
ATOM     16  C   UNL     1       0.715   1.238   0.000  0.00  0.00    +0.000 A 
ATOM     17 CL   UNL     1       0.715   2.062   0.000  0.00  0.00    +0.000 Cl
ENDBRANCH  10  15
ENDBRANCH   2  10
TORSDOF 5
