REMARK  Name = 
REMARK  6 active torsions:
REMARK  status: ('A' for Active; 'I' for Inactive)
REMARK    1  A    between atoms: C_4  and  O_17
REMARK    2  A    between atoms: C_5  and  O_18
REMARK    3  A    between atoms: C_10  and  O_20
REMARK    4  A    between atoms: O_17  and  P_21
REMARK    5  A    between atoms: O_18  and  P_21
REMARK    6  A    between atoms: O_20  and  P_21
REMARK                            x       y       z     vdW  Elec       q    Type
REMARK                         _______ _______ _______ _____ _____    ______ ____
ROOT
ATOM      1  C   UNL     1       2.858   0.825   0.000  0.00  0.00    +0.000 C 
ATOM      2  C   UNL     1       0.715  -0.412   0.000  0.00  0.00    +0.000 A 
ATOM      3  C   UNL     1       1.429   0.000   0.000  0.00  0.00    +0.000 A 
ATOM      4  C   UNL     1       1.429  -1.650   0.000  0.00  0.00    +0.000 A 
ATOM      5  C   UNL     1       2.858   0.000   0.000  0.00  0.00    +0.000 A 
ATOM      6  C   UNL     1       0.715  -1.238   0.000  0.00  0.00    +0.000 A 
ATOM      7  C   UNL     1       2.143  -0.412   0.000  0.00  0.00    +0.000 A 
ATOM      8  C   UNL     1       2.143  -1.238   0.000  0.00  0.00    +0.000 A 
ATOM      9  C   UNL     1       3.572  -0.412   0.000  0.00  0.00    +0.000 A 
ATOM     10  C   UNL     1       3.572  -1.238   0.000  0.00  0.00    +0.000 A 
ATOM     11 CL   UNL     1       4.287   0.000   0.000  0.00  0.00    +0.000 Cl
ATOM     12  O   UNL     1       4.287  -1.650   0.000  0.00  0.00    +0.000 OA
ATOM     13  O   UNL     1       2.858  -1.650   0.000  0.00  0.00    +0.000 OA
ENDROOT
BRANCH   6  14
ATOM     14  O   UNL     1       0.000  -1.650   0.000  0.00  0.00    +0.000 OA
BRANCH  14  15
ATOM     15  P   UNL     1       0.000  -2.475   0.000  0.00  0.00    +0.000 P 
ATOM     16  S   UNL     1       0.000  -3.300   0.000  0.00  0.00    +0.000 S 
BRANCH  15  17
ATOM     17  O   UNL     1       0.825  -2.475   0.000  0.00  0.00    +0.000 OA
BRANCH  17  19
ATOM     18  C   UNL     1       2.062  -3.189   0.000  0.00  0.00    +0.000 C 
ATOM     19  C   UNL     1       1.238  -3.189   0.000  0.00  0.00    +0.000 C 
ENDBRANCH  17  19
ENDBRANCH  15  17
BRANCH  15  20
ATOM     20  O   UNL     1      -0.825  -2.475   0.000  0.00  0.00    +0.000 OA
BRANCH  20  22
ATOM     21  C   UNL     1      -2.062  -1.760   0.000  0.00  0.00    +0.000 C 
ATOM     22  C   UNL     1      -1.238  -1.760   0.000  0.00  0.00    +0.000 C 
ENDBRANCH  20  22
ENDBRANCH  15  20
ENDBRANCH  14  15
ENDBRANCH   6  14
TORSDOF 6
