REMARK  Name = 
REMARK  1 active torsions:
REMARK  status: ('A' for Active; 'I' for Inactive)
REMARK    1  A    between atoms: CA_9  and  C_12
REMARK                            x       y       z     vdW  Elec       q    Type
REMARK                         _______ _______ _______ _____ _____    ______ ____
ROOT
ATOM      1  C   UNL     1      15.025  -4.187   0.000  0.00  0.00    +0.000 A 
ATOM      2  C   UNL     1      15.025  -3.327   0.000  0.00  0.00    +0.000 A 
ATOM      3  C   UNL     1      14.278  -4.610   0.000  0.00  0.00    +0.000 A 
ATOM      4  C   UNL     1      14.278  -2.905   0.000  0.00  0.00    +0.000 A 
ATOM      5  C   UNL     1      13.541  -4.169   0.000  0.00  0.00    +0.000 A 
ATOM      6  C   UNL     1      13.541  -3.345   0.000  0.00  0.00    +0.000 A 
ATOM      7  C   UNL     1      12.113  -4.169   0.000  0.00  0.00    +0.000 A 
ATOM      8  C   UNL     1      12.827  -4.581   0.000  0.00  0.00    +0.000 A 
ATOM      9  CA  UNL     1      12.113  -3.345   0.000  0.00  0.00    +0.000 A 
ATOM     10  N   UNL     1      12.827  -2.932   0.000  0.00  0.00    +0.000 NA
ATOM     11  O   UNL     1      12.827  -5.406   0.000  0.00  0.00    +0.000 OA
ENDROOT
BRANCH   9  12
ATOM     12  C   UNL     1      11.399  -2.932   0.000  0.00  0.00    +0.000 C 
ATOM     13  O   UNL     1      10.685  -3.345   0.000  0.00  0.00    +0.000 OA
ATOM     14  OXT UNL     1      11.399  -2.108   0.000  0.00  0.00    +0.000 OA
ENDBRANCH   9  12
TORSDOF 1
