REMARK  Name = 
REMARK  7 active torsions:
REMARK  status: ('A' for Active; 'I' for Inactive)
REMARK    1  A    between atoms: C_7  and  C_8
REMARK    2  A    between atoms: C_7  and  C_9
REMARK    3  A    between atoms: C_8  and  C_10
REMARK    4  A    between atoms: C_9  and  C_11
REMARK    5  A    between atoms: C_10  and  C_12
REMARK    6  A    between atoms: C_11  and  N_13
REMARK    7  A    between atoms: C_12  and  N_14
REMARK                            x       y       z     vdW  Elec       q    Type
REMARK                         _______ _______ _______ _____ _____    ______ ____
ROOT
ATOM      1  C   UNL     1       2.475  -1.429   0.000  0.00  0.00    +0.000 C 
ENDROOT
BRANCH   1   2
ATOM      2  C   UNL     1       2.062  -0.714   0.000  0.00  0.00    +0.000 C 
BRANCH   2   3
ATOM      3  C   UNL     1       1.238  -0.714   0.000  0.00  0.00    +0.000 C 
BRANCH   3   4
ATOM      4  C   UNL     1       0.825   0.000   0.000  0.00  0.00    +0.000 C 
BRANCH   4   8
ATOM      5  C   UNL     1      -0.825   0.000   0.000  0.00  0.00    +0.000 C 
ATOM      6  C   UNL     1       0.000   0.825   0.000  0.00  0.00    +0.000 C 
ATOM      7  C   UNL     1       0.000  -0.825   0.000  0.00  0.00    +0.000 C 
ATOM      8  N   UNL     1       0.000   0.000   0.000  0.00  0.00    +0.000 N 
ENDBRANCH   4   8
ENDBRANCH   3   4
ENDBRANCH   2   3
ENDBRANCH   1   2
BRANCH   1   9
ATOM      9  C   UNL     1       3.300  -1.429   0.000  0.00  0.00    +0.000 C 
BRANCH   9  10
ATOM     10  C   UNL     1       3.712  -2.143   0.000  0.00  0.00    +0.000 C 
BRANCH  10  14
ATOM     11  C   UNL     1       5.362  -2.143   0.000  0.00  0.00    +0.000 C 
ATOM     12  C   UNL     1       4.537  -1.318   0.000  0.00  0.00    +0.000 C 
ATOM     13  C   UNL     1       4.537  -2.968   0.000  0.00  0.00    +0.000 C 
ATOM     14  N   UNL     1       4.537  -2.143   0.000  0.00  0.00    +0.000 N 
ENDBRANCH  10  14
ENDBRANCH   9  10
ENDBRANCH   1   9
TORSDOF 7
