REMARK  Name = 
REMARK  5 active torsions:
REMARK  status: ('A' for Active; 'I' for Inactive)
REMARK    1  A    between atoms: C_7  and  C_8
REMARK    2  A    between atoms: C_7  and  C_9
REMARK    3  A    between atoms: C_8  and  C_10
REMARK    4  A    between atoms: C_9  and  C_11
REMARK    5  A    between atoms: C_10  and  C_12
REMARK                            x       y       z     vdW  Elec       q    Type
REMARK                         _______ _______ _______ _____ _____    ______ ____
ROOT
ATOM      1  O   UNL     1      12.867 -15.982   0.000  0.00  0.00    +0.000 OA
ATOM      2  C   UNL     1      12.867 -15.156   0.000  0.00  0.00    +0.000 C 
ENDROOT
BRANCH   2   4
ATOM      3  O   UNL     1      13.581 -13.919   0.000  0.00  0.00    +0.000 OA
ATOM      4  C   UNL     1      13.581 -14.744   0.000  0.00  0.00    +0.000 C 
BRANCH   4   6
ATOM      5  O   UNL     1      15.010 -14.744   0.000  0.00  0.00    +0.000 OA
ATOM      6  C   UNL     1      14.296 -15.156   0.000  0.00  0.00    +0.000 C 
ENDBRANCH   4   6
ENDBRANCH   2   4
BRANCH   2   7
ATOM      7  C   UNL     1      12.152 -14.744   0.000  0.00  0.00    +0.000 C 
BRANCH   7   9
ATOM      8  O   UNL     1      11.438 -15.982   0.000  0.00  0.00    +0.000 OA
ATOM      9  C   UNL     1      11.438 -15.156   0.000  0.00  0.00    +0.000 C 
BRANCH   9  12
ATOM     10  O   UNL     1      10.009 -15.156   0.000  0.00  0.00    +0.000 OA
ATOM     11  O   UNL     1      10.723 -13.919   0.000  0.00  0.00    +0.000 OA
ATOM     12  C   UNL     1      10.723 -14.744   0.000  0.00  0.00    +0.000 C 
ENDBRANCH   9  12
ENDBRANCH   7   9
ENDBRANCH   2   7
TORSDOF 5
