REMARK  Name = 
REMARK  6 active torsions:
REMARK  status: ('A' for Active; 'I' for Inactive)
REMARK    1  A    between atoms: C_6  and  C_8
REMARK    2  A    between atoms: C_14  and  O_30
REMARK    3  A    between atoms: C_15  and  O_31
REMARK    4  A    between atoms: C_16  and  N_24
REMARK    5  A    between atoms: C_17  and  O_30
REMARK    6  A    between atoms: C_18  and  O_31
REMARK                            x       y       z     vdW  Elec       q    Type
REMARK                         _______ _______ _______ _____ _____    ______ ____
ROOT
ATOM      1  C   UNL     1       1.429   0.825   0.000  0.00  0.00    +0.000 C 
ATOM      2  C   UNL     1       0.715   1.238   0.000  0.00  0.00    +0.000 C 
ATOM      3  C   UNL     1       1.429   0.000   0.000  0.00  0.00    +0.000 C 
ATOM      4  C   UNL     1       0.000   0.000   0.000  0.00  0.00    +0.000 C 
ATOM      5  C   UNL     1       0.000   0.825   0.000  0.00  0.00    +0.000 C 
ATOM      6  C   UNL     1       0.715  -0.412   0.000  0.00  0.00    +0.000 C 
ATOM      7  N   UNL     1       0.715   2.062   0.000  0.00  0.00    +0.000 NA
ATOM      8  N   UNL     1       2.143  -0.412   0.000  0.00  0.00    +0.000 NA
ATOM      9  O   UNL     1      -0.715  -0.412   0.000  0.00  0.00    +0.000 OA
ENDROOT
BRANCH   5  10
ATOM     10  O   UNL     1      -0.715   1.238   0.000  0.00  0.00    +0.000 OA
BRANCH  10  15
ATOM     11  C   UNL     1      -2.858   0.000   0.000  0.00  0.00    +0.000 C 
ATOM     12  C   UNL     1      -2.858   0.825   0.000  0.00  0.00    +0.000 C 
ATOM     13  C   UNL     1      -2.143  -0.412   0.000  0.00  0.00    +0.000 C 
ATOM     14  C   UNL     1      -2.143   1.238   0.000  0.00  0.00    +0.000 C 
ATOM     15  C   UNL     1      -1.429   0.825   0.000  0.00  0.00    +0.000 C 
ATOM     16  N   UNL     1      -2.143   2.062   0.000  0.00  0.00    +0.000 NA
ATOM     17  O   UNL     1      -1.429   0.000   0.000  0.00  0.00    +0.000 OA
BRANCH  13  18
ATOM     18  C   UNL     1      -2.143  -1.238   0.000  0.00  0.00    +0.000 C 
ATOM     19  N   UNL     1      -2.858  -1.650   0.000  0.00  0.00    +0.000 NA
ENDBRANCH  13  18
ENDBRANCH  10  15
ENDBRANCH   5  10
BRANCH   6  20
ATOM     20  O   UNL     1       0.715  -1.238   0.000  0.00  0.00    +0.000 OA
BRANCH  20  25
ATOM     21  C   UNL     1      -1.711  -3.250   0.000  0.00  0.00    +0.000 C 
ATOM     22  C   UNL     1      -1.429  -1.650   0.000  0.00  0.00    +0.000 C 
ATOM     23  C   UNL     1       0.000  -2.475   0.000  0.00  0.00    +0.000 C 
ATOM     24  C   UNL     1      -0.715  -2.888   0.000  0.00  0.00    +0.000 C 
ATOM     25  C   UNL     1       0.000  -1.650   0.000  0.00  0.00    +0.000 C 
ATOM     26  C   UNL     1      -1.429  -2.475   0.000  0.00  0.00    +0.000 C 
ATOM     27  O   UNL     1       0.715  -2.888   0.000  0.00  0.00    +0.000 OA
ATOM     28  O   UNL     1      -2.241  -2.332   0.000  0.00  0.00    +0.000 OA
ATOM     29  O   UNL     1      -0.715  -1.238   0.000  0.00  0.00    +0.000 OA
BRANCH  24  31
ATOM     30  C   UNL     1       0.000  -4.125   0.000  0.00  0.00    +0.000 C 
ATOM     31  N   UNL     1      -0.715  -3.712   0.000  0.00  0.00    +0.000 NA
ENDBRANCH  24  31
ENDBRANCH  20  25
ENDBRANCH   6  20
TORSDOF 6
