REMARK  Name = 
REMARK  4 active torsions:
REMARK  status: ('A' for Active; 'I' for Inactive)
REMARK    1  A    between atoms: N_5  and  C1*_13
REMARK    2  A    between atoms: N_8  and  N_9
REMARK    3  A    between atoms: C4*_15  and  C5*_22
REMARK    4  A    between atoms: C_16  and  C_25
REMARK                            x       y       z     vdW  Elec       q    Type
REMARK                         _______ _______ _______ _____ _____    ______ ____
ROOT
ATOM      1  N   UNL     1       8.147  -0.717   0.000  0.00  0.00    +0.000 N 
ATOM      2  N   UNL     1       8.147  -2.045   0.000  0.00  0.00    +0.000 NA
ATOM      3  N   UNL     1       6.652  -0.556   0.000  0.00  0.00    +0.000 NA
ATOM      4  N   UNL     1       5.222  -0.556   0.000  0.00  0.00    +0.000 NA
ATOM      5  N   UNL     1       5.937  -1.793   0.000  0.00  0.00    +0.000 NA
ATOM      6  N   UNL     1       6.652  -3.031   0.000  0.00  0.00    +0.000 NA
ATOM      7  C   UNL     1       7.366  -0.968   0.000  0.00  0.00    +0.000 A 
ATOM      8  C   UNL     1       8.628  -1.381   0.000  0.00  0.00    +0.000 A 
ATOM      9  C   UNL     1       7.366  -1.793   0.000  0.00  0.00    +0.000 A 
ATOM     10  C   UNL     1       6.652  -2.206   0.000  0.00  0.00    +0.000 A 
ATOM     11  C   UNL     1       5.937  -0.968   0.000  0.00  0.00    +0.000 A 
ENDROOT
BRANCH   1  16
ATOM     12  O4* UNL     1       7.919   0.736   0.000  0.00  0.00    +0.000 OA
ATOM     13  O2* UNL     1       9.855  -0.165   0.000  0.00  0.00    +0.000 OA
ATOM     14  O3* UNL     1       9.858   1.630   0.000  0.00  0.00    +0.000 OA
ATOM     15  C2* UNL     1       9.188   0.321   0.000  0.00  0.00    +0.000 C 
ATOM     16  C1* UNL     1       8.403   0.068   0.000  0.00  0.00    +0.000 C 
ATOM     17  C3* UNL     1       9.189   1.146   0.000  0.00  0.00    +0.000 C 
ATOM     18  C4* UNL     1       8.405   1.402   0.000  0.00  0.00    +0.000 C 
BRANCH  18  20
ATOM     19  O5* UNL     1       8.705   2.800   0.000  0.00  0.00    +0.000 OA
ATOM     20  C5* UNL     1       8.152   2.188   0.000  0.00  0.00    +0.000 C 
ENDBRANCH  18  20
ENDBRANCH   1  16
BRANCH   4  21
ATOM     21  N   UNL     1       4.508  -0.968   0.000  0.00  0.00    +0.000 NA
ATOM     22  C   UNL     1       3.793  -0.556   0.000  0.00  0.00    +0.000 C 
BRANCH  22  23
ATOM     23  C   UNL     1       3.079  -0.968   0.000  0.00  0.00    +0.000 C 
ATOM     24  C   UNL     1       2.365  -0.556   0.000  0.00  0.00    +0.000 C 
ATOM     25  C   UNL     1       3.079  -1.793   0.000  0.00  0.00    +0.000 C 
ATOM     26  C   UNL     1       1.650  -0.968   0.000  0.00  0.00    +0.000 C 
ATOM     27  C   UNL     1       2.365  -2.206   0.000  0.00  0.00    +0.000 C 
ATOM     28  C   UNL     1       1.650  -1.793   0.000  0.00  0.00    +0.000 C 
ENDBRANCH  22  23
ENDBRANCH   4  21
TORSDOF 4
