REMARK  Name = 
REMARK  4 active torsions:
REMARK  status: ('A' for Active; 'I' for Inactive)
REMARK    1  A    between atoms: C_7  and  C_14
REMARK    2  A    between atoms: C_8  and  C_15
REMARK    3  A    between atoms: C_13  and  C_16
REMARK    4  A    between atoms: C_13  and  C_17
REMARK                            x       y       z     vdW  Elec       q    Type
REMARK                         _______ _______ _______ _____ _____    ______ ____
ROOT
ATOM      1  C   UNL     1       0.470   0.412   0.000  0.00  0.00    +0.000 C 
ATOM      2  O   UNL     1       0.057  -0.302   0.000  0.00  0.00    +0.000 OA
ENDROOT
BRANCH   1   9
ATOM      3  C   UNL     1      -1.649   3.258   0.000  0.00  0.00    +0.000 A 
ATOM      4  C   UNL     1      -1.649   2.433   0.000  0.00  0.00    +0.000 A 
ATOM      5  C   UNL     1      -0.220   3.258   0.000  0.00  0.00    +0.000 A 
ATOM      6  C   UNL     1      -0.935   3.670   0.000  0.00  0.00    +0.000 A 
ATOM      7  C   UNL     1      -0.935   2.020   0.000  0.00  0.00    +0.000 A 
ATOM      8  C   UNL     1      -0.220   2.433   0.000  0.00  0.00    +0.000 A 
ATOM      9  C   UNL     1       0.057   1.127   0.000  0.00  0.00    +0.000 A 
ATOM     10  N   UNL     1      -0.763   1.213   0.000  0.00  0.00    +0.000 NA
ATOM     11  N   UNL     1       0.393   1.881   0.000  0.00  0.00    +0.000 NA
BRANCH   6  12
ATOM     12  C   UNL     1      -0.935   4.495   0.000  0.00  0.00    +0.000 C 
ATOM     13  N   UNL     1      -1.649   4.908   0.000  0.00  0.00    +0.000 NA
ATOM     14  N   UNL     1      -0.220   4.908   0.000  0.00  0.00    +0.000 NA
ENDBRANCH   6  12
ENDBRANCH   1   9
BRANCH   1  21
ATOM     15  C   UNL     1       3.993   0.825   0.000  0.00  0.00    +0.000 A 
ATOM     16  C   UNL     1       3.279   1.238   0.000  0.00  0.00    +0.000 A 
ATOM     17  C   UNL     1       3.279  -0.412   0.000  0.00  0.00    +0.000 A 
ATOM     18  C   UNL     1       3.993   0.000   0.000  0.00  0.00    +0.000 A 
ATOM     19  C   UNL     1       2.564   0.825   0.000  0.00  0.00    +0.000 A 
ATOM     20  C   UNL     1       2.564   0.000   0.000  0.00  0.00    +0.000 A 
ATOM     21  C   UNL     1       1.295   0.412   0.000  0.00  0.00    +0.000 A 
ATOM     22  N   UNL     1       1.780   1.080   0.000  0.00  0.00    +0.000 NA
ATOM     23  N   UNL     1       1.780  -0.255   0.000  0.00  0.00    +0.000 NA
BRANCH  18  24
ATOM     24  C   UNL     1       4.708  -0.412   0.000  0.00  0.00    +0.000 C 
ATOM     25  N   UNL     1       5.422   0.000   0.000  0.00  0.00    +0.000 NA
ATOM     26  N   UNL     1       4.708  -1.238   0.000  0.00  0.00    +0.000 NA
ENDBRANCH  18  24
ENDBRANCH   1  21
TORSDOF 4
