REMARK  Name = 
REMARK  5 active torsions:
REMARK  status: ('A' for Active; 'I' for Inactive)
REMARK    1  A    between atoms: C_1  and  C_10
REMARK    2  A    between atoms: C_4  and  O_14
REMARK    3  A    between atoms: C_7  and  CA_9
REMARK    4  A    between atoms: CA_9  and  C_10
REMARK    5  A    between atoms: O_14  and  C_17
REMARK                            x       y       z     vdW  Elec       q    Type
REMARK                         _______ _______ _______ _____ _____    ______ ____
ROOT
ATOM      1  C   UNL     1       1.305   0.323   0.000  0.00  0.00    +0.000 A 
ATOM      2  C   UNL     1       1.305  -0.502   0.000  0.00  0.00    +0.000 A 
ATOM      3  C   UNL     1       0.590  -0.915   0.000  0.00  0.00    +0.000 A 
ATOM      4  C   UNL     1      -0.124  -0.502   0.000  0.00  0.00    +0.000 A 
ATOM      5  C   UNL     1      -0.124   0.323   0.000  0.00  0.00    +0.000 A 
ATOM      6  C   UNL     1       0.590   0.735   0.000  0.00  0.00    +0.000 A 
ATOM      7  I   UNL     1       0.590  -1.740   0.000  0.00  0.00    +0.000 I 
ATOM      8  I   UNL     1      -0.839   0.735   0.000  0.00  0.00    +0.000 I 
ENDROOT
BRANCH   1   9
ATOM      9  C   UNL     1       2.019   0.735   0.000  0.00  0.00    +0.000 C 
BRANCH   9  10
ATOM     10  CA  UNL     1       2.734   0.323   0.000  0.00  0.00    +0.000 C 
ATOM     11  N   UNL     1       2.734  -0.502   0.000  0.00  0.00    +0.000 NA
BRANCH  10  12
ATOM     12  C   UNL     1       3.448   0.735   0.000  0.00  0.00    +0.000 C 
ATOM     13  O   UNL     1       3.448   1.560   0.000  0.00  0.00    +0.000 OA
ATOM     14  OXT UNL     1       4.163   0.323   0.000  0.00  0.00    +0.000 OA
ENDBRANCH  10  12
ENDBRANCH   9  10
ENDBRANCH   1   9
BRANCH   4  15
ATOM     15  O   UNL     1      -0.839  -0.915   0.000  0.00  0.00    +0.000 OA
BRANCH  15  18
ATOM     16  O   UNL     1      -3.697   0.735   0.000  0.00  0.00    +0.000 OA
ATOM     17  I   UNL     1      -3.697  -0.915   0.000  0.00  0.00    +0.000 I 
ATOM     18  C   UNL     1      -1.553  -0.502   0.000  0.00  0.00    +0.000 A 
ATOM     19  C   UNL     1      -2.982  -0.502   0.000  0.00  0.00    +0.000 A 
ATOM     20  C   UNL     1      -2.268  -0.915   0.000  0.00  0.00    +0.000 A 
ATOM     21  C   UNL     1      -1.553   0.323   0.000  0.00  0.00    +0.000 A 
ATOM     22  C   UNL     1      -2.982   0.323   0.000  0.00  0.00    +0.000 A 
ATOM     23  C   UNL     1      -2.268   0.735   0.000  0.00  0.00    +0.000 A 
ATOM     24  I   UNL     1      -2.268   1.560   0.000  0.00  0.00    +0.000 I 
ENDBRANCH  15  18
ENDBRANCH   4  15
TORSDOF 5
