REMARK  Name = 
REMARK  5 active torsions:
REMARK  status: ('A' for Active; 'I' for Inactive)
REMARK    1  A    between atoms: N_6  and  C_13
REMARK    2  A    between atoms: N_10  and  C_20
REMARK    3  A    between atoms: N_10  and  C_23
REMARK    4  A    between atoms: C_15  and  C_16
REMARK    5  A    between atoms: C_23  and  C_24
REMARK                            x       y       z     vdW  Elec       q    Type
REMARK                         _______ _______ _______ _____ _____    ______ ____
ROOT
ATOM      1  N   UNL     1       5.289   0.959   0.000  0.00  0.00    +0.000 N 
ATOM      2  N   UNL     1       5.289  -0.369   0.000  0.00  0.00    +0.000 NA
ATOM      3  N   UNL     1       3.793   1.120   0.000  0.00  0.00    +0.000 NA
ATOM      4  N   UNL     1       3.079  -0.118   0.000  0.00  0.00    +0.000 NA
ATOM      5  C   UNL     1       4.508   0.707   0.000  0.00  0.00    +0.000 A 
ATOM      6  C   UNL     1       5.770   0.295   0.000  0.00  0.00    +0.000 A 
ATOM      7  C   UNL     1       4.508  -0.118   0.000  0.00  0.00    +0.000 A 
ATOM      8  C   UNL     1       3.793  -0.530   0.000  0.00  0.00    +0.000 A 
ATOM      9  C   UNL     1       3.079   0.707   0.000  0.00  0.00    +0.000 A 
ENDROOT
BRANCH   1  14
ATOM     10  O   UNL     1       6.330   1.997   0.000  0.00  0.00    +0.000 OA
ATOM     11  O   UNL     1       4.236   2.413   0.000  0.00  0.00    +0.000 OA
ATOM     12  O   UNL     1       5.294   3.863   0.000  0.00  0.00    +0.000 OA
ATOM     13  C   UNL     1       5.061   2.411   0.000  0.00  0.00    +0.000 C 
ATOM     14  C   UNL     1       5.545   1.743   0.000  0.00  0.00    +0.000 C 
ATOM     15  C   UNL     1       5.547   3.078   0.000  0.00  0.00    +0.000 C 
ATOM     16  C   UNL     1       6.331   2.822   0.000  0.00  0.00    +0.000 C 
BRANCH  16  19
ATOM     17  O   UNL     1       6.915   4.126   0.000  0.00  0.00    +0.000 OA
ATOM     18  N   UNL     1       7.753   2.969   0.000  0.00  0.00    +0.000 NA
ATOM     19  C   UNL     1       7.000   3.305   0.000  0.00  0.00    +0.000 C 
ATOM     20  C   UNL     1       8.421   3.452   0.000  0.00  0.00    +0.000 C 
ENDBRANCH  16  19
ENDBRANCH   1  14
BRANCH   8  21
ATOM     21  N   UNL     1       3.793  -1.355   0.000  0.00  0.00    +0.000 NA
BRANCH  21  22
ATOM     22  C   UNL     1       3.079  -1.768   0.000  0.00  0.00    +0.000 C 
BRANCH  22  24
ATOM     23  I   UNL     1       1.650  -4.243   0.000  0.00  0.00    +0.000 I 
ATOM     24  C   UNL     1       3.079  -2.593   0.000  0.00  0.00    +0.000 A 
ATOM     25  C   UNL     1       2.365  -3.005   0.000  0.00  0.00    +0.000 A 
ATOM     26  C   UNL     1       3.793  -3.005   0.000  0.00  0.00    +0.000 A 
ATOM     27  C   UNL     1       2.365  -3.830   0.000  0.00  0.00    +0.000 A 
ATOM     28  C   UNL     1       3.793  -3.830   0.000  0.00  0.00    +0.000 A 
ATOM     29  C   UNL     1       3.079  -4.243   0.000  0.00  0.00    +0.000 A 
ENDBRANCH  22  24
ENDBRANCH  21  22
ENDBRANCH   8  21
TORSDOF 5
