REMARK  Name = 
REMARK  7 active torsions:
REMARK  status: ('A' for Active; 'I' for Inactive)
REMARK    1  A    between atoms: C_17  and  C_18
REMARK    2  A    between atoms: C_17  and  C_23
REMARK    3  A    between atoms: C_18  and  N_24
REMARK    4  A    between atoms: C_19  and  C_20
REMARK    5  A    between atoms: C_19  and  N_24
REMARK    6  A    between atoms: C_21  and  C_23
REMARK    7  A    between atoms: C_22  and  C_23
REMARK                            x       y       z     vdW  Elec       q    Type
REMARK                         _______ _______ _______ _____ _____    ______ ____
ROOT
ATOM      1  C   UNL     1       6.430  -1.238   0.000  0.00  0.00    +0.000 C 
ENDROOT
BRANCH   1   7
ATOM      2  C   UNL     1       8.574  -2.475   0.000  0.00  0.00    +0.000 A 
ATOM      3  C   UNL     1       8.574  -1.650   0.000  0.00  0.00    +0.000 A 
ATOM      4  C   UNL     1       7.859  -2.888   0.000  0.00  0.00    +0.000 A 
ATOM      5  C   UNL     1       7.859  -1.238   0.000  0.00  0.00    +0.000 A 
ATOM      6  C   UNL     1       7.145  -2.475   0.000  0.00  0.00    +0.000 A 
ATOM      7  C   UNL     1       7.145  -1.650   0.000  0.00  0.00    +0.000 A 
ENDBRANCH   1   7
BRANCH   1  13
ATOM      8  C   UNL     1       6.430   1.238   0.000  0.00  0.00    +0.000 A 
ATOM      9  C   UNL     1       5.716   0.825   0.000  0.00  0.00    +0.000 A 
ATOM     10  C   UNL     1       7.145   0.825   0.000  0.00  0.00    +0.000 A 
ATOM     11  C   UNL     1       5.716   0.000   0.000  0.00  0.00    +0.000 A 
ATOM     12  C   UNL     1       7.145   0.000   0.000  0.00  0.00    +0.000 A 
ATOM     13  C   UNL     1       6.430  -0.412   0.000  0.00  0.00    +0.000 A 
ENDBRANCH   1  13
BRANCH   1  14
ATOM     14  C   UNL     1       5.716  -1.650   0.000  0.00  0.00    +0.000 C 
BRANCH  14  15
ATOM     15  C   UNL     1       5.001  -1.238   0.000  0.00  0.00    +0.000 C 
BRANCH  15  16
ATOM     16  N   UNL     1       4.287  -1.650   0.000  0.00  0.00    +0.000 NA
BRANCH  16  18
ATOM     17  C   UNL     1       3.572  -0.412   0.000  0.00  0.00    +0.000 C 
ATOM     18  C   UNL     1       3.572  -1.238   0.000  0.00  0.00    +0.000 C 
BRANCH  18  24
ATOM     19  C   UNL     1       1.429  -2.475   0.000  0.00  0.00    +0.000 A 
ATOM     20  C   UNL     1       2.143  -2.888   0.000  0.00  0.00    +0.000 A 
ATOM     21  C   UNL     1       1.429  -1.650   0.000  0.00  0.00    +0.000 A 
ATOM     22  C   UNL     1       2.858  -2.475   0.000  0.00  0.00    +0.000 A 
ATOM     23  C   UNL     1       2.143  -1.238   0.000  0.00  0.00    +0.000 A 
ATOM     24  C   UNL     1       2.858  -1.650   0.000  0.00  0.00    +0.000 A 
ENDBRANCH  18  24
ENDBRANCH  16  18
ENDBRANCH  15  16
ENDBRANCH  14  15
ENDBRANCH   1  14
TORSDOF 7
