REMARK  Name = 
REMARK  6 active torsions:
REMARK  status: ('A' for Active; 'I' for Inactive)
REMARK    1  A    between atoms: N_4  and  C_5
REMARK    2  A    between atoms: C_5  and  C_6
REMARK    3  A    between atoms: C_5  and  C_16
REMARK    4  A    between atoms: C_6  and  C_7
REMARK    5  A    between atoms: N_18  and  CA_19
REMARK    6  A    between atoms: CA_19  and  C_20
REMARK                            x       y       z     vdW  Elec       q    Type
REMARK                         _______ _______ _______ _____ _____    ______ ____
ROOT
ATOM      1  C   UNK A   1      -2.143   2.666   0.000  0.00  0.00    +0.000 C 
ENDROOT
BRANCH   1   5
ATOM      2  C   UNK A   0      -1.318   1.238   0.000  0.00  0.00    +0.000 C 
ATOM      3  C   UNK A   0      -2.143   1.238   0.000  0.00  0.00    +0.000 C 
ATOM      4  O   UNK A   0      -2.556   0.523   0.000  0.00  0.00    +0.000 OA
ATOM      5  N   UNK A   1      -2.556   1.952   0.000  0.00  0.00    +0.000 NA
ENDBRANCH   1   5
BRANCH   1   6
ATOM      6  C   UNK A   1      -1.318   2.666   0.000  0.00  0.00    +0.000 C 
ATOM      7  O   UNK A   1      -0.906   3.381   0.000  0.00  0.00    +0.000 OA
ATOM      8  N   GLY A   2      -0.906   1.952   0.000  0.00  0.00    +0.000 NA
BRANCH   8   9
ATOM      9  CA  GLY A   2      -0.081   1.952   0.000  0.00  0.00    +0.000 C 
BRANCH   9  10
ATOM     10  C   GLY A   2       0.332   1.238   0.000  0.00  0.00    +0.000 C 
ATOM     11  O   GLY A   2       1.157   1.238   0.000  0.00  0.00    +0.000 OA
ATOM     12  OXT GLY A   2      -0.081   0.523   0.000  0.00  0.00    +0.000 OA
ENDBRANCH   9  10
ENDBRANCH   8   9
ENDBRANCH   1   6
BRANCH   1  13
ATOM     13  C   UNK A   1      -2.556   3.381   0.000  0.00  0.00    +0.000 C 
BRANCH  13  14
ATOM     14  C   UNK A   1      -3.381   3.381   0.000  0.00  0.00    +0.000 A 
ATOM     15  C   UNK A   1      -3.793   2.666   0.000  0.00  0.00    +0.000 A 
ATOM     16  C   UNK A   1      -4.618   2.666   0.000  0.00  0.00    +0.000 A 
ATOM     17  I   UNK A   1      -5.031   1.952   0.000  0.00  0.00    +0.000 I 
ATOM     18  C   UNK A   1      -5.031   3.381   0.000  0.00  0.00    +0.000 A 
ATOM     19  O   UNK A   1      -5.856   3.381   0.000  0.00  0.00    +0.000 OA
ATOM     20  C   UNK A   1      -4.618   4.095   0.000  0.00  0.00    +0.000 A 
ATOM     21  I   UNK A   1      -5.031   4.810   0.000  0.00  0.00    +0.000 I 
ATOM     22  C   UNK A   1      -3.793   4.095   0.000  0.00  0.00    +0.000 A 
ENDBRANCH  13  14
ENDBRANCH   1  13
TORSDOF 6
