REMARK  Name = 
REMARK  3 active torsions:
REMARK  status: ('A' for Active; 'I' for Inactive)
REMARK    1  A    between atoms: C_3  and  N_4
REMARK    2  A    between atoms: C_9  and  C_10
REMARK    3  A    between atoms: C_12  and  N_13
REMARK                            x       y       z     vdW  Elec       q    Type
REMARK                         _______ _______ _______ _____ _____    ______ ____
ROOT
ATOM      1  C   UNL     1       0.302   0.651   0.000  0.00  0.00    +0.000 C 
ATOM      2  C   UNL     1      -0.412   1.063   0.000  0.00  0.00    +0.000 C 
ATOM      3  C   UNL     1      -1.127   0.651   0.000  0.00  0.00    +0.000 C 
ATOM      4  C   UNL     1      -1.841   1.063   0.000  0.00  0.00    +0.000 C 
ATOM      5  O   UNL     1      -2.556   0.651   0.000  0.00  0.00    +0.000 OA
ATOM      6  C   UNL     1      -1.841   1.888   0.000  0.00  0.00    +0.000 C 
ATOM      7  C   UNL     1      -1.127   2.301   0.000  0.00  0.00    +0.000 C 
ATOM      8  C   UNL     1      -0.412   1.888   0.000  0.00  0.00    +0.000 C 
ATOM      9  O   UNL     1       0.302   2.301   0.000  0.00  0.00    +0.000 OA
ENDROOT
BRANCH   3  10
ATOM     10  N   UNL     1      -1.127  -0.174   0.000  0.00  0.00    +0.000 N 
ATOM     11  C   UNL     1      -0.715  -0.889   0.000  0.00  0.00    +0.000 C 
ATOM     12  C   UNL     1      -1.540  -0.889   0.000  0.00  0.00    +0.000 C 
ENDBRANCH   3  10
BRANCH   7  13
ATOM     13  N   UNL     1      -1.127   3.126   0.000  0.00  0.00    +0.000 N 
ATOM     14  C   UNL     1      -1.540   3.840   0.000  0.00  0.00    +0.000 C 
ATOM     15  C   UNL     1      -0.715   3.840   0.000  0.00  0.00    +0.000 C 
ENDBRANCH   7  13
BRANCH   6  16
ATOM     16  C   UNL     1      -2.556   2.301   0.000  0.00  0.00    +0.000 C 
ATOM     17  O   UNL     1      -2.556   3.126   0.000  0.00  0.00    +0.000 OA
ENDBRANCH   6  16
TORSDOF 3
