REMARK  Name = 
REMARK  6 active torsions:
REMARK  status: ('A' for Active; 'I' for Inactive)
REMARK    1  A    between atoms: C_13  and  N_20
REMARK    2  A    between atoms: C_15  and  O_25
REMARK    3  A    between atoms: C_16  and  S_26
REMARK    4  A    between atoms: C_17  and  N_21
REMARK    5  A    between atoms: C_18  and  N_20
REMARK    6  A    between atoms: N_21  and  S_26
REMARK                            x       y       z     vdW  Elec       q    Type
REMARK                         _______ _______ _______ _____ _____    ______ ____
ROOT
ATOM      1  C   UNL     1       5.001  -0.412   0.000  0.00  0.00    +0.000 A 
ATOM      2  C   UNL     1       5.001   0.412   0.000  0.00  0.00    +0.000 A 
ATOM      3  C   UNL     1       4.287  -0.825   0.000  0.00  0.00    +0.000 A 
ATOM      4  C   UNL     1       4.287   0.825   0.000  0.00  0.00    +0.000 A 
ATOM      5  C   UNL     1       3.572   0.412   0.000  0.00  0.00    +0.000 A 
ATOM      6  N   UNL     1       3.572  -0.412   0.000  0.00  0.00    +0.000 NA
ENDROOT
BRANCH   5   7
ATOM      7  N   UNL     1       2.858   0.825   0.000  0.00  0.00    +0.000 NA
BRANCH   7  12
ATOM      8  C   UNL     1       1.429   0.825   0.000  0.00  0.00    +0.000 A 
ATOM      9  C   UNL     1       2.143  -0.412   0.000  0.00  0.00    +0.000 A 
ATOM     10  C   UNL     1       0.715   0.412   0.000  0.00  0.00    +0.000 A 
ATOM     11  C   UNL     1       1.429  -0.825   0.000  0.00  0.00    +0.000 A 
ATOM     12  C   UNL     1       2.143   0.412   0.000  0.00  0.00    +0.000 A 
ATOM     13  C   UNL     1       0.715  -0.412   0.000  0.00  0.00    +0.000 A 
ATOM     14  O   UNL     1       0.000  -0.825   0.000  0.00  0.00    +0.000 OA
ENDBRANCH   7  12
ENDBRANCH   5   7
BRANCH   4  15
ATOM     15  N   UNL     1       4.287   1.650   0.000  0.00  0.00    +0.000 NA
BRANCH  15  18
ATOM     16  O   UNL     1       4.589   2.777   0.000  0.00  0.00    +0.000 OA
ATOM     17  O   UNL     1       5.414   1.348   0.000  0.00  0.00    +0.000 OA
ATOM     18  S   UNL     1       5.001   2.062   0.000  0.00  0.00    +0.000 S 
BRANCH  18  24
ATOM     19  C   UNL     1       6.430   3.712   0.000  0.00  0.00    +0.000 A 
ATOM     20  C   UNL     1       7.145   2.475   0.000  0.00  0.00    +0.000 A 
ATOM     21  C   UNL     1       5.716   3.300   0.000  0.00  0.00    +0.000 A 
ATOM     22  C   UNL     1       6.430   2.062   0.000  0.00  0.00    +0.000 A 
ATOM     23  C   UNL     1       7.145   3.300   0.000  0.00  0.00    +0.000 A 
ATOM     24  C   UNL     1       5.716   2.475   0.000  0.00  0.00    +0.000 A 
BRANCH  23  26
ATOM     25  C   UNL     1       8.574   3.300   0.000  0.00  0.00    +0.000 C 
ATOM     26  O   UNL     1       7.859   3.712   0.000  0.00  0.00    +0.000 OA
ENDBRANCH  23  26
ENDBRANCH  18  24
ENDBRANCH  15  18
ENDBRANCH   4  15
TORSDOF 6
