REMARK  Name = 
REMARK  6 active torsions:
REMARK  status: ('A' for Active; 'I' for Inactive)
REMARK    1  A    between atoms: C_5  and  C_6
REMARK    2  A    between atoms: C_6  and  O_27
REMARK    3  A    between atoms: C_13  and  C_19
REMARK    4  A    between atoms: C_14  and  O_25
REMARK    5  A    between atoms: C_16  and  O_26
REMARK    6  A    between atoms: C_18  and  O_27
REMARK                            x       y       z     vdW  Elec       q    Type
REMARK                         _______ _______ _______ _____ _____    ______ ____
ROOT
ATOM      1  C   UNL     1       0.000   0.000   0.000  0.00  0.00    +0.000 A 
ATOM      2  C   UNL     1      -0.715  -1.238   0.000  0.00  0.00    +0.000 A 
ATOM      3  C   UNL     1      -0.715  -0.412   0.000  0.00  0.00    +0.000 A 
ATOM      4  C   UNL     1       0.715  -0.412   0.000  0.00  0.00    +0.000 A 
ATOM      5  C   UNL     1       0.000  -1.650   0.000  0.00  0.00    +0.000 A 
ATOM      6  C   UNL     1       0.715  -1.238   0.000  0.00  0.00    +0.000 A 
ATOM      7  C   UNL     1       2.143  -0.412   0.000  0.00  0.00    +0.000 A 
ATOM      8  C   UNL     1       1.429  -1.650   0.000  0.00  0.00    +0.000 A 
ATOM      9  N   UNL     1       1.429   0.000   0.000  0.00  0.00    +0.000 NA
ATOM     10  N   UNL     1       2.143  -1.238   0.000  0.00  0.00    +0.000 NA
ATOM     11  O   UNL     1       1.429  -2.475   0.000  0.00  0.00    +0.000 OA
ENDROOT
BRANCH   7  18
ATOM     12  C   UNL     1       5.001  -0.412   0.000  0.00  0.00    +0.000 C 
ATOM     13  C   UNL     1       3.572   2.062   0.000  0.00  0.00    +0.000 C 
ATOM     14  C   UNL     1       3.572  -0.412   0.000  0.00  0.00    +0.000 A 
ATOM     15  C   UNL     1       2.858   0.825   0.000  0.00  0.00    +0.000 A 
ATOM     16  C   UNL     1       4.287   0.000   0.000  0.00  0.00    +0.000 A 
ATOM     17  C   UNL     1       3.572   1.238   0.000  0.00  0.00    +0.000 A 
ATOM     18  C   UNL     1       2.858   0.000   0.000  0.00  0.00    +0.000 A 
ATOM     19  C   UNL     1       4.287   0.825   0.000  0.00  0.00    +0.000 A 
BRANCH  19  20
ATOM     20  O   UNL     1       5.001   1.238   0.000  0.00  0.00    +0.000 OA
BRANCH  20  21
ATOM     21  C   UNL     1       5.001   2.062   0.000  0.00  0.00    +0.000 C 
BRANCH  21  22
ATOM     22  C   UNL     1       5.716   2.475   0.000  0.00  0.00    +0.000 C 
ATOM     23  O   UNL     1       5.716   3.300   0.000  0.00  0.00    +0.000 OA
ENDBRANCH  21  22
ENDBRANCH  20  21
ENDBRANCH  19  20
ENDBRANCH   7  18
BRANCH   5  25
ATOM     24  C   UNL     1       0.715  -2.888   0.000  0.00  0.00    +0.000 C 
ATOM     25  O   UNL     1       0.000  -2.475   0.000  0.00  0.00    +0.000 OA
ENDBRANCH   5  25
BRANCH   3  27
ATOM     26  C   UNL     1      -2.143  -0.412   0.000  0.00  0.00    +0.000 C 
ATOM     27  O   UNL     1      -1.429   0.000   0.000  0.00  0.00    +0.000 OA
ENDBRANCH   3  27
TORSDOF 6
