REMARK  Name = 
REMARK  2 active torsions:
REMARK  status: ('A' for Active; 'I' for Inactive)
REMARK    1  A    between atoms: C_5  and  N_9
REMARK    2  A    between atoms: CA_6  and  C_7
REMARK                            x       y       z     vdW  Elec       q    Type
REMARK                         _______ _______ _______ _____ _____    ______ ____
ROOT
ATOM      1  C   UNL     1       0.568   1.939   0.000  0.00  0.00    +0.000 C 
ATOM      2  C   UNL     1       1.235   0.629   0.000  0.00  0.00    +0.000 C 
ATOM      3  C   UNL     1       0.568   1.114   0.000  0.00  0.00    +0.000 C 
ATOM      4  C   UNL     1       0.980  -0.155   0.000  0.00  0.00    +0.000 C 
ATOM      5  CA  UNL     1      -0.100   0.629   0.000  0.00  0.00    +0.000 C 
ATOM      6  N   UNL     1       0.155  -0.155   0.000  0.00  0.00    +0.000 NA
ENDROOT
BRANCH   4   8
ATOM      7  C   UNL     1       2.286  -0.737   0.000  0.00  0.00    +0.000 C 
ATOM      8  N   UNL     1       1.465  -0.823   0.000  0.00  0.00    +0.000 NA
ATOM      9  O   UNL     1       1.130  -1.576   0.000  0.00  0.00    +0.000 OA
ENDBRANCH   4   8
BRANCH   5  10
ATOM     10  C   UNL     1      -0.884   0.884   0.000  0.00  0.00    +0.000 C 
ATOM     11  O   UNL     1      -1.497   0.332   0.000  0.00  0.00    +0.000 OA
ATOM     12  OXT UNL     1      -1.056   1.691   0.000  0.00  0.00    +0.000 OA
ENDBRANCH   5  10
TORSDOF 2
