REMARK  Name = 
REMARK  5 active torsions:
REMARK  status: ('A' for Active; 'I' for Inactive)
REMARK    1  A    between atoms: C_3  and  C_4
REMARK    2  A    between atoms: C_4  and  S_10
REMARK    3  A    between atoms: C_7  and  O_8
REMARK    4  A    between atoms: S_10  and  C_11
REMARK    5  A    between atoms: C_19  and  O_20
REMARK                            x       y       z     vdW  Elec       q    Type
REMARK                         _______ _______ _______ _____ _____    ______ ____
ROOT
ATOM      1  O   UNL     1      -0.106  -0.078   0.000  0.00  0.00    +0.000 OA
ATOM      2  S   UNL     1       0.149  -0.862   0.000  0.00  0.00    +0.000 S 
ENDROOT
BRANCH   2   3
ATOM      3  C   UNL     1       1.034  -0.861   0.000  0.00  0.00    +0.000 A 
ATOM      4  N   UNL     1       1.526  -1.523   0.000  0.00  0.00    +0.000 NA
ATOM      5  N   UNL     1       1.512  -0.188   0.000  0.00  0.00    +0.000 NA
ATOM      6  C   UNL     1       2.299  -0.435   0.000  0.00  0.00    +0.000 A 
ATOM      7  C   UNL     1       2.308  -1.260   0.000  0.00  0.00    +0.000 A 
ATOM      8  C   UNL     1       3.010  -0.015   0.000  0.00  0.00    +0.000 A 
ATOM      9  C   UNL     1       3.026  -1.665   0.000  0.00  0.00    +0.000 A 
ATOM     10  C   UNL     1       3.728  -0.420   0.000  0.00  0.00    +0.000 A 
ATOM     11  C   UNL     1       3.737  -1.245   0.000  0.00  0.00    +0.000 A 
BRANCH  11  12
ATOM     12  O   UNL     1       4.475  -1.612   0.000  0.00  0.00    +0.000 OA
ATOM     13  C   UNL     1       5.257  -1.349   0.000  0.00  0.00    +0.000 C 
ENDBRANCH  11  12
ENDBRANCH   2   3
BRANCH   2  14
ATOM     14  C   UNL     1      -0.403  -1.475   0.000  0.00  0.00    +0.000 C 
BRANCH  14  17
ATOM     15  C   UNL     1      -2.466  -0.762   0.000  0.00  0.00    +0.000 A 
ATOM     16  N   UNL     1      -1.641  -0.761   0.000  0.00  0.00    +0.000 NA
ATOM     17  C   UNL     1      -1.228  -1.476   0.000  0.00  0.00    +0.000 A 
ATOM     18  C   UNL     1      -1.640  -2.190   0.000  0.00  0.00    +0.000 A 
ATOM     19  C   UNL     1      -2.465  -2.191   0.000  0.00  0.00    +0.000 A 
ATOM     20  C   UNL     1      -1.227  -2.905   0.000  0.00  0.00    +0.000 C 
ATOM     21  C   UNL     1      -2.878  -1.476   0.000  0.00  0.00    +0.000 A 
ATOM     22  C   UNL     1      -3.700  -1.413   0.000  0.00  0.00    +0.000 C 
BRANCH  19  23
ATOM     23  O   UNL     1      -2.877  -2.905   0.000  0.00  0.00    +0.000 OA
ATOM     24  C   UNL     1      -3.702  -2.906   0.000  0.00  0.00    +0.000 C 
ENDBRANCH  19  23
ENDBRANCH  14  17
ENDBRANCH   2  14
TORSDOF 5
