REMARK  Name = 
REMARK  12 active torsions:
REMARK  status: ('A' for Active; 'I' for Inactive)
REMARK    1  A    between atoms: C_2  and  C_6
REMARK    2  A    between atoms: C_6  and  C_10
REMARK    3  A    between atoms: C_10  and  C_14
REMARK    4  A    between atoms: C_11  and  C_16
REMARK    5  A    between atoms: C_16  and  C_22
REMARK    6  A    between atoms: C_22  and  C_26
REMARK    7  A    between atoms: C_24  and  C_29
REMARK    8  A    between atoms: C_29  and  C_36
REMARK    9  A    between atoms: C_36  and  C_41
REMARK   10  A    between atoms: C_39  and  C_42
REMARK   11  A    between atoms: C_42  and  C_45
REMARK   12  A    between atoms: C_45  and  C_46
REMARK                            x       y       z     vdW  Elec       q    Type
REMARK                         _______ _______ _______ _____ _____    ______ ____
ROOT
ATOM      1  C   UNL     1      -0.627  -1.373   0.000  0.00  0.00    +0.000 A 
ATOM      2  C   UNL     1      -0.426  -1.890   0.000  0.00  0.00    +0.000 A 
ATOM      3  C   UNL     1      -1.407  -1.194   0.000  0.00  0.00    +0.000 C 
ATOM      4  N   UNL     1      -0.087  -0.776   0.000  0.00  0.00    +0.000 NA
ATOM      5  C   UNL     1       0.247  -1.886   0.000  0.00  0.00    +0.000 A 
ATOM      6  C   UNL     1      -1.650  -0.430   0.000  0.00  0.00    +0.000 A 
ATOM      7  C   UNL     1       0.525  -1.327   0.000  0.00  0.00    +0.000 A 
ATOM      8  C   UNL     1       0.684  -2.586   0.000  0.00  0.00    +0.000 C 
ATOM      9  C   UNL     1      -2.289  -0.175   0.000  0.00  0.00    +0.000 A 
ATOM     10  N   UNL     1      -1.110   0.156   0.000  0.00  0.00    +0.000 NA
ATOM     11  C   UNL     1       1.437  -1.114   0.000  0.00  0.00    +0.000 C 
ATOM     12  C   UNL     1      -2.327   0.453   0.000  0.00  0.00    +0.000 A 
ATOM     13  C   UNL     1      -1.730   0.719   0.000  0.00  0.00    +0.000 A 
ATOM     14  C   UNL     1       1.540  -0.297   0.000  0.00  0.00    +0.000 A 
ATOM     15  C   UNL     1      -3.031   0.882   0.000  0.00  0.00    +0.000 C 
ATOM     16  C   UNL     1      -1.555   1.525   0.000  0.00  0.00    +0.000 C 
ATOM     17  C   UNL     1       2.046  -0.038   0.000  0.00  0.00    +0.000 A 
ATOM     18  N   UNL     1       0.913   0.274   0.000  0.00  0.00    +0.000 NA
ATOM     19  C   UNL     1      -0.761   1.783   0.000  0.00  0.00    +0.000 A 
ATOM     20  C   UNL     1       2.042   0.654   0.000  0.00  0.00    +0.000 A 
ATOM     21  C   UNL     1       1.456   0.886   0.000  0.00  0.00    +0.000 A 
ATOM     22  N   UNL     1      -0.144   1.224   0.000  0.00  0.00    +0.000 NA
ATOM     23  C   UNL     1      -0.593   2.415   0.000  0.00  0.00    +0.000 A 
ATOM     24  C   UNL     1       2.727   1.118   0.000  0.00  0.00    +0.000 C 
ATOM     25  C   UNL     1       1.198   1.665   0.000  0.00  0.00    +0.000 C 
ATOM     26  C   UNL     1       0.399   1.829   0.000  0.00  0.00    +0.000 A 
ATOM     27  C   UNL     1       0.255   2.358   0.000  0.00  0.00    +0.000 A 
ATOM     28  C   UNL     1      -1.076   3.088   0.000  0.00  0.00    +0.000 C 
ENDROOT
BRANCH   2  29
ATOM     29  C   UNL     1      -0.890  -2.574   0.000  0.00  0.00    +0.000 C 
BRANCH  29  30
ATOM     30  C   UNL     1      -0.529  -3.320   0.000  0.00  0.00    +0.000 C 
BRANCH  30  31
ATOM     31  C   UNL     1      -0.993  -4.004   0.000  0.00  0.00    +0.000 C 
ATOM     32  O   UNL     1      -1.814  -3.943   0.000  0.00  0.00    +0.000 OA
ATOM     33  O   UNL     1      -0.627  -4.746   0.000  0.00  0.00    +0.000 OA
ENDBRANCH  30  31
ENDBRANCH  29  30
ENDBRANCH   2  29
BRANCH   9  34
ATOM     34  C   UNL     1      -2.962  -0.658   0.000  0.00  0.00    +0.000 C 
BRANCH  34  35
ATOM     35  C   UNL     1      -3.715  -0.316   0.000  0.00  0.00    +0.000 C 
BRANCH  35  36
ATOM     36  C   UNL     1      -4.388  -0.798   0.000  0.00  0.00    +0.000 C 
ATOM     37  O   UNL     1      -5.137  -0.456   0.000  0.00  0.00    +0.000 OA
ATOM     38  O   UNL     1      -4.301  -1.620   0.000  0.00  0.00    +0.000 OA
ENDBRANCH  35  36
ENDBRANCH  34  35
ENDBRANCH   9  34
BRANCH  27  39
ATOM     39  C   UNL     1       0.776   2.996   0.000  0.00  0.00    +0.000 C 
BRANCH  39  40
ATOM     40  C   UNL     1       1.593   2.863   0.000  0.00  0.00    +0.000 C 
BRANCH  40  41
ATOM     41  C   UNL     1       2.114   3.506   0.000  0.00  0.00    +0.000 C 
ATOM     42  O   UNL     1       2.932   3.369   0.000  0.00  0.00    +0.000 OA
ATOM     43  O   UNL     1       1.821   4.278   0.000  0.00  0.00    +0.000 OA
ENDBRANCH  40  41
ENDBRANCH  39  40
ENDBRANCH  27  39
BRANCH  17  44
ATOM     44  C   UNL     1       2.749  -0.471   0.000  0.00  0.00    +0.000 C 
BRANCH  44  45
ATOM     45  C   UNL     1       3.476  -0.080   0.000  0.00  0.00    +0.000 C 
BRANCH  45  46
ATOM     46  C   UNL     1       4.183  -0.513   0.000  0.00  0.00    +0.000 C 
ATOM     47  O   UNL     1       4.156  -1.339   0.000  0.00  0.00    +0.000 OA
ATOM     48  O   UNL     1       4.909  -0.114   0.000  0.00  0.00    +0.000 OA
ENDBRANCH  45  46
ENDBRANCH  44  45
ENDBRANCH  17  44
TORSDOF 12
