REMARK  Name = 
REMARK  8 active torsions:
REMARK  status: ('A' for Active; 'I' for Inactive)
REMARK    1  A    between atoms: CA_1  and  N_2
REMARK    2  A    between atoms: CA_1  and  C_3
REMARK    3  A    between atoms: CA_1  and  C_4
REMARK    4  A    between atoms: C_3  and  C_6
REMARK    5  A    between atoms: C_5  and  C_9
REMARK    6  A    between atoms: C_6  and  C_11
REMARK    7  A    between atoms: C_9  and  C_12
REMARK    8  A    between atoms: C_12  and  C_14
REMARK                            x       y       z     vdW  Elec       q    Type
REMARK                         _______ _______ _______ _____ _____    ______ ____
ROOT
ATOM      1  CA  UNL     1       0.805  -0.774   0.000  0.00  0.00    +0.000 C 
ENDROOT
BRANCH   1   2
ATOM      2  N   UNL     1       0.801   0.053   0.000  0.00  0.00    +0.000 NA
ATOM      3  C   UNL     1       0.805   0.877   0.000  0.00  0.00    +0.000 C 
ATOM      4  O   UNL     1       1.518   1.291   0.000  0.00  0.00    +0.000 OA
BRANCH   3   5
ATOM      5  C   UNL     1       0.091   1.291   0.000  0.00  0.00    +0.000 C 
BRANCH   5   6
ATOM      6  C   UNL     1      -0.626   0.877   0.000  0.00  0.00    +0.000 C 
BRANCH   6   7
ATOM      7  C   UNL     1      -1.340   1.291   0.000  0.00  0.00    +0.000 C 
ATOM      8  O   UNL     1      -1.336   2.115   0.000  0.00  0.00    +0.000 OA
ATOM      9  O   UNL     1      -2.054   0.873   0.000  0.00  0.00    +0.000 OA
ENDBRANCH   6   7
ENDBRANCH   5   6
ENDBRANCH   3   5
ENDBRANCH   1   2
BRANCH   1  10
ATOM     10  C   UNL     1       1.518  -1.188   0.000  0.00  0.00    +0.000 C 
ATOM     11  O   UNL     1       1.518  -2.012   0.000  0.00  0.00    +0.000 OA
ATOM     12  OXT UNL     1       2.236  -0.774   0.000  0.00  0.00    +0.000 OA
ENDBRANCH   1  10
BRANCH   1  13
ATOM     13  C   UNL     1       0.087  -1.188   0.000  0.00  0.00    +0.000 C 
BRANCH  13  14
ATOM     14  C   UNL     1      -0.626  -0.774   0.000  0.00  0.00    +0.000 C 
BRANCH  14  15
ATOM     15  C   UNL     1      -1.340  -1.188   0.000  0.00  0.00    +0.000 C 
ATOM     16  N   UNL     1      -2.058  -0.774   0.000  0.00  0.00    +0.000 NA
ENDBRANCH  14  15
ENDBRANCH  13  14
ENDBRANCH   1  13
TORSDOF 8
