REMARK  Name = 
REMARK  8 active torsions:
REMARK  status: ('A' for Active; 'I' for Inactive)
REMARK    1  A    between atoms: C_18  and  C_22
REMARK    2  A    between atoms: C_18  and  C_27
REMARK    3  A    between atoms: C_20  and  C_21
REMARK    4  A    between atoms: C_23  and  N_31
REMARK    5  A    between atoms: C_24  and  S_36
REMARK    6  A    between atoms: C_27  and  C_28
REMARK    7  A    between atoms: C_27  and  N_30
REMARK    8  A    between atoms: N_30  and  S_36
REMARK                            x       y       z     vdW  Elec       q    Type
REMARK                         _______ _______ _______ _____ _____    ______ ____
ROOT
ATOM      1  C   UNL     1      -2.854  -2.184   0.000  0.00  0.00    +0.000 A 
ATOM      2  C   UNL     1      -3.151  -0.787   0.000  0.00  0.00    +0.000 A 
ATOM      3  C   UNL     1      -2.047  -2.013   0.000  0.00  0.00    +0.000 A 
ATOM      4  C   UNL     1      -2.344  -0.615   0.000  0.00  0.00    +0.000 A 
ATOM      5  C   UNL     1      -3.406  -1.571   0.000  0.00  0.00    +0.000 A 
ATOM      6  C   UNL     1      -1.792  -1.228   0.000  0.00  0.00    +0.000 A 
ENDROOT
BRANCH   5  12
ATOM      7  C   UNL     1      -5.275  -2.699   0.000  0.00  0.00    +0.000 C 
ATOM      8  C   UNL     1      -5.572  -1.301   0.000  0.00  0.00    +0.000 C 
ATOM      9  C   UNL     1      -4.468  -2.527   0.000  0.00  0.00    +0.000 C 
ATOM     10  C   UNL     1      -4.765  -1.130   0.000  0.00  0.00    +0.000 C 
ATOM     11  C   UNL     1      -5.827  -2.086   0.000  0.00  0.00    +0.000 C 
ATOM     12  N   UNL     1      -4.213  -1.743   0.000  0.00  0.00    +0.000 N 
BRANCH  11  18
ATOM     13  C   UNL     1      -8.248  -2.600   0.000  0.00  0.00    +0.000 A 
ATOM     14  C   UNL     1      -7.696  -3.214   0.000  0.00  0.00    +0.000 A 
ATOM     15  C   UNL     1      -7.993  -1.816   0.000  0.00  0.00    +0.000 A 
ATOM     16  C   UNL     1      -6.889  -3.042   0.000  0.00  0.00    +0.000 A 
ATOM     17  C   UNL     1      -7.186  -1.644   0.000  0.00  0.00    +0.000 A 
ATOM     18  C   UNL     1      -6.634  -2.257   0.000  0.00  0.00    +0.000 A 
ENDBRANCH  11  18
ENDBRANCH   5  12
BRANCH   6  21
ATOM     19  O   UNL     1      -0.814  -1.864   0.000  0.00  0.00    +0.000 OA
ATOM     20  O   UNL     1      -1.157  -0.250   0.000  0.00  0.00    +0.000 OA
ATOM     21  S   UNL     1      -0.985  -1.057   0.000  0.00  0.00    +0.000 S 
BRANCH  21  22
ATOM     22  N   UNL     1      -0.178  -0.885   0.000  0.00  0.00    +0.000 NA
BRANCH  22  23
ATOM     23  C   UNL     1       0.077  -0.101   0.000  0.00  0.00    +0.000 C 
BRANCH  23  24
ATOM     24  C   UNL     1      -0.475   0.512   0.000  0.00  0.00    +0.000 C 
ATOM     25  O   UNL     1      -1.282   0.341   0.000  0.00  0.00    +0.000 OA
ATOM     26  O   UNL     1      -0.220   1.297   0.000  0.00  0.00    +0.000 OA
ENDBRANCH  23  24
BRANCH  23  27
ATOM     27  C   UNL     1       0.884   0.071   0.000  0.00  0.00    +0.000 C 
BRANCH  27  33
ATOM     28  C   UNL     1       3.352   1.110   0.000  0.00  0.00    +0.000 A 
ATOM     29  C   UNL     1       3.352   1.935   0.000  0.00  0.00    +0.000 A 
ATOM     30  C   UNL     1       2.638   0.698   0.000  0.00  0.00    +0.000 A 
ATOM     31  C   UNL     1       2.638   2.348   0.000  0.00  0.00    +0.000 A 
ATOM     32  C   UNL     1       0.654   1.523   0.000  0.00  0.00    +0.000 A 
ATOM     33  C   UNL     1       1.139   0.856   0.000  0.00  0.00    +0.000 A 
ATOM     34  C   UNL     1       1.923   1.110   0.000  0.00  0.00    +0.000 A 
ATOM     35  C   UNL     1       1.923   1.935   0.000  0.00  0.00    +0.000 A 
ATOM     36  N   UNL     1       1.139   2.190   0.000  0.00  0.00    +0.000 NA
ENDBRANCH  27  33
ENDBRANCH  23  27
ENDBRANCH  22  23
ENDBRANCH  21  22
ENDBRANCH   6  21
TORSDOF 8
