REMARK  Name = 
REMARK  10 active torsions:
REMARK  status: ('A' for Active; 'I' for Inactive)
REMARK    1  A    between atoms: C_1  and  C_2
REMARK    2  A    between atoms: C_19  and  N_22
REMARK    3  A    between atoms: C_20  and  N_24
REMARK    4  A    between atoms: C_25  and  C_32
REMARK    5  A    between atoms: C_30  and  C_36
REMARK    6  A    between atoms: CA_35  and  CB_40
REMARK    7  A    between atoms: C_36  and  C_41
REMARK    8  A    between atoms: C_41  and  C_44
REMARK    9  A    between atoms: C_44  and  C_46
REMARK   10  A    between atoms: C_46  and  C_47
REMARK                            x       y       z     vdW  Elec       q    Type
REMARK                         _______ _______ _______ _____ _____    ______ ____
ROOT
ATOM      1  C   UNK A   1       8.477 -12.315   0.000  0.00  0.00    +0.000 C 
ATOM      2  N   UNK A   1       9.194 -11.904   0.000  0.00  0.00    +0.000 NA
ATOM      3  C   UNK A   1       7.764 -11.908   0.000  0.00  0.00    +0.000 C 
ATOM      4  C   UNK A   3       9.904 -12.312   0.000  0.00  0.00    +0.000 C 
ATOM      5  N   UNK A   1       7.050 -12.319   0.000  0.00  0.00    +0.000 NA
ATOM      6  O   UNK A   1       7.724 -11.313   0.000  0.00  0.00    +0.000 OA
ATOM      7  C   UNK A   3      10.622 -11.901   0.000  0.00  0.00    +0.000 C 
ATOM      8  O   UNK A   3       9.901 -13.137   0.000  0.00  0.00    +0.000 OA
ATOM      9  C   UNK A   1       6.340 -11.908   0.000  0.00  0.00    +0.000 C 
ATOM     10  N   UNK A   3      10.622 -11.079   0.000  0.00  0.00    +0.000 NA
ATOM     11  C   UNK A   3      11.332 -12.308   0.000  0.00  0.00    +0.000 C 
ATOM     12  C   UNK A   1       6.340 -11.090   0.000  0.00  0.00    +0.000 C 
ATOM     13  C   UNK A   3       9.904 -10.668   0.000  0.00  0.00    +0.000 C 
ATOM     14  C   UNK A   1       7.061 -10.679   0.000  0.00  0.00    +0.000 C 
ATOM     15  C   UNK A   3       9.904  -9.853   0.000  0.00  0.00    +0.000 C 
ATOM     16  O   UNK A   3       9.187 -11.079   0.000  0.00  0.00    +0.000 OA
ATOM     17  N   SER A   2       7.057  -9.857   0.000  0.00  0.00    +0.000 NA
ATOM     18  O   UNK A   1       7.609 -10.863   0.000  0.00  0.00    +0.000 OA
ATOM     19  N   UNK A   3       9.194  -9.439   0.000  0.00  0.00    +0.000 NA
ATOM     20  CA  SER A   2       7.764  -9.443   0.000  0.00  0.00    +0.000 C 
ATOM     21  C   SER A   2       8.477  -9.853   0.000  0.00  0.00    +0.000 C 
ATOM     22  O   SER A   2       8.474 -10.679   0.000  0.00  0.00    +0.000 OA
ENDROOT
BRANCH   1  23
ATOM     23  C   UNK A   1       8.477 -13.140   0.000  0.00  0.00    +0.000 C 
ATOM     24  C   UNK A   1       7.764 -13.555   0.000  0.00  0.00    +0.000 C 
ATOM     25  N   UNK A   1       9.194 -13.548   0.000  0.00  0.00    +0.000 NA
ATOM     26  C   UNK A   1       7.764 -14.377   0.000  0.00  0.00    +0.000 C 
ATOM     27  C   UNK A   1       9.194 -14.373   0.000  0.00  0.00    +0.000 C 
ATOM     28  N   UNK A   1       8.477 -14.787   0.000  0.00  0.00    +0.000 NA
ATOM     29  O   UNK A   1       7.050 -14.791   0.000  0.00  0.00    +0.000 OA
ATOM     30  N   UNK A   1       9.908 -14.787   0.000  0.00  0.00    +0.000 NA
ENDBRANCH   1  23
BRANCH  11  31
ATOM     31  N   UNK A   3      12.049 -11.897   0.000  0.00  0.00    +0.000 NA
ATOM     32  C   UNK A   3      12.759 -12.304   0.000  0.00  0.00    +0.000 C 
ATOM     33  N   UNK A   3      13.476 -11.893   0.000  0.00  0.00    +0.000 NA
ATOM     34  O   UNK A   3      12.755 -13.130   0.000  0.00  0.00    +0.000 OA
ENDBRANCH  11  31
BRANCH  12  35
ATOM     35  N   UNK A   1       5.633 -10.686   0.000  0.00  0.00    +0.000 NA
ATOM     36  C   UNK A   0       4.920 -11.097   0.000  0.00  0.00    +0.000 C 
ATOM     37  O   UNK A   0       4.923 -11.922   0.000  0.00  0.00    +0.000 OA
BRANCH  36  38
ATOM     38  C   UNK A   0       4.206 -10.686   0.000  0.00  0.00    +0.000 C 
BRANCH  38  39
ATOM     39  C   UNK A   0       3.493 -11.100   0.000  0.00  0.00    +0.000 C 
ATOM     40  N   UNK A   0       3.489 -11.926   0.000  0.00  0.00    +0.000 NA
BRANCH  39  41
ATOM     41  C   UNK A   0       2.779 -10.690   0.000  0.00  0.00    +0.000 C 
BRANCH  41  42
ATOM     42  C   UNK A   0       2.065 -11.104   0.000  0.00  0.00    +0.000 C 
BRANCH  42  43
ATOM     43  C   UNK A   0       1.363 -10.697   0.000  0.00  0.00    +0.000 C 
ATOM     44  N   UNK A   0       0.645 -11.108   0.000  0.00  0.00    +0.000 NA
ENDBRANCH  42  43
ENDBRANCH  41  42
ENDBRANCH  39  41
ENDBRANCH  38  39
ENDBRANCH  36  38
ENDBRANCH  12  35
BRANCH  15  45
ATOM     45  C   UNK A   3      10.622  -9.435   0.000  0.00  0.00    +0.000 C 
ATOM     46  O   UNK A   3      11.332  -9.846   0.000  0.00  0.00    +0.000 OA
ENDBRANCH  15  45
BRANCH  20  47
ATOM     47  CB  SER A   2       7.760  -8.614   0.000  0.00  0.00    +0.000 C 
ATOM     48  OG  SER A   2       8.474  -8.195   0.000  0.00  0.00    +0.000 OA
ENDBRANCH  20  47
TORSDOF 10
