REMARK  Name = 
REMARK  3 active torsions:
REMARK  status: ('A' for Active; 'I' for Inactive)
REMARK    1  A    between atoms: C_2  and  O_13
REMARK    2  A    between atoms: C_4  and  C_5
REMARK    3  A    between atoms: O_13  and  P_14
REMARK                            x       y       z     vdW  Elec       q    Type
REMARK                         _______ _______ _______ _____ _____    ______ ____
ROOT
ATOM      1  C   UNL     1       0.184   1.869   0.000  0.00  0.00    +0.000 C 
ATOM      2  C   UNL     1       0.715   1.238   0.000  0.00  0.00    +0.000 C 
ATOM      3  O   UNL     1       1.429   0.825   0.000  0.00  0.00    +0.000 OA
ATOM      4  C   UNL     1       1.429   0.000   0.000  0.00  0.00    +0.000 C 
ATOM      5  C   UNL     1       0.715  -0.412   0.000  0.00  0.00    +0.000 C 
ATOM      6  O   UNL     1       0.715  -1.238   0.000  0.00  0.00    +0.000 OA
ATOM      7  C   UNL     1       0.000   0.000   0.000  0.00  0.00    +0.000 C 
ATOM      8  O   UNL     1      -0.715  -0.412   0.000  0.00  0.00    +0.000 OA
ATOM      9  C   UNL     1       0.000   0.825   0.000  0.00  0.00    +0.000 C 
ATOM     10  O   UNL     1      -0.715   1.238   0.000  0.00  0.00    +0.000 OA
ENDROOT
BRANCH   4  11
ATOM     11  C   UNL     1       2.143  -0.412   0.000  0.00  0.00    +0.000 C 
ATOM     12  O   UNL     1       2.143  -1.238   0.000  0.00  0.00    +0.000 OA
ENDBRANCH   4  11
BRANCH   2  13
ATOM     13  O   UNL     1       1.245   1.869   0.000  0.00  0.00    +0.000 OA
BRANCH  13  14
ATOM     14  P   UNL     1       0.963   2.645   0.000  0.00  0.00    +0.000 P 
ATOM     15  O   UNL     1       0.680   3.420   0.000  0.00  0.00    +0.000 OA
ATOM     16  O   UNL     1       1.738   2.927   0.000  0.00  0.00    +0.000 OA
ATOM     17  O   UNL     1       0.187   2.363   0.000  0.00  0.00    +0.000 OA
ENDBRANCH  13  14
ENDBRANCH   2  13
TORSDOF 3
