REMARK  Name = 
REMARK  6 active torsions:
REMARK  status: ('A' for Active; 'I' for Inactive)
REMARK    1  A    between atoms: C_6  and  C_15
REMARK    2  A    between atoms: C_6  and  C_18
REMARK    3  A    between atoms: C_15  and  N_31
REMARK    4  A    between atoms: C_18  and  N_33
REMARK    5  A    between atoms: C_27  and  C_28
REMARK    6  A    between atoms: C_28  and  N_32
REMARK                            x       y       z     vdW  Elec       q    Type
REMARK                         _______ _______ _______ _____ _____    ______ ____
ROOT
ATOM      1  C   UNL     1       4.518  -2.108   0.000  0.00  0.00    +0.000 C 
ENDROOT
BRANCH   1   2
ATOM      2  C   UNL     1       4.518  -2.933   0.000  0.00  0.00    +0.000 C 
BRANCH   2   8
ATOM      3  C   UNL     1       6.662  -3.345   0.000  0.00  0.00    +0.000 C 
ATOM      4  C   UNL     1       5.947  -4.583   0.000  0.00  0.00    +0.000 C 
ATOM      5  C   UNL     1       5.947  -2.933   0.000  0.00  0.00    +0.000 C 
ATOM      6  C   UNL     1       5.233  -4.170   0.000  0.00  0.00    +0.000 C 
ATOM      7  C   UNL     1       6.662  -4.170   0.000  0.00  0.00    +0.000 C 
ATOM      8  N   UNL     1       5.233  -3.345   0.000  0.00  0.00    +0.000 NA
BRANCH   7  14
ATOM      9  C   UNL     1       7.973  -6.269   0.000  0.00  0.00    +0.000 C 
ATOM     10  C   UNL     1       8.360  -5.541   0.000  0.00  0.00    +0.000 C 
ATOM     11  C   UNL     1       7.149  -6.298   0.000  0.00  0.00    +0.000 C 
ATOM     12  C   UNL     1       7.923  -4.841   0.000  0.00  0.00    +0.000 C 
ATOM     13  C   UNL     1       6.711  -5.598   0.000  0.00  0.00    +0.000 C 
ATOM     14  N   UNL     1       7.099  -4.870   0.000  0.00  0.00    +0.000 NA
ENDBRANCH   7  14
BRANCH   7  15
ATOM     15  C   UNL     1       7.486  -4.199   0.000  0.00  0.00    +0.000 C 
ATOM     16  N   UNL     1       8.227  -4.561   0.000  0.00  0.00    +0.000 NA
ATOM     17  O   UNL     1       7.923  -3.499   0.000  0.00  0.00    +0.000 OA
ENDBRANCH   7  15
ENDBRANCH   2   8
ENDBRANCH   1   2
BRANCH   1  18
ATOM     18  C   UNL     1       3.804  -1.695   0.000  0.00  0.00    +0.000 C 
BRANCH  18  34
ATOM     19  C   UNL     1       6.124  -0.026   0.000  0.00  0.00    +0.000 A 
ATOM     20  C   UNL     1       5.940  -0.830   0.000  0.00  0.00    +0.000 A 
ATOM     21  C   UNL     1       5.519   0.535   0.000  0.00  0.00    +0.000 A 
ATOM     22  C   UNL     1       5.152  -1.073   0.000  0.00  0.00    +0.000 A 
ATOM     23  C   UNL     1       4.216   0.937   0.000  0.00  0.00    +0.000 C 
ATOM     24  C   UNL     1       3.391   0.937   0.000  0.00  0.00    +0.000 C 
ATOM     25  C   UNL     1       2.088   0.535   0.000  0.00  0.00    +0.000 A 
ATOM     26  C   UNL     1       1.484  -0.026   0.000  0.00  0.00    +0.000 A 
ATOM     27  C   UNL     1       2.455  -1.073   0.000  0.00  0.00    +0.000 A 
ATOM     28  C   UNL     1       4.731   0.292   0.000  0.00  0.00    +0.000 A 
ATOM     29  C   UNL     1       2.877   0.292   0.000  0.00  0.00    +0.000 A 
ATOM     30  C   UNL     1       1.667  -0.830   0.000  0.00  0.00    +0.000 A 
ATOM     31  C   UNL     1       4.547  -0.512   0.000  0.00  0.00    +0.000 A 
ATOM     32  C   UNL     1       3.060  -0.512   0.000  0.00  0.00    +0.000 A 
ATOM     33 CL   UNL     1       1.062  -1.391   0.000  0.00  0.00    +0.000 Cl
ATOM     34  N   UNL     1       3.804  -0.870   0.000  0.00  0.00    +0.000 N 
ENDBRANCH  18  34
ENDBRANCH   1  18
TORSDOF 6
