REMARK  Name = 
REMARK  9 active torsions:
REMARK  status: ('A' for Active; 'I' for Inactive)
REMARK    1  A    between atoms: N_2  and  C_4
REMARK    2  A    between atoms: C_13  and  S_14
REMARK    3  A    between atoms: S_14  and  N_17
REMARK    4  A    between atoms: N_17  and  C_18
REMARK    5  A    between atoms: C_18  and  C_19
REMARK    6  A    between atoms: C_19  and  C_20
REMARK    7  A    between atoms: C_20  and  C_21
REMARK    8  A    between atoms: C_21  and  N_22
REMARK    9  A    between atoms: C_23  and  C_25
REMARK                            x       y       z     vdW  Elec       q    Type
REMARK                         _______ _______ _______ _____ _____    ______ ____
ROOT
ATOM      1  N   UNL     1      -1.292  -6.196   0.000  0.00  0.00    +0.000 NA
ENDROOT
BRANCH   1   2
ATOM      2  S   UNL     1      -2.006  -6.609   0.000  0.00  0.00    +0.000 S 
ATOM      3  O   UNL     1      -1.593  -7.323   0.000  0.00  0.00    +0.000 OA
ATOM      4  O   UNL     1      -2.418  -5.894   0.000  0.00  0.00    +0.000 OA
BRANCH   2  14
ATOM      5  C   UNL     1      -3.435  -9.084   0.000  0.00  0.00    +0.000 A 
ATOM      6  C   UNL     1      -2.720  -9.496   0.000  0.00  0.00    +0.000 A 
ATOM      7  C   UNL     1      -2.006  -9.084   0.000  0.00  0.00    +0.000 A 
ATOM      8  C   UNL     1      -2.006  -8.259   0.000  0.00  0.00    +0.000 A 
ATOM      9  C   UNL     1      -2.720  -7.846   0.000  0.00  0.00    +0.000 A 
ATOM     10  C   UNL     1      -3.435  -8.259   0.000  0.00  0.00    +0.000 A 
ATOM     11  C   UNL     1      -4.149  -7.846   0.000  0.00  0.00    +0.000 A 
ATOM     12  C   UNL     1      -4.149  -7.021   0.000  0.00  0.00    +0.000 A 
ATOM     13  C   UNL     1      -3.435  -6.609   0.000  0.00  0.00    +0.000 A 
ATOM     14  C   UNL     1      -2.720  -7.021   0.000  0.00  0.00    +0.000 A 
BRANCH   5  16
ATOM     15  C   UNL     1      -4.149 -10.321   0.000  0.00  0.00    +0.000 C 
ATOM     16  N   UNL     1      -4.149  -9.496   0.000  0.00  0.00    +0.000 N 
ATOM     17  C   UNL     1      -4.864  -9.084   0.000  0.00  0.00    +0.000 C 
ENDBRANCH   5  16
ENDBRANCH   2  14
ENDBRANCH   1   2
BRANCH   1  18
ATOM     18  C   UNL     1      -1.292  -5.371   0.000  0.00  0.00    +0.000 C 
BRANCH  18  19
ATOM     19  C   UNL     1      -0.577  -4.959   0.000  0.00  0.00    +0.000 C 
BRANCH  19  20
ATOM     20  C   UNL     1      -0.577  -4.134   0.000  0.00  0.00    +0.000 C 
BRANCH  20  21
ATOM     21  C   UNL     1       0.137  -3.721   0.000  0.00  0.00    +0.000 C 
BRANCH  21  22
ATOM     22  N   UNL     1       0.137  -2.896   0.000  0.00  0.00    +0.000 NA
ATOM     23  C   UNL     1       0.852  -2.483   0.000  0.00  0.00    +0.000 C 
ATOM     24  O   UNL     1       1.566  -2.896   0.000  0.00  0.00    +0.000 OA
BRANCH  23  25
ATOM     25  C   UNL     1       0.852  -1.659   0.000  0.00  0.00    +0.000 C 
ATOM     26  C   UNL     1       0.116  -2.032   0.000  0.00  0.00    +0.000 C 
ATOM     27  C   UNL     1       0.566  -1.242   0.000  0.00  0.00    +0.000 C 
ATOM     28  C   UNL     1       1.301  -1.616   0.000  0.00  0.00    +0.000 C 
ATOM     29  C   UNL     1       2.037  -1.242   0.000  0.00  0.00    +0.000 C 
ATOM     30  C   UNL     1       2.037  -0.494   0.000  0.00  0.00    +0.000 C 
ATOM     31  C   UNL     1       1.301  -0.121   0.000  0.00  0.00    +0.000 C 
ATOM     32  C   UNL     1       0.566  -0.494   0.000  0.00  0.00    +0.000 C 
ATOM     33  C   UNL     1       0.852  -0.911   0.000  0.00  0.00    +0.000 C 
ATOM     34  C   UNL     1       1.587  -2.032   0.000  0.00  0.00    +0.000 C 
ENDBRANCH  23  25
ENDBRANCH  21  22
ENDBRANCH  20  21
ENDBRANCH  19  20
ENDBRANCH  18  19
ENDBRANCH   1  18
TORSDOF 9
