REMARK  Name = 
REMARK  8 active torsions:
REMARK  status: ('A' for Active; 'I' for Inactive)
REMARK    1  A    between atoms: C_6  and  C_7
REMARK    2  A    between atoms: C_19  and  C_20
REMARK    3  A    between atoms: C_20  and  C_21
REMARK    4  A    between atoms: C_21  and  C_22
REMARK    5  A    between atoms: C_30  and  C_31
REMARK    6  A    between atoms: C_37  and  C_38
REMARK    7  A    between atoms: C_38  and  C_39
REMARK    8  A    between atoms: C_39  and  C_40
REMARK                            x       y       z     vdW  Elec       q    Type
REMARK                         _______ _______ _______ _____ _____    ______ ____
ROOT
ATOM      1  C   UNL     1      -3.349   0.976   0.000  0.00  0.00    +0.000 C 
ATOM      2  C   UNL     1      -2.715   0.449   0.000  0.00  0.00    +0.000 C 
ATOM      3  C   UNL     1      -1.915   0.652   0.000  0.00  0.00    +0.000 C 
ATOM      4  C   UNL     1      -1.395   1.589   0.000  0.00  0.00    +0.000 C 
ATOM      5  C   UNL     1      -0.680   2.002   0.000  0.00  0.00    +0.000 C 
ATOM      6  C   UNL     1      -0.375   2.768   0.000  0.00  0.00    +0.000 C 
ATOM      7  C   UNL     1       0.449   2.715   0.000  0.00  0.00    +0.000 C 
ATOM      8  C   UNL     1       0.976   3.349   0.000  0.00  0.00    +0.000 C 
ATOM      9  C   UNL     1       0.652   1.915   0.000  0.00  0.00    +0.000 C 
ATOM     10  C   UNL     1       1.589   1.395   0.000  0.00  0.00    +0.000 C 
ATOM     11  C   UNL     1       2.002   0.680   0.000  0.00  0.00    +0.000 A 
ATOM     12  N   UNL     1       1.475   0.046   0.000  0.00  0.00    +0.000 N 
ATOM     13  C   UNL     1       1.915  -0.652   0.000  0.00  0.00    +0.000 A 
ATOM     14  C   UNL     1       1.395  -1.589   0.000  0.00  0.00    +0.000 C 
ATOM     15  C   UNL     1       0.680  -2.002   0.000  0.00  0.00    +0.000 A 
ATOM     16  C   UNL     1       0.375  -2.768   0.000  0.00  0.00    +0.000 A 
ATOM     17  C   UNL     1      -0.449  -2.715   0.000  0.00  0.00    +0.000 A 
ATOM     18  C   UNL     1      -0.976  -3.349   0.000  0.00  0.00    +0.000 C 
ATOM     19  C   UNL     1      -0.652  -1.915   0.000  0.00  0.00    +0.000 A 
ATOM     20  C   UNL     1      -1.589  -1.395   0.000  0.00  0.00    +0.000 C 
ATOM     21  C   UNL     1      -2.002  -0.680   0.000  0.00  0.00    +0.000 C 
ATOM     22  C   UNL     1      -2.768  -0.375   0.000  0.00  0.00    +0.000 C 
ATOM     23  N   UNL     1      -1.475  -0.046   0.000  0.00  0.00    +0.000 N 
ATOM     24 FE   UNL     1       0.000   0.000   0.000  0.00  0.00    +0.000 Fe
ATOM     25  N   UNL     1      -0.046   1.475   0.000  0.00  0.00    +0.000 N 
ATOM     26  N   UNL     1       0.046  -1.475   0.000  0.00  0.00    +0.000 N 
ATOM     27  C   UNL     1       2.715  -0.449   0.000  0.00  0.00    +0.000 A 
ATOM     28  C   UNL     1       2.768   0.375   0.000  0.00  0.00    +0.000 A 
ATOM     29  C   UNL     1       3.466   0.815   0.000  0.00  0.00    +0.000 C 
ENDROOT
BRANCH   6  30
ATOM     30  C   UNL     1      -0.815   3.466   0.000  0.00  0.00    +0.000 C 
ATOM     31  O   UNL     1      -0.431   4.196   0.000  0.00  0.00    +0.000 OA
ATOM     32  C   UNL     1      -1.639   3.433   0.000  0.00  0.00    +0.000 C 
ENDBRANCH   6  30
BRANCH  22  33
ATOM     33  C   UNL     1      -3.466  -0.815   0.000  0.00  0.00    +0.000 C 
ATOM     34  C   UNL     1      -4.196  -0.431   0.000  0.00  0.00    +0.000 C 
ENDBRANCH  22  33
BRANCH  16  35
ATOM     35  C   UNL     1       0.815  -3.466   0.000  0.00  0.00    +0.000 C 
BRANCH  35  36
ATOM     36  C   UNL     1       1.639  -3.433   0.000  0.00  0.00    +0.000 C 
BRANCH  36  37
ATOM     37  C   UNL     1       2.080  -4.131   0.000  0.00  0.00    +0.000 C 
ATOM     38  O   UNL     1       2.904  -4.098   0.000  0.00  0.00    +0.000 OA
ATOM     39  O   UNL     1       1.696  -4.861   0.000  0.00  0.00    +0.000 OA
ENDBRANCH  36  37
ENDBRANCH  35  36
ENDBRANCH  16  35
BRANCH  27  40
ATOM     40  C   UNL     1       3.349  -0.976   0.000  0.00  0.00    +0.000 C 
BRANCH  40  41
ATOM     41  C   UNL     1       4.123  -0.690   0.000  0.00  0.00    +0.000 C 
BRANCH  41  42
ATOM     42  C   UNL     1       4.757  -1.218   0.000  0.00  0.00    +0.000 C 
ATOM     43  O   UNL     1       4.618  -2.031   0.000  0.00  0.00    +0.000 OA
ATOM     44  O   UNL     1       5.531  -0.932   0.000  0.00  0.00    +0.000 OA
ENDBRANCH  41  42
ENDBRANCH  40  41
ENDBRANCH  27  40
TORSDOF 8
