REMARK  Name = 
REMARK  3 active torsions:
REMARK  status: ('A' for Active; 'I' for Inactive)
REMARK    1  A    between atoms: C_2  and  N_3
REMARK    2  A    between atoms: N_3  and  C_4
REMARK    3  A    between atoms: N_3  and  C_6
REMARK                            x       y       z     vdW  Elec       q    Type
REMARK                         _______ _______ _______ _____ _____    ______ ____
ROOT
ATOM      1  N   UNL     1       1.238  -0.715   0.000  0.00  0.00    +0.000 N 
ENDROOT
BRANCH   1   2
ATOM      2  C   UNL     1       0.825   0.000   0.000  0.00  0.00    +0.000 C 
ATOM      3  S   UNL     1       1.238   0.715   0.000  0.00  0.00    +0.000 S 
ATOM      4  S   UNL     1       0.000   0.000   0.000  0.00  0.00    +0.000 S 
ENDBRANCH   1   2
BRANCH   1   6
ATOM      5  C   UNL     1       0.000  -1.429   0.000  0.00  0.00    +0.000 C 
ATOM      6  C   UNL     1       0.825  -1.429   0.000  0.00  0.00    +0.000 C 
ENDBRANCH   1   6
BRANCH   1   7
ATOM      7  C   UNL     1       2.062  -0.715   0.000  0.00  0.00    +0.000 C 
ATOM      8  C   UNL     1       2.475   0.000   0.000  0.00  0.00    +0.000 C 
ENDBRANCH   1   7
TORSDOF 3
