REMARK  Name = 
REMARK  1 active torsions:
REMARK  status: ('A' for Active; 'I' for Inactive)
REMARK    1  A    between atoms: C_2  and  C_4
REMARK                            x       y       z     vdW  Elec       q    Type
REMARK                         _______ _______ _______ _____ _____    ______ ____
ROOT
ATOM      1  C   UNL     1       2.062  -0.715   0.000  0.00  0.00    +0.000 C 
ATOM      2  C   UNL     1       1.238  -0.715   0.000  0.00  0.00    +0.000 C 
ATOM      3  O   UNL     1       0.825  -1.429   0.000  0.00  0.00    +0.000 OA
ENDROOT
BRANCH   2   4
ATOM      4  C   UNL     1       0.825   0.000   0.000  0.00  0.00    +0.000 C 
ATOM      5  O   UNL     1       0.000   0.000   0.000  0.00  0.00    +0.000 OA
ENDBRANCH   2   4
TORSDOF 1
