REMARK  Name = 
REMARK  7 active torsions:
REMARK  status: ('A' for Active; 'I' for Inactive)
REMARK    1  A    between atoms: C_4  and  C_5
REMARK    2  A    between atoms: C_4  and  C_12
REMARK    3  A    between atoms: C_5  and  O_25
REMARK    4  A    between atoms: C_9  and  C_14
REMARK    5  A    between atoms: O_25  and  P_28
REMARK    6  A    between atoms: O_26  and  P_27
REMARK    7  A    between atoms: O_26  and  P_28
REMARK                            x       y       z     vdW  Elec       q    Type
REMARK                         _______ _______ _______ _____ _____    ______ ____
ROOT
ATOM      1  C   UNL     1      -0.398   0.071   0.000  0.00  0.00    +0.000 C 
ATOM      2  C   UNL     1       4.213   2.348   0.000  0.00  0.00    +0.000 C 
ATOM      3  C   UNL     1       2.784   0.698   0.000  0.00  0.00    +0.000 A 
ATOM      4  C   UNL     1       1.356   0.698   0.000  0.00  0.00    +0.000 C 
ATOM      5  C   UNL     1      -0.143   0.856   0.000  0.00  0.00    +0.000 C 
ATOM      6  C   UNL     1       3.499   1.935   0.000  0.00  0.00    +0.000 A 
ATOM      7  C   UNL     1       2.070   1.110   0.000  0.00  0.00    +0.000 A 
ATOM      8  C   UNL     1      -0.628   1.523   0.000  0.00  0.00    +0.000 C 
ATOM      9  C   UNL     1       2.070   1.935   0.000  0.00  0.00    +0.000 A 
ATOM     10  C   UNL     1       0.641   1.935   0.000  0.00  0.00    +0.000 C 
ATOM     11  N   UNL     1       3.499   1.110   0.000  0.00  0.00    +0.000 NA
ATOM     12  N   UNL     1       2.784   2.348   0.000  0.00  0.00    +0.000 NA
ATOM     13  N   UNL     1       1.356   2.348   0.000  0.00  0.00    +0.000 NA
ATOM     14  N   UNL     1       0.641   1.110   0.000  0.00  0.00    +0.000 N 
ATOM     15  S   UNL     1      -0.143   2.190   0.000  0.00  0.00    +0.000 S 
ENDROOT
BRANCH  10  17
ATOM     16  C   UNL     1      -0.199   3.091   0.000  0.00  0.00    +0.000 C 
ATOM     17  C   UNL     1       0.555   2.756   0.000  0.00  0.00    +0.000 C 
ATOM     18  O   UNL     1       1.222   3.241   0.000  0.00  0.00    +0.000 OA
ENDBRANCH  10  17
BRANCH   8  19
ATOM     19  C   UNL     1      -1.453   1.523   0.000  0.00  0.00    +0.000 C 
BRANCH  19  20
ATOM     20  C   UNL     1      -1.866   2.237   0.000  0.00  0.00    +0.000 C 
BRANCH  20  21
ATOM     21  O   UNL     1      -2.691   2.237   0.000  0.00  0.00    +0.000 OA
BRANCH  21  24
ATOM     22  O   UNL     1      -2.389   3.364   0.000  0.00  0.00    +0.000 OA
ATOM     23  O   UNL     1      -3.818   2.539   0.000  0.00  0.00    +0.000 OA
ATOM     24  P   UNL     1      -3.103   2.952   0.000  0.00  0.00    +0.000 P 
BRANCH  24  25
ATOM     25  O   UNL     1      -3.516   3.666   0.000  0.00  0.00    +0.000 OA
BRANCH  25  29
ATOM     26  O   UNL     1      -5.166   3.666   0.000  0.00  0.00    +0.000 OA
ATOM     27  O   UNL     1      -4.341   4.491   0.000  0.00  0.00    +0.000 OA
ATOM     28  O   UNL     1      -4.341   2.841   0.000  0.00  0.00    +0.000 OA
ATOM     29  P   UNL     1      -4.341   3.666   0.000  0.00  0.00    +0.000 P 
ENDBRANCH  25  29
ENDBRANCH  24  25
ENDBRANCH  21  24
ENDBRANCH  20  21
ENDBRANCH  19  20
ENDBRANCH   8  19
TORSDOF 7
