REMARK  Name = 
REMARK  18 active torsions:
REMARK  status: ('A' for Active; 'I' for Inactive)
REMARK    1  A    between atoms: C_2  and  C_3
REMARK    2  A    between atoms: C_3  and  N_4
REMARK    3  A    between atoms: C_5  and  C_6
REMARK    4  A    between atoms: C_6  and  N_7
REMARK    5  A    between atoms: C_6  and  C_12
REMARK    6  A    between atoms: C_8  and  C_15
REMARK    7  A    between atoms: C_12  and  C_13
REMARK    8  A    between atoms: C_20  and  C_21
REMARK    9  A    between atoms: C_24  and  C_31
REMARK   10  A    between atoms: C_31  and  C_32
REMARK   11  A    between atoms: C_36  and  C_38
REMARK   12  A    between atoms: C_38  and  C_39
REMARK   13  A    between atoms: C_39  and  C_40
REMARK   14  A    between atoms: C_44  and  C_45
REMARK   15  A    between atoms: C_45  and  C_46
REMARK   16  A    between atoms: C_55  and  C_58
REMARK   17  A    between atoms: C_58  and  C_60
REMARK   18  A    between atoms: C_62  and  O_67
REMARK                            x       y       z     vdW  Elec       q    Type
REMARK                         _______ _______ _______ _____ _____    ______ ____
ROOT
ATOM      1  C   UNL     1       9.411  -8.970   0.000  0.00  0.00    +0.000 C 
ATOM      2  N   UNL     1       8.683  -9.358   0.000  0.00  0.00    +0.000 NA
ATOM      3  C   UNL     1       7.955  -8.970   0.000  0.00  0.00    +0.000 C 
ATOM      4  C   UNL     1       7.227  -9.358   0.000  0.00  0.00    +0.000 C 
ATOM      5  N   UNL     1       6.499  -8.970   0.000  0.00  0.00    +0.000 NA
ATOM      6  C   UNL     1       9.411  -8.145   0.000  0.00  0.00    +0.000 C 
ATOM      7  S   UNL     1      10.139  -7.708   0.000  0.00  0.00    +0.000 S 
ATOM      8  C   UNL     1      10.139  -6.835   0.000  0.00  0.00    +0.000 C 
ATOM      9  O   UNL     1       7.955  -8.145   0.000  0.00  0.00    +0.000 OA
ATOM     10  C   UNL     1       6.499  -8.145   0.000  0.00  0.00    +0.000 C 
ATOM     11  C   UNL     1       5.723  -7.708   0.000  0.00  0.00    +0.000 C 
ATOM     12  O   UNL     1       7.227  -7.708   0.000  0.00  0.00    +0.000 OA
ATOM     13  N   UNL     1       5.723  -6.883   0.000  0.00  0.00    +0.000 NA
ATOM     14  C   UNL     1       6.499  -5.622   0.000  0.00  0.00    +0.000 C 
ATOM     15  C   UNL     1       6.499  -6.446   0.000  0.00  0.00    +0.000 C 
ATOM     16  N   UNL     1       9.411  -5.622   0.000  0.00  0.00    +0.000 NA
ATOM     17  C   UNL     1      10.139  -5.185   0.000  0.00  0.00    +0.000 C 
ATOM     18  C   UNL     1      10.867  -5.622   0.000  0.00  0.00    +0.000 C 
ATOM     19  C   UNL     1      10.867  -6.446   0.000  0.00  0.00    +0.000 C 
ATOM     20  C   UNL     1       7.955  -5.622   0.000  0.00  0.00    +0.000 C 
ATOM     21  O   UNL     1       7.955  -6.446   0.000  0.00  0.00    +0.000 OA
ATOM     22  C   UNL     1       8.683  -5.185   0.000  0.00  0.00    +0.000 C 
ATOM     23  N   UNL     1       7.227  -5.185   0.000  0.00  0.00    +0.000 NA
ATOM     24  O   UNL     1       7.227  -6.835   0.000  0.00  0.00    +0.000 OA
ATOM     25  O   UNL     1      10.139  -4.311   0.000  0.00  0.00    +0.000 OA
ENDROOT
BRANCH   1  31
ATOM     26  C   UNL     1      11.546  -9.455   0.000  0.00  0.00    +0.000 C 
ATOM     27  C   UNL     1      12.225  -8.970   0.000  0.00  0.00    +0.000 C 
ATOM     28  N   UNL     1      10.867  -8.970   0.000  0.00  0.00    +0.000 N 
ATOM     29  C   UNL     1      11.934  -8.145   0.000  0.00  0.00    +0.000 C 
ATOM     30  C   UNL     1      11.109  -8.145   0.000  0.00  0.00    +0.000 C 
ATOM     31  C   UNL     1      10.139  -9.358   0.000  0.00  0.00    +0.000 C 
ATOM     32  O   UNL     1      10.139 -10.183   0.000  0.00  0.00    +0.000 OA
BRANCH  26  34
ATOM     33  N   UNL     1      12.274 -10.717   0.000  0.00  0.00    +0.000 NA
ATOM     34  C   UNL     1      11.546 -10.280   0.000  0.00  0.00    +0.000 C 
ATOM     35  O   UNL     1      10.818 -10.717   0.000  0.00  0.00    +0.000 OA
BRANCH  33  36
ATOM     36  C   UNL     1      13.002 -10.280   0.000  0.00  0.00    +0.000 C 
BRANCH  36  38
ATOM     37  N   UNL     1      14.457 -10.280   0.000  0.00  0.00    +0.000 NA
ATOM     38  C   UNL     1      13.730 -10.717   0.000  0.00  0.00    +0.000 C 
ATOM     39  O   UNL     1      13.730 -11.542   0.000  0.00  0.00    +0.000 OA
BRANCH  37  40
ATOM     40  C   UNL     1      15.137 -10.717   0.000  0.00  0.00    +0.000 C 
BRANCH  40  42
ATOM     41  N   UNL     1      16.641 -10.717   0.000  0.00  0.00    +0.000 NA
ATOM     42  C   UNL     1      15.913 -10.280   0.000  0.00  0.00    +0.000 C 
ATOM     43  O   UNL     1      15.913  -9.455   0.000  0.00  0.00    +0.000 OA
ENDBRANCH  40  42
ENDBRANCH  37  40
ENDBRANCH  36  38
BRANCH  36  44
ATOM     44  C   UNL     1      13.002  -9.455   0.000  0.00  0.00    +0.000 C 
BRANCH  44  45
ATOM     45  C   UNL     1      13.730  -9.018   0.000  0.00  0.00    +0.000 C 
ATOM     46  C   UNL     1      14.457  -9.455   0.000  0.00  0.00    +0.000 C 
ATOM     47  C   UNL     1      13.730  -8.193   0.000  0.00  0.00    +0.000 C 
ENDBRANCH  44  45
ENDBRANCH  36  44
ENDBRANCH  33  36
ENDBRANCH  26  34
ENDBRANCH   1  31
BRANCH  14  48
ATOM     48  C   UNL     1       5.723  -5.185   0.000  0.00  0.00    +0.000 C 
ATOM     49  C   UNL     1       5.723  -4.360   0.000  0.00  0.00    +0.000 C 
BRANCH  48  50
ATOM     50  C   UNL     1       5.043  -5.622   0.000  0.00  0.00    +0.000 C 
ATOM     51  C   UNL     1       4.315  -5.185   0.000  0.00  0.00    +0.000 C 
ENDBRANCH  48  50
ENDBRANCH  14  48
BRANCH  11  52
ATOM     52  C   UNL     1       5.043  -8.145   0.000  0.00  0.00    +0.000 C 
BRANCH  52  53
ATOM     53  C   UNL     1       4.315  -7.708   0.000  0.00  0.00    +0.000 C 
BRANCH  53  54
ATOM     54  C   UNL     1       3.587  -8.145   0.000  0.00  0.00    +0.000 C 
ATOM     55  N   UNL     1       2.860  -7.708   0.000  0.00  0.00    +0.000 NA
ATOM     56  O   UNL     1       3.587  -8.970   0.000  0.00  0.00    +0.000 OA
ENDBRANCH  53  54
ENDBRANCH  52  53
ENDBRANCH  11  52
BRANCH  22  57
ATOM     57  C   UNL     1       8.683  -4.311   0.000  0.00  0.00    +0.000 C 
BRANCH  57  59
ATOM     58  C   UNL     1       7.227  -4.311   0.000  0.00  0.00    +0.000 A 
ATOM     59  C   UNL     1       7.955  -3.923   0.000  0.00  0.00    +0.000 A 
ATOM     60  C   UNL     1       6.499  -3.923   0.000  0.00  0.00    +0.000 A 
ATOM     61  C   UNL     1       6.499  -3.098   0.000  0.00  0.00    +0.000 A 
ATOM     62  C   UNL     1       7.955  -3.098   0.000  0.00  0.00    +0.000 A 
ATOM     63  C   UNL     1       7.227  -2.661   0.000  0.00  0.00    +0.000 A 
BRANCH  61  64
ATOM     64  O   UNL     1       5.771  -2.661   0.000  0.00  0.00    +0.000 OA
ATOM     65  C   UNL     1       5.723  -1.836   0.000  0.00  0.00    +0.000 C 
ENDBRANCH  61  64
ENDBRANCH  57  59
ENDBRANCH  22  57
BRANCH   4  66
ATOM     66  C   UNL     1       7.227 -10.183   0.000  0.00  0.00    +0.000 C 
BRANCH  66  67
ATOM     67  C   UNL     1       6.499 -10.620   0.000  0.00  0.00    +0.000 C 
ATOM     68  O   UNL     1       6.499 -11.493   0.000  0.00  0.00    +0.000 OA
ATOM     69  N   UNL     1       5.771 -10.232   0.000  0.00  0.00    +0.000 NA
ENDBRANCH  66  67
ENDBRANCH   4  66
TORSDOF 18
