REMARK  Name = 
REMARK  6 active torsions:
REMARK  status: ('A' for Active; 'I' for Inactive)
REMARK    1  A    between atoms: C_7  and  C_8
REMARK    2  A    between atoms: C_8  and  N_9
REMARK    3  A    between atoms: N_9  and  C_10
REMARK    4  A    between atoms: C_13  and  C_16
REMARK    5  A    between atoms: C_16  and  O_18
REMARK    6  A    between atoms: O_18  and  P_19
REMARK                            x       y       z     vdW  Elec       q    Type
REMARK                         _______ _______ _______ _____ _____    ______ ____
ROOT
ATOM      1  N   UNL     1       5.001  -1.238   0.000  0.00  0.00    +0.000 NA
ENDROOT
BRANCH   1   2
ATOM      2  C   UNL     1       5.716  -1.650   0.000  0.00  0.00    +0.000 A 
ATOM      3  C   UNL     1       6.430  -1.238   0.000  0.00  0.00    +0.000 A 
ATOM      4  C   UNL     1       7.145  -1.650   0.000  0.00  0.00    +0.000 A 
ATOM      5  C   UNL     1       7.145  -2.475   0.000  0.00  0.00    +0.000 A 
ATOM      6  C   UNL     1       6.430  -2.888   0.000  0.00  0.00    +0.000 A 
ATOM      7  C   UNL     1       5.716  -2.475   0.000  0.00  0.00    +0.000 A 
BRANCH   5   8
ATOM      8  C   UNL     1       7.859  -2.888   0.000  0.00  0.00    +0.000 C 
ATOM      9  O   UNL     1       8.574  -2.475   0.000  0.00  0.00    +0.000 OA
BRANCH   8  10
ATOM     10  O   UNL     1       7.859  -3.712   0.000  0.00  0.00    +0.000 OA
BRANCH  10  11
ATOM     11  P   UNL     1       8.574  -4.125   0.000  0.00  0.00    +0.000 P 
ATOM     12  O   UNL     1       9.288  -4.537   0.000  0.00  0.00    +0.000 OA
ATOM     13  O   UNL     1       8.161  -4.840   0.000  0.00  0.00    +0.000 OA
ATOM     14  O   UNL     1       8.986  -3.410   0.000  0.00  0.00    +0.000 OA
ENDBRANCH  10  11
ENDBRANCH   8  10
ENDBRANCH   5   8
ENDBRANCH   1   2
BRANCH   1  15
ATOM     15  C   UNL     1       4.287  -1.650   0.000  0.00  0.00    +0.000 C 
BRANCH  15  22
ATOM     16  N   UNL     1       0.000   0.000   0.000  0.00  0.00    +0.000 NA
ATOM     17  C   UNL     1       0.715  -0.412   0.000  0.00  0.00    +0.000 A 
ATOM     18  N   UNL     1       1.429   0.000   0.000  0.00  0.00    +0.000 NA
ATOM     19  C   UNL     1       2.143  -0.412   0.000  0.00  0.00    +0.000 A 
ATOM     20  N   UNL     1       2.858   0.000   0.000  0.00  0.00    +0.000 NA
ATOM     21  C   UNL     1       3.572  -0.412   0.000  0.00  0.00    +0.000 A 
ATOM     22  C   UNL     1       3.572  -1.238   0.000  0.00  0.00    +0.000 A 
ATOM     23  N   UNL     1       2.858  -1.650   0.000  0.00  0.00    +0.000 NA
ATOM     24  C   UNL     1       2.143  -1.238   0.000  0.00  0.00    +0.000 A 
ATOM     25  C   UNL     1       1.429  -1.650   0.000  0.00  0.00    +0.000 A 
ATOM     26  O   UNL     1       1.429  -2.475   0.000  0.00  0.00    +0.000 OA
ATOM     27  N   UNL     1       0.715  -1.238   0.000  0.00  0.00    +0.000 NA
ENDBRANCH  15  22
ENDBRANCH   1  15
TORSDOF 6
