REMARK  Name = 
REMARK  0 active torsions:
REMARK  status: ('A' for Active; 'I' for Inactive)
REMARK                            x       y       z     vdW  Elec       q    Type
REMARK                         _______ _______ _______ _____ _____    ______ ____
ROOT
ATOM      1  C   UNL     1       0.558   0.948   0.000  0.00  0.00    +0.000 A 
ATOM      2  C   UNL     1       0.558   0.123   0.000  0.00  0.00    +0.000 A 
ATOM      3  C   UNL     1       1.272  -0.289   0.000  0.00  0.00    +0.000 A 
ATOM      4  C   UNL     1       1.987   0.123   0.000  0.00  0.00    +0.000 A 
ATOM      5  C   UNL     1       1.987   0.948   0.000  0.00  0.00    +0.000 A 
ATOM      6  C   UNL     1       1.272   1.361   0.000  0.00  0.00    +0.000 A 
ATOM      7 SE   UNL     1      -0.157   1.360   0.000  0.00  0.00    +0.000 Se
ATOM      8  N   UNL     1      -0.871   0.948   0.000  0.00  0.00    +0.000 NA
ATOM      9  C   UNL     1      -0.871   0.122   0.000  0.00  0.00    +0.000 C 
ATOM     10  C   UNL     1      -0.156  -0.290   0.000  0.00  0.00    +0.000 C 
ATOM     11  C   UNL     1      -0.156  -1.115   0.000  0.00  0.00    +0.000 C 
ATOM     12  C   UNL     1      -0.157   0.535   0.000  0.00  0.00    +0.000 C 
ENDROOT
TORSDOF 0
