REMARK  Name = 
REMARK  6 active torsions:
REMARK  status: ('A' for Active; 'I' for Inactive)
REMARK    1  A    between atoms: C_9  and  C_13
REMARK    2  A    between atoms: C_9  and  N_16
REMARK    3  A    between atoms: C_10  and  C_13
REMARK    4  A    between atoms: C_10  and  O_18
REMARK    5  A    between atoms: C_11  and  N_16
REMARK    6  A    between atoms: C_15  and  O_18
REMARK                            x       y       z     vdW  Elec       q    Type
REMARK                         _______ _______ _______ _____ _____    ______ ____
ROOT
ATOM      1  C   UNL     1      -3.135   1.169   0.000  0.00  0.00    +0.000 C 
ATOM      2  C   UNL     1      -2.143   3.712   0.000  0.00  0.00    +0.000 A 
ATOM      3  C   UNL     1      -3.471   1.923   0.000  0.00  0.00    +0.000 C 
ATOM      4  C   UNL     1      -2.858   3.300   0.000  0.00  0.00    +0.000 A 
ATOM      5  C   UNL     1      -2.315   1.256   0.000  0.00  0.00    +0.000 C 
ATOM      6  C   UNL     1      -1.429   3.300   0.000  0.00  0.00    +0.000 A 
ATOM      7  C   UNL     1      -2.858   2.475   0.000  0.00  0.00    +0.000 A 
ATOM      8  C   UNL     1      -2.143   2.062   0.000  0.00  0.00    +0.000 A 
ATOM      9  C   UNL     1      -1.429   2.475   0.000  0.00  0.00    +0.000 A 
ENDROOT
BRANCH   9  10
ATOM     10  O   UNL     1      -0.714   2.062   0.000  0.00  0.00    +0.000 OA
BRANCH  10  11
ATOM     11  C   UNL     1       0.000   2.475   0.000  0.00  0.00    +0.000 C 
BRANCH  11  12
ATOM     12  C   UNL     1       0.714   2.062   0.000  0.00  0.00    +0.000 C 
ATOM     13  O   UNL     1       0.714   1.238   0.000  0.00  0.00    +0.000 OA
BRANCH  12  14
ATOM     14  C   UNL     1       1.429   2.475   0.000  0.00  0.00    +0.000 C 
BRANCH  14  15
ATOM     15  N   UNL     1       2.143   2.062   0.000  0.00  0.00    +0.000 NA
BRANCH  15  18
ATOM     16  C   UNL     1       3.572   2.062   0.000  0.00  0.00    +0.000 C 
ATOM     17  C   UNL     1       2.858   3.300   0.000  0.00  0.00    +0.000 C 
ATOM     18  C   UNL     1       2.858   2.475   0.000  0.00  0.00    +0.000 C 
ENDBRANCH  15  18
ENDBRANCH  14  15
ENDBRANCH  12  14
ENDBRANCH  11  12
ENDBRANCH  10  11
ENDBRANCH   9  10
TORSDOF 6
