REMARK  Name = 
REMARK  4 active torsions:
REMARK  status: ('A' for Active; 'I' for Inactive)
REMARK    1  A    between atoms: C_2  and  C_3
REMARK    2  A    between atoms: C_5  and  C_16
REMARK    3  A    between atoms: C_8  and  C_9
REMARK    4  A    between atoms: C_9  and  P_10
REMARK                            x       y       z     vdW  Elec       q    Type
REMARK                         _______ _______ _______ _____ _____    ______ ____
ROOT
ATOM      1  C   UNL     1      -0.398   2.089   0.000  0.00  0.00    +0.000 C 
ATOM      2  O   UNL     1       0.086   1.422   0.000  0.00  0.00    +0.000 OA
ATOM      3  C   UNL     1      -0.398   0.754   0.000  0.00  0.00    +0.000 C 
ATOM      4  C   UNL     1      -1.183   1.009   0.000  0.00  0.00    +0.000 C 
ATOM      5  O   UNL     1      -1.968   0.754   0.000  0.00  0.00    +0.000 OA
ATOM      6  C   UNL     1      -2.453   1.422   0.000  0.00  0.00    +0.000 C 
ATOM      7  O   UNL     1      -1.968   2.089   0.000  0.00  0.00    +0.000 OA
ATOM      8  C   UNL     1      -1.183   1.834   0.000  0.00  0.00    +0.000 C 
ENDROOT
BRANCH   3   9
ATOM      9  C   UNL     1      -0.143  -0.030   0.000  0.00  0.00    +0.000 A 
ATOM     10  C   UNL     1      -0.628  -0.698   0.000  0.00  0.00    +0.000 A 
ATOM     11  N   UNL     1      -0.143  -1.365   0.000  0.00  0.00    +0.000 NA
ATOM     12  C   UNL     1       0.641  -1.110   0.000  0.00  0.00    +0.000 A 
ATOM     13  C   UNL     1       0.641  -0.285   0.000  0.00  0.00    +0.000 A 
ATOM     14  N   UNL     1       1.356   0.127   0.000  0.00  0.00    +0.000 NA
ATOM     15  C   UNL     1       2.070  -0.285   0.000  0.00  0.00    +0.000 A 
ATOM     16  N   UNL     1       2.070  -1.110   0.000  0.00  0.00    +0.000 NA
ATOM     17  C   UNL     1       1.356  -1.523   0.000  0.00  0.00    +0.000 A 
ATOM     18  O   UNL     1       1.356  -2.348   0.000  0.00  0.00    +0.000 OA
ENDBRANCH   3   9
BRANCH   1  20
ATOM     19  O   UNL     1      -0.696   3.487   0.000  0.00  0.00    +0.000 OA
ATOM     20  C   UNL     1      -0.143   2.874   0.000  0.00  0.00    +0.000 C 
ENDBRANCH   1  20
BRANCH   6  21
ATOM     21  C   UNL     1      -3.278   1.422   0.000  0.00  0.00    +0.000 C 
BRANCH  21  22
ATOM     22  P   UNL     1      -3.690   2.136   0.000  0.00  0.00    +0.000 P 
ATOM     23  O   UNL     1      -4.103   2.850   0.000  0.00  0.00    +0.000 OA
ATOM     24  O   UNL     1      -4.405   1.724   0.000  0.00  0.00    +0.000 OA
ATOM     25  O   UNL     1      -2.976   2.549   0.000  0.00  0.00    +0.000 OA
ENDBRANCH  21  22
ENDBRANCH   6  21
TORSDOF 4
