REMARK  Name = 
REMARK  10 active torsions:
REMARK  status: ('A' for Active; 'I' for Inactive)
REMARK    1  A    between atoms: C_1  and  N_2
REMARK    2  A    between atoms: C_7  and  C_13
REMARK    3  A    between atoms: C_13  and  O_16
REMARK    4  A    between atoms: O_16  and  P_18
REMARK    5  A    between atoms: P_18  and  O_19
REMARK    6  A    between atoms: O_19  and  P_22
REMARK    7  A    between atoms: P_22  and  O_23
REMARK    8  A    between atoms: O_23  and  C_26
REMARK    9  A    between atoms: C_27  and  N_30
REMARK   10  A    between atoms: C_31  and  C_35
REMARK                            x       y       z     vdW  Elec       q    Type
REMARK                         _______ _______ _______ _____ _____    ______ ____
ROOT
ATOM      1  P   UNL     1      14.777 -10.300   0.000  0.00  0.00    +0.000 P 
ATOM      2  O   UNL     1      14.777  -9.473   0.000  0.00  0.00    +0.000 OA
ATOM      3  O   UNL     1      14.773 -11.120   0.000  0.00  0.00    +0.000 OA
ENDROOT
BRANCH   1   4
ATOM      4  O   UNL     1      15.604 -10.300   0.000  0.00  0.00    +0.000 OA
BRANCH   4   5
ATOM      5  C   UNL     1      15.780 -11.105   0.000  0.00  0.00    +0.000 C 
BRANCH   5   9
ATOM      6  C   UNL     1      17.895 -11.366   0.000  0.00  0.00    +0.000 C 
ATOM      7  O   UNL     1      17.223 -10.877   0.000  0.00  0.00    +0.000 OA
ATOM      8  C   UNL     1      17.655 -12.136   0.000  0.00  0.00    +0.000 C 
ATOM      9  C   UNL     1      16.561 -11.352   0.000  0.00  0.00    +0.000 C 
ATOM     10  C   UNL     1      16.832 -12.136   0.000  0.00  0.00    +0.000 C 
ATOM     11  O   UNL     1      18.141 -12.805   0.000  0.00  0.00    +0.000 OA
ATOM     12  O   UNL     1      16.346 -12.805   0.000  0.00  0.00    +0.000 OA
BRANCH   6  13
ATOM     13  N   UNL     1      18.538 -10.032   0.000  0.00  0.00    +0.000 N 
ATOM     14  C   UNL     1      17.831  -9.603   0.000  0.00  0.00    +0.000 A 
ATOM     15  C   UNL     1      19.263  -9.603   0.000  0.00  0.00    +0.000 A 
ATOM     16  N   UNL     1      17.831  -8.769   0.000  0.00  0.00    +0.000 NA
ATOM     17  O   UNL     1      17.113 -10.011   0.000  0.00  0.00    +0.000 OA
ATOM     18  C   UNL     1      19.263  -8.769   0.000  0.00  0.00    +0.000 A 
ATOM     19  C   UNL     1      18.542  -8.361   0.000  0.00  0.00    +0.000 A 
ATOM     20  O   UNL     1      18.542  -7.534   0.000  0.00  0.00    +0.000 OA
ENDBRANCH   6  13
ENDBRANCH   5   9
ENDBRANCH   4   5
ENDBRANCH   1   4
BRANCH   1  21
ATOM     21  O   UNL     1      13.954 -10.300   0.000  0.00  0.00    +0.000 OA
BRANCH  21  22
ATOM     22  P   UNL     1      13.134 -10.300   0.000  0.00  0.00    +0.000 P 
ATOM     23  O   UNL     1      13.134  -9.473   0.000  0.00  0.00    +0.000 OA
ATOM     24  O   UNL     1      13.134 -11.120   0.000  0.00  0.00    +0.000 OA
BRANCH  22  25
ATOM     25  O   UNL     1      12.303 -10.296   0.000  0.00  0.00    +0.000 OA
BRANCH  25  26
ATOM     26  C   UNL     1      11.589 -10.701   0.000  0.00  0.00    +0.000 C 
ATOM     27  C   UNL     1      11.589 -11.531   0.000  0.00  0.00    +0.000 C 
ATOM     28  O   UNL     1      10.871 -10.296   0.000  0.00  0.00    +0.000 OA
ATOM     29  C   UNL     1      10.871 -11.939   0.000  0.00  0.00    +0.000 C 
ATOM     30  C   UNL     1      10.157 -10.701   0.000  0.00  0.00    +0.000 C 
ATOM     31  C   UNL     1      10.157 -11.531   0.000  0.00  0.00    +0.000 C 
ATOM     32  O   UNL     1      10.871 -12.763   0.000  0.00  0.00    +0.000 OA
ATOM     33  O   UNL     1       9.457 -11.939   0.000  0.00  0.00    +0.000 OA
BRANCH  27  34
ATOM     34  N   UNL     1      12.458 -12.221   0.000  0.00  0.00    +0.000 NA
ATOM     35  C   UNL     1      12.708 -12.960   0.000  0.00  0.00    +0.000 C 
ATOM     36  C   UNL     1      13.521 -13.062   0.000  0.00  0.00    +0.000 C 
ATOM     37  O   UNL     1      12.201 -13.611   0.000  0.00  0.00    +0.000 OA
ENDBRANCH  27  34
BRANCH  30  38
ATOM     38  C   UNL     1       9.457 -10.296   0.000  0.00  0.00    +0.000 C 
ATOM     39  O   UNL     1       8.827 -10.824   0.000  0.00  0.00    +0.000 OA
ENDBRANCH  30  38
ENDBRANCH  25  26
ENDBRANCH  22  25
ENDBRANCH  21  22
ENDBRANCH   1  21
TORSDOF 10
