REMARK  Name = 
REMARK  10 active torsions:
REMARK  status: ('A' for Active; 'I' for Inactive)
REMARK    1  A    between atoms: C_5  and  O_14
REMARK    2  A    between atoms: C_11  and  C_17
REMARK    3  A    between atoms: O_14  and  C_15
REMARK    4  A    between atoms: C_15  and  C_16
REMARK    5  A    between atoms: C_17  and  C_18
REMARK    6  A    between atoms: C_18  and  C_19
REMARK    7  A    between atoms: C_19  and  C_20
REMARK    8  A    between atoms: C_20  and  C_21
REMARK    9  A    between atoms: C_21  and  C_22
REMARK   10  A    between atoms: C_22  and  C_23
REMARK                            x       y       z     vdW  Elec       q    Type
REMARK                         _______ _______ _______ _____ _____    ______ ____
ROOT
ATOM      1  C   UNL     1       2.984  -1.806   0.000  0.00  0.00    +0.000 A 
ATOM      2  C   UNL     1       3.707  -2.203   0.000  0.00  0.00    +0.000 A 
ATOM      3  C   UNL     1       4.412  -1.776   0.000  0.00  0.00    +0.000 A 
ATOM      4  C   UNL     1       4.395  -0.951   0.000  0.00  0.00    +0.000 A 
ATOM      5  C   UNL     1       3.671  -0.554   0.000  0.00  0.00    +0.000 A 
ATOM      6  C   UNL     1       2.966  -0.982   0.000  0.00  0.00    +0.000 A 
ATOM      7  C   UNL     1       2.243  -0.584   0.000  0.00  0.00    +0.000 C 
ATOM      8  C   UNL     1       1.537  -1.012   0.000  0.00  0.00    +0.000 C 
ATOM      9  C   UNL     1       1.555  -1.837   0.000  0.00  0.00    +0.000 C 
ATOM     10  C   UNL     1       2.278  -2.234   0.000  0.00  0.00    +0.000 C 
ATOM     11  C   UNL     1       0.776  -2.108   0.000  0.00  0.00    +0.000 C 
ATOM     12  C   UNL     1       0.747  -0.774   0.000  0.00  0.00    +0.000 C 
ATOM     13  C   UNL     1       0.277  -1.452   0.000  0.00  0.00    +0.000 C 
ATOM     14  O   UNL     1      -0.548  -1.469   0.000  0.00  0.00    +0.000 OA
ENDROOT
BRANCH  11  15
ATOM     15  C   UNL     1       0.794  -2.933   0.000  0.00  0.00    +0.000 C 
BRANCH  15  16
ATOM     16  C   UNL     1       0.088  -3.361   0.000  0.00  0.00    +0.000 C 
BRANCH  16  17
ATOM     17  C   UNL     1      -0.635  -2.964   0.000  0.00  0.00    +0.000 C 
ATOM     18  O   UNL     1      -0.653  -2.139   0.000  0.00  0.00    +0.000 OA
BRANCH  17  19
ATOM     19  C   UNL     1      -1.341  -3.392   0.000  0.00  0.00    +0.000 C 
BRANCH  19  20
ATOM     20  C   UNL     1      -2.064  -2.994   0.000  0.00  0.00    +0.000 C 
BRANCH  20  21
ATOM     21  C   UNL     1      -2.769  -3.422   0.000  0.00  0.00    +0.000 C 
BRANCH  21  22
ATOM     22  C   UNL     1      -3.492  -3.025   0.000  0.00  0.00    +0.000 C 
ATOM     23  C   UNL     1      -4.198  -3.453   0.000  0.00  0.00    +0.000 C 
ENDBRANCH  21  22
ENDBRANCH  20  21
ENDBRANCH  19  20
ENDBRANCH  17  19
ENDBRANCH  16  17
ENDBRANCH  15  16
ENDBRANCH  11  15
BRANCH   5  24
ATOM     24  O   UNL     1       3.654   0.271   0.000  0.00  0.00    +0.000 OA
BRANCH  24  25
ATOM     25  C   UNL     1       4.359   0.699   0.000  0.00  0.00    +0.000 C 
BRANCH  25  26
ATOM     26  C   UNL     1       5.082   0.302   0.000  0.00  0.00    +0.000 C 
ATOM     27  O   UNL     1       5.788   0.729   0.000  0.00  0.00    +0.000 OA
ATOM     28  O   UNL     1       5.100  -0.523   0.000  0.00  0.00    +0.000 OA
ENDBRANCH  25  26
ENDBRANCH  24  25
ENDBRANCH   5  24
TORSDOF 10
