REMARK  Name = 
REMARK  9 active torsions:
REMARK  status: ('A' for Active; 'I' for Inactive)
REMARK    1  A    between atoms: N_1  and  C_7
REMARK    2  A    between atoms: N_1  and  C_13
REMARK    3  A    between atoms: N_2  and  C_14
REMARK    4  A    between atoms: N_2  and  C_15
REMARK    5  A    between atoms: C_13  and  C_14
REMARK    6  A    between atoms: C_15  and  C_16
REMARK    7  A    between atoms: C_17  and  C_18
REMARK    8  A    between atoms: C_18  and  C_20
REMARK    9  A    between atoms: C_20  and  C_21
REMARK                            x       y       z     vdW  Elec       q    Type
REMARK                         _______ _______ _______ _____ _____    ______ ____
ROOT
ATOM      1  C   UNL     1       5.100  -0.470   0.000  0.00  0.00    +0.000 C 
ENDROOT
BRANCH   1   2
ATOM      2  C   UNL     1       5.684   0.113   0.000  0.00  0.00    +0.000 C 
BRANCH   2   3
ATOM      3  N   UNL     1       6.481  -0.101   0.000  0.00  0.00    +0.000 NA
BRANCH   3   4
ATOM      4  C   UNL     1       7.064   0.483   0.000  0.00  0.00    +0.000 C 
BRANCH   4   5
ATOM      5  C   UNL     1       7.861   0.269   0.000  0.00  0.00    +0.000 C 
ATOM      6  C   UNL     1       8.444   0.853   0.000  0.00  0.00    +0.000 C 
ATOM      7  C   UNL     1       8.231   1.649   0.000  0.00  0.00    +0.000 C 
BRANCH   6   8
ATOM      8  C   UNL     1       9.241   0.639   0.000  0.00  0.00    +0.000 C 
BRANCH   8   9
ATOM      9  C   UNL     1       9.825   1.222   0.000  0.00  0.00    +0.000 C 
BRANCH   9  10
ATOM     10  C   UNL     1      10.621   1.009   0.000  0.00  0.00    +0.000 C 
ATOM     11  C   UNL     1      11.205   1.592   0.000  0.00  0.00    +0.000 C 
ATOM     12  C   UNL     1      10.991   2.389   0.000  0.00  0.00    +0.000 C 
ATOM     13  C   UNL     1      12.002   1.379   0.000  0.00  0.00    +0.000 C 
ENDBRANCH   9  10
ENDBRANCH   8   9
ENDBRANCH   6   8
ENDBRANCH   4   5
ENDBRANCH   3   4
ENDBRANCH   2   3
ENDBRANCH   1   2
BRANCH   1  14
ATOM     14  N   UNL     1       4.303  -0.257   0.000  0.00  0.00    +0.000 NA
BRANCH  14  19
ATOM     15  C   UNL     1       3.720  -1.637   0.000  0.00  0.00    +0.000 C 
ATOM     16  C   UNL     1       3.030  -0.442   0.000  0.00  0.00    +0.000 C 
ATOM     17  C   UNL     1       2.460  -1.996   0.000  0.00  0.00    +0.000 C 
ATOM     18  C   UNL     1       2.340  -1.637   0.000  0.00  0.00    +0.000 C 
ATOM     19  C   UNL     1       3.720  -0.840   0.000  0.00  0.00    +0.000 C 
ATOM     20  C   UNL     1       3.207  -2.389   0.000  0.00  0.00    +0.000 C 
ATOM     21  C   UNL     1       3.030  -1.887   0.000  0.00  0.00    +0.000 C 
ATOM     22  C   UNL     1       2.460  -1.133   0.000  0.00  0.00    +0.000 C 
ATOM     23  C   UNL     1       2.340  -0.840   0.000  0.00  0.00    +0.000 C 
ATOM     24  C   UNL     1       1.650  -2.035   0.000  0.00  0.00    +0.000 C 
ENDBRANCH  14  19
ENDBRANCH   1  14
TORSDOF 9
