REMARK  Name = 
REMARK  4 active torsions:
REMARK  status: ('A' for Active; 'I' for Inactive)
REMARK    1  A    between atoms: C_2  and  C_3
REMARK    2  A    between atoms: C_3  and  O_15
REMARK    3  A    between atoms: C_6  and  C_10
REMARK    4  A    between atoms: C_10  and  O_15
REMARK                            x       y       z     vdW  Elec       q    Type
REMARK                         _______ _______ _______ _____ _____    ______ ____
ROOT
ATOM      1  C   UNL     1       4.287  -2.475   0.000  0.00  0.00    +0.000 A 
ATOM      2  C   UNL     1       3.572  -3.712   0.000  0.00  0.00    +0.000 A 
ATOM      3  C   UNL     1       3.572  -2.888   0.000  0.00  0.00    +0.000 A 
ATOM      4  C   UNL     1       5.001  -2.888   0.000  0.00  0.00    +0.000 A 
ATOM      5  C   UNL     1       4.287  -4.125   0.000  0.00  0.00    +0.000 A 
ATOM      6  C   UNL     1       5.001  -3.712   0.000  0.00  0.00    +0.000 A 
ATOM      7  O   UNL     1       5.716  -2.475   0.000  0.00  0.00    +0.000 OA
ATOM      8  O   UNL     1       4.287  -4.950   0.000  0.00  0.00    +0.000 OA
ATOM      9  O   UNL     1       5.716  -4.125   0.000  0.00  0.00    +0.000 OA
ENDROOT
BRANCH   3  10
ATOM     10  C   UNL     1       2.858  -2.475   0.000  0.00  0.00    +0.000 C 
ATOM     11  O   UNL     1       2.858  -1.650   0.000  0.00  0.00    +0.000 OA
BRANCH  10  12
ATOM     12  O   UNL     1       2.143  -2.888   0.000  0.00  0.00    +0.000 OA
BRANCH  12  13
ATOM     13  C   UNL     1       1.429  -2.475   0.000  0.00  0.00    +0.000 C 
BRANCH  13  15
ATOM     14  C   UNL     1       0.000  -2.475   0.000  0.00  0.00    +0.000 C 
ATOM     15  C   UNL     1       0.715  -2.888   0.000  0.00  0.00    +0.000 C 
ENDBRANCH  13  15
ENDBRANCH  12  13
ENDBRANCH  10  12
ENDBRANCH   3  10
TORSDOF 4
