REMARK  Name = 
REMARK  8 active torsions:
REMARK  status: ('A' for Active; 'I' for Inactive)
REMARK    1  A    between atoms: N_3  and  C_9
REMARK    2  A    between atoms: N_4  and  C_10
REMARK    3  A    between atoms: C_9  and  C_11
REMARK    4  A    between atoms: C_10  and  C_14
REMARK    5  A    between atoms: C_10  and  C_15
REMARK    6  A    between atoms: C_11  and  C_12
REMARK    7  A    between atoms: C_12  and  C_13
REMARK    8  A    between atoms: C_13  and  C_16
REMARK                            x       y       z     vdW  Elec       q    Type
REMARK                         _______ _______ _______ _____ _____    ______ ____
ROOT
ATOM      1  N   UNL     1       3.793  -0.131   0.000  0.00  0.00    +0.000 NA
ATOM      2  N   UNL     1       3.793  -1.781   0.000  0.00  0.00    +0.000 NA
ATOM      3  C   UNL     1       4.508  -0.543   0.000  0.00  0.00    +0.000 C 
ATOM      4  C   UNL     1       3.079  -0.543   0.000  0.00  0.00    +0.000 C 
ATOM      5  C   UNL     1       4.508  -1.368   0.000  0.00  0.00    +0.000 C 
ATOM      6  C   UNL     1       3.079  -1.368   0.000  0.00  0.00    +0.000 C 
ENDROOT
BRANCH   2   7
ATOM      7  C   UNL     1       3.793  -2.606   0.000  0.00  0.00    +0.000 C 
BRANCH   7   8
ATOM      8  C   UNL     1       3.079  -3.018   0.000  0.00  0.00    +0.000 A 
ATOM      9  C   UNL     1       3.079  -3.843   0.000  0.00  0.00    +0.000 A 
ATOM     10  C   UNL     1       2.365  -2.606   0.000  0.00  0.00    +0.000 A 
ATOM     11  C   UNL     1       2.365  -4.256   0.000  0.00  0.00    +0.000 A 
ATOM     12  C   UNL     1       1.650  -3.018   0.000  0.00  0.00    +0.000 A 
ATOM     13  C   UNL     1       1.650  -3.843   0.000  0.00  0.00    +0.000 A 
ENDBRANCH   7   8
BRANCH   7  14
ATOM     14  C   UNL     1       4.508  -3.018   0.000  0.00  0.00    +0.000 A 
ATOM     15  C   UNL     1       5.222  -2.606   0.000  0.00  0.00    +0.000 A 
ATOM     16  C   UNL     1       4.508  -3.843   0.000  0.00  0.00    +0.000 A 
ATOM     17  C   UNL     1       5.937  -3.018   0.000  0.00  0.00    +0.000 A 
ATOM     18  C   UNL     1       5.222  -4.256   0.000  0.00  0.00    +0.000 A 
ATOM     19  C   UNL     1       5.937  -3.843   0.000  0.00  0.00    +0.000 A 
ENDBRANCH   7  14
ENDBRANCH   2   7
BRANCH   1  20
ATOM     20  C   UNL     1       3.793   0.695   0.000  0.00  0.00    +0.000 C 
BRANCH  20  21
ATOM     21  C   UNL     1       4.508   1.107   0.000  0.00  0.00    +0.000 C 
BRANCH  21  22
ATOM     22  C   UNL     1       4.508   1.932   0.000  0.00  0.00    +0.000 C 
BRANCH  22  25
ATOM     23  O   UNL     1       5.774   2.958   0.000  0.00  0.00    +0.000 OA
ATOM     24  O   UNL     1       5.635   1.630   0.000  0.00  0.00    +0.000 OA
ATOM     25  C   UNL     1       5.222   2.345   0.000  0.00  0.00    +0.000 C 
ATOM     26  C   UNL     1       6.528   2.622   0.000  0.00  0.00    +0.000 C 
ATOM     27  C   UNL     1       6.442   1.802   0.000  0.00  0.00    +0.000 C 
BRANCH  25  28
ATOM     28  C   UNL     1       4.609   2.897   0.000  0.00  0.00    +0.000 A 
ATOM     29  C   UNL     1       3.825   2.642   0.000  0.00  0.00    +0.000 A 
ATOM     30  C   UNL     1       4.781   3.704   0.000  0.00  0.00    +0.000 A 
ATOM     31  C   UNL     1       3.212   3.194   0.000  0.00  0.00    +0.000 A 
ATOM     32  C   UNL     1       4.168   4.256   0.000  0.00  0.00    +0.000 A 
ATOM     33  C   UNL     1       3.383   4.001   0.000  0.00  0.00    +0.000 A 
ENDBRANCH  25  28
ENDBRANCH  22  25
ENDBRANCH  21  22
ENDBRANCH  20  21
ENDBRANCH   1  20
TORSDOF 8
