REMARK  Name = 
REMARK  0 active torsions:
REMARK  status: ('A' for Active; 'I' for Inactive)
REMARK                            x       y       z     vdW  Elec       q    Type
REMARK                         _______ _______ _______ _____ _____    ______ ____
ROOT
ATOM      1  C   UNL     1      -0.715  -0.412   0.000  0.00  0.00    +0.000 C 
ATOM      2  C   UNL     1       0.000  -0.825   0.000  0.00  0.00    +0.000 C 
ATOM      3  C   UNL     1       0.715  -0.412   0.000  0.00  0.00    +0.000 C 
ATOM      4  C   UNL     1      -0.715   0.412   0.000  0.00  0.00    +0.000 C 
ATOM      5  C   UNL     1       0.715   0.412   0.000  0.00  0.00    +0.000 C 
ATOM      6  C   UNL     1       0.000   0.825   0.000  0.00  0.00    +0.000 C 
ATOM      7 CL   UNL     1       1.429  -0.825   0.000  0.00  0.00    +0.000 Cl
ATOM      8 CL   UNL     1       0.000   1.650   0.000  0.00  0.00    +0.000 Cl
ATOM      9 CL   UNL     1      -1.429  -0.825   0.000  0.00  0.00    +0.000 Cl
ATOM     10 CL   UNL     1       0.000  -1.650   0.000  0.00  0.00    +0.000 Cl
ATOM     11 CL   UNL     1      -1.429   0.825   0.000  0.00  0.00    +0.000 Cl
ATOM     12 CL   UNL     1       1.429   0.825   0.000  0.00  0.00    +0.000 Cl
ENDROOT
TORSDOF 0
