REMARK  Name = 
REMARK  6 active torsions:
REMARK  status: ('A' for Active; 'I' for Inactive)
REMARK    1  A    between atoms: C_11  and  C_12
REMARK    2  A    between atoms: C_11  and  C_15
REMARK    3  A    between atoms: C_12  and  C_16
REMARK    4  A    between atoms: C_13  and  C_16
REMARK    5  A    between atoms: C_14  and  S_21
REMARK    6  A    between atoms: C_17  and  S_21
REMARK                            x       y       z     vdW  Elec       q    Type
REMARK                         _______ _______ _______ _____ _____    ______ ____
ROOT
ATOM      1  C   UNL     1       0.000   3.300   0.000  0.00  0.00    +0.000 C 
ATOM      2  C   UNL     1       0.715   2.888   0.000  0.00  0.00    +0.000 C 
ENDROOT
BRANCH   2   5
ATOM      3  O   UNL     1      -0.111   2.062   0.000  0.00  0.00    +0.000 OA
ATOM      4  O   UNL     1       1.540   2.062   0.000  0.00  0.00    +0.000 OA
ATOM      5  S   UNL     1       0.715   2.062   0.000  0.00  0.00    +0.000 S 
BRANCH   5  11
ATOM      6  C   UNL     1       0.715  -0.412   0.000  0.00  0.00    +0.000 A 
ATOM      7  C   UNL     1       1.429   0.000   0.000  0.00  0.00    +0.000 A 
ATOM      8  C   UNL     1       0.000   0.000   0.000  0.00  0.00    +0.000 A 
ATOM      9  C   UNL     1       1.429   0.825   0.000  0.00  0.00    +0.000 A 
ATOM     10  C   UNL     1       0.000   0.825   0.000  0.00  0.00    +0.000 A 
ATOM     11  C   UNL     1       0.715   1.238   0.000  0.00  0.00    +0.000 A 
ENDBRANCH   5  11
ENDBRANCH   2   5
BRANCH   1  12
ATOM     12  C   UNL     1       0.000   4.125   0.000  0.00  0.00    +0.000 C 
ATOM     13  N   UNL     1       0.715   4.537   0.000  0.00  0.00    +0.000 NA
BRANCH  12  14
ATOM     14  C   UNL     1      -0.715   4.537   0.000  0.00  0.00    +0.000 C 
BRANCH  14  15
ATOM     15  C   UNL     1      -0.715   5.362   0.000  0.00  0.00    +0.000 C 
BRANCH  15  21
ATOM     16  C   UNL     1      -2.858   6.600   0.000  0.00  0.00    +0.000 A 
ATOM     17  C   UNL     1      -2.858   5.775   0.000  0.00  0.00    +0.000 A 
ATOM     18  C   UNL     1      -2.143   7.013   0.000  0.00  0.00    +0.000 A 
ATOM     19  C   UNL     1      -2.143   5.362   0.000  0.00  0.00    +0.000 A 
ATOM     20  C   UNL     1      -1.429   6.600   0.000  0.00  0.00    +0.000 A 
ATOM     21  C   UNL     1      -1.429   5.775   0.000  0.00  0.00    +0.000 A 
ENDBRANCH  15  21
ENDBRANCH  14  15
ENDBRANCH  12  14
ENDBRANCH   1  12
TORSDOF 6
