REMARK  Name = 
REMARK  6 active torsions:
REMARK  status: ('A' for Active; 'I' for Inactive)
REMARK    1  A    between atoms: C_4  and  C_9
REMARK    2  A    between atoms: C_5  and  C_10
REMARK    3  A    between atoms: C_9  and  C_12
REMARK    4  A    between atoms: C_10  and  C_13
REMARK    5  A    between atoms: C_12  and  C_14
REMARK    6  A    between atoms: C_13  and  C_15
REMARK                            x       y       z     vdW  Elec       q    Type
REMARK                         _______ _______ _______ _____ _____    ______ ____
ROOT
ATOM      1  N   UNL     1       5.937  -0.206   0.000  0.00  0.00    +0.000 NA
ATOM      2  C   UNL     1       5.222   0.206   0.000  0.00  0.00    +0.000 C 
ATOM      3  C   UNL     1       6.652   0.206   0.000  0.00  0.00    +0.000 C 
ATOM      4  C   UNL     1       5.222   1.031   0.000  0.00  0.00    +0.000 C 
ATOM      5  C   UNL     1       6.652   1.031   0.000  0.00  0.00    +0.000 C 
ATOM      6  C   UNL     1       5.937   1.444   0.000  0.00  0.00    +0.000 C 
ATOM      7  C   UNL     1       5.937  -1.031   0.000  0.00  0.00    +0.000 C 
ENDROOT
BRANCH   3   8
ATOM      8  C   UNL     1       7.366  -0.206   0.000  0.00  0.00    +0.000 C 
BRANCH   8  10
ATOM      9  O   UNL     1       8.080   1.031   0.000  0.00  0.00    +0.000 OA
ATOM     10  C   UNL     1       8.080   0.206   0.000  0.00  0.00    +0.000 C 
BRANCH  10  11
ATOM     11  C   UNL     1       8.795  -0.206   0.000  0.00  0.00    +0.000 A 
ATOM     12  C   UNL     1       8.795  -1.031   0.000  0.00  0.00    +0.000 A 
ATOM     13  C   UNL     1       9.509   0.206   0.000  0.00  0.00    +0.000 A 
ATOM     14  C   UNL     1       9.509  -1.444   0.000  0.00  0.00    +0.000 A 
ATOM     15  C   UNL     1      10.224  -0.206   0.000  0.00  0.00    +0.000 A 
ATOM     16  C   UNL     1      10.224  -1.031   0.000  0.00  0.00    +0.000 A 
ENDBRANCH  10  11
ENDBRANCH   8  10
ENDBRANCH   3   8
BRANCH   2  17
ATOM     17  C   UNL     1       4.508  -0.206   0.000  0.00  0.00    +0.000 C 
BRANCH  17  19
ATOM     18  O   UNL     1       3.793   1.031   0.000  0.00  0.00    +0.000 OA
ATOM     19  C   UNL     1       3.793   0.206   0.000  0.00  0.00    +0.000 C 
BRANCH  19  20
ATOM     20  C   UNL     1       3.079  -0.206   0.000  0.00  0.00    +0.000 A 
ATOM     21  C   UNL     1       3.079  -1.031   0.000  0.00  0.00    +0.000 A 
ATOM     22  C   UNL     1       2.365   0.206   0.000  0.00  0.00    +0.000 A 
ATOM     23  C   UNL     1       2.365  -1.444   0.000  0.00  0.00    +0.000 A 
ATOM     24  C   UNL     1       1.650  -0.206   0.000  0.00  0.00    +0.000 A 
ATOM     25  C   UNL     1       1.650  -1.031   0.000  0.00  0.00    +0.000 A 
ENDBRANCH  19  20
ENDBRANCH  17  19
ENDBRANCH   2  17
TORSDOF 6
