REMARK  Name = 
REMARK  4 active torsions:
REMARK  status: ('A' for Active; 'I' for Inactive)
REMARK    1  A    between atoms: C_8  and  C_9
REMARK    2  A    between atoms: C_8  and  C_10
REMARK    3  A    between atoms: C_8  and  C_11
REMARK    4  A    between atoms: C_16  and  C_24
REMARK                            x       y       z     vdW  Elec       q    Type
REMARK                         _______ _______ _______ _____ _____    ______ ____
ROOT
ATOM      1  O   UNL     1       8.012   1.493   0.000  0.00  0.00    +0.000 OA
ATOM      2  N   UNL     1       6.551   1.501   0.000  0.00  0.00    +0.000 N 
ATOM      3  C   UNL     1       4.385   0.235   0.000  0.00  0.00    +0.000 A 
ATOM      4  C   UNL     1       5.814   0.235   0.000  0.00  0.00    +0.000 A 
ATOM      5  C   UNL     1       5.099  -0.177   0.000  0.00  0.00    +0.000 A 
ATOM      6  C   UNL     1       5.814   1.060   0.000  0.00  0.00    +0.000 A 
ATOM      7  C   UNL     1       4.385   1.060   0.000  0.00  0.00    +0.000 A 
ATOM      8  C   UNL     1       6.551  -0.206   0.000  0.00  0.00    +0.000 A 
ATOM      9  C   UNL     1       5.099   1.473   0.000  0.00  0.00    +0.000 A 
ATOM     10  C   UNL     1       7.299   0.218   0.000  0.00  0.00    +0.000 A 
ATOM     11  C   UNL     1       7.299   1.077   0.000  0.00  0.00    +0.000 A 
ATOM     12  C   UNL     1       6.542   2.326   0.000  0.00  0.00    +0.000 C 
ENDROOT
BRANCH   8  14
ATOM     13 CL   UNL     1       5.094  -2.664   0.000  0.00  0.00    +0.000 Cl
ATOM     14  C   UNL     1       6.542  -1.031   0.000  0.00  0.00    +0.000 A 
ATOM     15  C   UNL     1       5.822  -1.435   0.000  0.00  0.00    +0.000 A 
ATOM     16  C   UNL     1       7.251  -1.452   0.000  0.00  0.00    +0.000 A 
ATOM     17  C   UNL     1       5.813  -2.260   0.000  0.00  0.00    +0.000 A 
ATOM     18  C   UNL     1       7.242  -2.276   0.000  0.00  0.00    +0.000 A 
ATOM     19  C   UNL     1       6.523  -2.681   0.000  0.00  0.00    +0.000 A 
ENDBRANCH   8  14
BRANCH   3  21
ATOM     20  N   UNL     1       4.083  -0.892   0.000  0.00  0.00    +0.000 NA
ATOM     21  C   UNL     1       3.670  -0.177   0.000  0.00  0.00    +0.000 C 
BRANCH  21  23
ATOM     22 CL   UNL     1       2.020   2.681   0.000  0.00  0.00    +0.000 Cl
ATOM     23  C   UNL     1       3.258   0.537   0.000  0.00  0.00    +0.000 A 
ATOM     24  C   UNL     1       2.433   0.537   0.000  0.00  0.00    +0.000 A 
ATOM     25  C   UNL     1       3.670   1.252   0.000  0.00  0.00    +0.000 A 
ATOM     26  C   UNL     1       2.020   1.252   0.000  0.00  0.00    +0.000 A 
ATOM     27  C   UNL     1       3.258   1.966   0.000  0.00  0.00    +0.000 A 
ATOM     28  C   UNL     1       2.433   1.966   0.000  0.00  0.00    +0.000 A 
ENDBRANCH  21  23
BRANCH  21  31
ATOM     29  N   UNL     1       2.869  -1.410   0.000  0.00  0.00    +0.000 N 
ATOM     30  N   UNL     1       1.650  -0.867   0.000  0.00  0.00    +0.000 NA
ATOM     31  C   UNL     1       2.956  -0.590   0.000  0.00  0.00    +0.000 A 
ATOM     32  C   UNL     1       2.202  -0.254   0.000  0.00  0.00    +0.000 A 
ATOM     33  C   UNL     1       2.062  -1.582   0.000  0.00  0.00    +0.000 A 
ATOM     34  C   UNL     1       3.483  -1.962   0.000  0.00  0.00    +0.000 C 
ENDBRANCH  21  31
ENDBRANCH   3  21
TORSDOF 4
