REMARK  Name = 
REMARK  3 active torsions:
REMARK  status: ('A' for Active; 'I' for Inactive)
REMARK    1  A    between atoms: C_2  and  N_3
REMARK    2  A    between atoms: N_3  and  C_5
REMARK    3  A    between atoms: C_5  and  C_6
REMARK                            x       y       z     vdW  Elec       q    Type
REMARK                         _______ _______ _______ _____ _____    ______ ____
ROOT
ATOM      1  C   UNL     1       1.429   0.825   0.000  0.00  0.00    +0.000 A 
ATOM      2  C   UNL     1       1.429   0.000   0.000  0.00  0.00    +0.000 A 
ATOM      3  N   UNL     1       0.715  -0.412   0.000  0.00  0.00    +0.000 NA
ATOM      4  C   UNL     1       0.000   0.000   0.000  0.00  0.00    +0.000 A 
ATOM      5  C   UNL     1      -0.715  -0.412   0.000  0.00  0.00    +0.000 C 
ATOM      6  N   UNL     1       0.000   0.825   0.000  0.00  0.00    +0.000 NA
ATOM      7  C   UNL     1       0.715   1.238   0.000  0.00  0.00    +0.000 A 
ATOM      8  N   UNL     1       0.715   2.062   0.000  0.00  0.00    +0.000 NA
ENDROOT
BRANCH   1   9
ATOM      9  C   UNL     1       2.143   1.238   0.000  0.00  0.00    +0.000 C 
BRANCH   9  10
ATOM     10  N   UNL     1       2.143   2.062   0.000  0.00  0.00    +0.000 NA
ATOM     11  C   UNL     1       1.429   2.475   0.000  0.00  0.00    +0.000 C 
BRANCH  10  13
ATOM     12  C   UNL     1       2.858   3.300   0.000  0.00  0.00    +0.000 C 
ATOM     13  C   UNL     1       2.858   2.475   0.000  0.00  0.00    +0.000 C 
ENDBRANCH  10  13
ENDBRANCH   9  10
ENDBRANCH   1   9
TORSDOF 3
