REMARK  Name = 
REMARK  10 active torsions:
REMARK  status: ('A' for Active; 'I' for Inactive)
REMARK    1  A    between atoms: C_1  and  C_2
REMARK    2  A    between atoms: C_1  and  C_3
REMARK    3  A    between atoms: C_1  and  C_28
REMARK    4  A    between atoms: C_3  and  O_4
REMARK    5  A    between atoms: O_4  and  C_6
REMARK    6  A    between atoms: N_11  and  C_14
REMARK    7  A    between atoms: C_14  and  C_19
REMARK    8  A    between atoms: C_19  and  C_20
REMARK    9  A    between atoms: C_20  and  O_21
REMARK   10  A    between atoms: O_21  and  C_22
REMARK                            x       y       z     vdW  Elec       q    Type
REMARK                         _______ _______ _______ _____ _____    ______ ____
ROOT
ATOM      1  C   UNL     1      12.016  -5.309   0.000  0.00  0.00    +0.000 C 
ATOM      2  C   UNL     1      11.274  -4.897   0.000  0.00  0.00    +0.000 C 
ATOM      3  C   UNL     1      12.016  -6.176   0.000  0.00  0.00    +0.000 C 
ATOM      4  C   UNL     1      10.531  -5.309   0.000  0.00  0.00    +0.000 C 
ATOM      5  C   UNL     1      11.521  -5.639   0.000  0.00  0.00    +0.000 C 
ATOM      6  N   UNL     1      11.274  -6.588   0.000  0.00  0.00    +0.000 N 
ATOM      7  C   UNL     1      10.531  -6.134   0.000  0.00  0.00    +0.000 C 
ATOM      8  C   UNL     1      11.026  -5.763   0.000  0.00  0.00    +0.000 C 
ENDROOT
BRANCH   1   9
ATOM      9  O   UNL     1      12.717  -4.897   0.000  0.00  0.00    +0.000 OA
BRANCH   9  10
ATOM     10  C   UNL     1      13.419  -5.309   0.000  0.00  0.00    +0.000 C 
ATOM     11  O   UNL     1      13.419  -6.134   0.000  0.00  0.00    +0.000 OA
BRANCH  10  12
ATOM     12  C   UNL     1      14.161  -4.897   0.000  0.00  0.00    +0.000 C 
ATOM     13  O   UNL     1      14.876  -4.484   0.000  0.00  0.00    +0.000 OA
BRANCH  12  14
ATOM     14  C   UNL     1      14.872  -5.315   0.000  0.00  0.00    +0.000 A 
ATOM     15  S   UNL     1      15.629  -4.986   0.000  0.00  0.00    +0.000 S 
ATOM     16  C   UNL     1      14.952  -6.136   0.000  0.00  0.00    +0.000 A 
ATOM     17  C   UNL     1      16.176  -5.603   0.000  0.00  0.00    +0.000 A 
ATOM     18  C   UNL     1      15.757  -6.314   0.000  0.00  0.00    +0.000 A 
ENDBRANCH  12  14
BRANCH  12  19
ATOM     19  C   UNL     1      14.161  -4.072   0.000  0.00  0.00    +0.000 A 
ATOM     20  C   UNL     1      14.829  -3.587   0.000  0.00  0.00    +0.000 A 
ATOM     21  C   UNL     1      14.574  -2.802   0.000  0.00  0.00    +0.000 A 
ATOM     22  C   UNL     1      13.749  -2.802   0.000  0.00  0.00    +0.000 A 
ATOM     23  S   UNL     1      13.494  -3.587   0.000  0.00  0.00    +0.000 S 
ENDBRANCH  12  19
ENDBRANCH  10  12
ENDBRANCH   9  10
ENDBRANCH   1   9
BRANCH   6  24
ATOM     24  C   UNL     1      11.274  -7.413   0.000  0.00  0.00    +0.000 C 
BRANCH  24  25
ATOM     25  C   UNL     1      10.559  -7.826   0.000  0.00  0.00    +0.000 C 
BRANCH  25  26
ATOM     26  C   UNL     1       9.855  -7.419   0.000  0.00  0.00    +0.000 C 
BRANCH  26  27
ATOM     27  O   UNL     1       9.155  -7.823   0.000  0.00  0.00    +0.000 OA
BRANCH  27  28
ATOM     28  C   UNL     1       8.453  -7.417   0.000  0.00  0.00    +0.000 A 
ATOM     29  C   UNL     1       8.453  -6.588   0.000  0.00  0.00    +0.000 A 
ATOM     30  C   UNL     1       7.739  -6.176   0.000  0.00  0.00    +0.000 A 
ATOM     31  C   UNL     1       7.024  -6.588   0.000  0.00  0.00    +0.000 A 
ATOM     32  C   UNL     1       7.024  -7.417   0.000  0.00  0.00    +0.000 A 
ATOM     33  C   UNL     1       7.739  -7.830   0.000  0.00  0.00    +0.000 A 
ENDBRANCH  27  28
ENDBRANCH  26  27
ENDBRANCH  25  26
ENDBRANCH  24  25
ENDBRANCH   6  24
TORSDOF 10
