REMARK  Name = 
REMARK  7 active torsions:
REMARK  status: ('A' for Active; 'I' for Inactive)
REMARK    1  A    between atoms: C_1  and  C_12
REMARK    2  A    between atoms: C_2  and  C_3
REMARK    3  A    between atoms: C_7  and  O_9
REMARK    4  A    between atoms: C_18  and  C_55
REMARK    5  A    between atoms: C_26  and  O_34
REMARK    6  A    between atoms: C_28  and  O_33
REMARK    7  A    between atoms: C_55  and  C_56
REMARK                            x       y       z     vdW  Elec       q    Type
REMARK                         _______ _______ _______ _____ _____    ______ ____
ROOT
ATOM      1  C   UNL     1      12.582  -8.166   0.000  0.00  0.00    +0.000 C 
ATOM      2  C   UNL     1      13.291  -7.749   0.000  0.00  0.00    +0.000 C 
ATOM      3  C   UNL     1      13.999  -8.166   0.000  0.00  0.00    +0.000 C 
ATOM      4  C   UNL     1      13.999  -8.999   0.000  0.00  0.00    +0.000 C 
ATOM      5  C   UNL     1      14.791  -9.333   0.000  0.00  0.00    +0.000 C 
ATOM      6  C   UNL     1      15.165 -10.124   0.000  0.00  0.00    +0.000 C 
ATOM      7  C   UNL     1      14.749 -10.874   0.000  0.00  0.00    +0.000 C 
ATOM      8  C   UNL     1      13.999 -11.291   0.000  0.00  0.00    +0.000 C 
ATOM      9  C   UNL     1      13.291 -10.874   0.000  0.00  0.00    +0.000 C 
ATOM     10  C   UNL     1      13.999 -12.124   0.000  0.00  0.00    +0.000 C 
ATOM     11  C   UNL     1      13.291 -12.541   0.000  0.00  0.00    +0.000 C 
ATOM     12  C   UNL     1      12.582 -12.124   0.000  0.00  0.00    +0.000 C 
ATOM     13  C   UNL     1      13.707 -13.249   0.000  0.00  0.00    +0.000 C 
ATOM     14  C   UNL     1      13.124 -13.874   0.000  0.00  0.00    +0.000 C 
ATOM     15  C   UNL     1      12.332 -13.666   0.000  0.00  0.00    +0.000 C 
ATOM     16  C   UNL     1      11.749 -14.249   0.000  0.00  0.00    +0.000 C 
ATOM     17  C   UNL     1      10.957 -14.041   0.000  0.00  0.00    +0.000 C 
ATOM     18  C   UNL     1      10.749 -13.249   0.000  0.00  0.00    +0.000 C 
ATOM     19  C   UNL     1      11.332 -12.666   0.000  0.00  0.00    +0.000 C 
ATOM     20  O   UNL     1      12.124 -12.874   0.000  0.00  0.00    +0.000 OA
ATOM     21  O   UNL     1      12.041 -12.291   0.000  0.00  0.00    +0.000 OA
ATOM     22  C   UNL     1      10.916 -11.957   0.000  0.00  0.00    +0.000 C 
ATOM     23  C   UNL     1      11.332 -11.207   0.000  0.00  0.00    +0.000 C 
ATOM     24  N   UNL     1      10.916 -10.499   0.000  0.00  0.00    +0.000 N 
ATOM     25  C   UNL     1      10.083 -10.499   0.000  0.00  0.00    +0.000 C 
ATOM     26  C   UNL     1      11.332  -9.791   0.000  0.00  0.00    +0.000 C 
ATOM     27  C   UNL     1      10.916  -9.041   0.000  0.00  0.00    +0.000 C 
ATOM     28  C   UNL     1      10.083  -9.041   0.000  0.00  0.00    +0.000 C 
ATOM     29  C   UNL     1       9.666  -9.749   0.000  0.00  0.00    +0.000 C 
ATOM     30  O   UNL     1      12.166 -11.197   0.000  0.00  0.00    +0.000 OA
ATOM     31  O   UNL     1      10.083 -11.968   0.000  0.00  0.00    +0.000 OA
ATOM     32  C   UNL     1       9.945 -13.032   0.000  0.00  0.00    +0.000 C 
ATOM     33  C   UNL     1      12.166  -9.791   0.000  0.00  0.00    +0.000 C 
ATOM     34  O   UNL     1      12.582 -10.512   0.000  0.00  0.00    +0.000 OA
ATOM     35  O   UNL     1      12.582  -9.069   0.000  0.00  0.00    +0.000 OA
ATOM     36  C   UNL     1      13.291  -6.916   0.000  0.00  0.00    +0.000 C 
ATOM     37  O   UNL     1      14.722  -7.752   0.000  0.00  0.00    +0.000 OA
ATOM     38  O   UNL     1      15.408  -8.897   0.000  0.00  0.00    +0.000 OA
ENDROOT
BRANCH   1  39
ATOM     39  C   UNL     1      11.874  -7.749   0.000  0.00  0.00    +0.000 C 
ATOM     40  C   UNL     1      11.874  -6.916   0.000  0.00  0.00    +0.000 C 
ATOM     41  C   UNL     1      11.166  -8.166   0.000  0.00  0.00    +0.000 C 
BRANCH  40  42
ATOM     42  C   UNL     1      11.166  -6.500   0.000  0.00  0.00    +0.000 C 
ATOM     43  C   UNL     1      11.166  -5.666   0.000  0.00  0.00    +0.000 C 
ATOM     44  C   UNL     1      10.416  -5.250   0.000  0.00  0.00    +0.000 C 
ATOM     45  C   UNL     1       9.708  -5.666   0.000  0.00  0.00    +0.000 C 
ATOM     46  C   UNL     1       9.708  -6.500   0.000  0.00  0.00    +0.000 C 
ATOM     47  C   UNL     1      10.416  -6.916   0.000  0.00  0.00    +0.000 C 
ATOM     48  O   UNL     1       8.999  -5.250   0.000  0.00  0.00    +0.000 OA
BRANCH  46  49
ATOM     49  O   UNL     1       8.999  -6.916   0.000  0.00  0.00    +0.000 OA
ATOM     50  C   UNL     1       8.291  -6.500   0.000  0.00  0.00    +0.000 C 
ENDBRANCH  46  49
ENDBRANCH  40  42
ENDBRANCH   1  39
BRANCH  16  51
ATOM     51  O   UNL     1      11.957 -15.040   0.000  0.00  0.00    +0.000 OA
ATOM     52  C   UNL     1      11.374 -15.624   0.000  0.00  0.00    +0.000 C 
ENDBRANCH  16  51
BRANCH  14  53
ATOM     53  O   UNL     1      13.332 -14.666   0.000  0.00  0.00    +0.000 OA
ATOM     54  C   UNL     1      14.124 -14.916   0.000  0.00  0.00    +0.000 C 
ENDBRANCH  14  53
BRANCH   6  55
ATOM     55  C   UNL     1      15.998 -10.151   0.000  0.00  0.00    +0.000 C 
BRANCH  55  56
ATOM     56  C   UNL     1      16.432  -9.454   0.000  0.00  0.00    +0.000 C 
ATOM     57  C   UNL     1      17.248  -9.439   0.000  0.00  0.00    +0.000 C 
ENDBRANCH  55  56
ENDBRANCH   6  55
TORSDOF 7
