REMARK  Name = 
REMARK  2 active torsions:
REMARK  status: ('A' for Active; 'I' for Inactive)
REMARK    1  A    between atoms: C_5  and  N_11
REMARK    2  A    between atoms: C_7  and  N_8
REMARK                            x       y       z     vdW  Elec       q    Type
REMARK                         _______ _______ _______ _____ _____    ______ ____
ROOT
ATOM      1  O   UNL     1       2.143   1.238   0.000  0.00  0.00    +0.000 OA
ATOM      2  C   UNL     1       1.429   0.825   0.000  0.00  0.00    +0.000 A 
ATOM      3  C   UNL     1       1.429   0.000   0.000  0.00  0.00    +0.000 A 
ATOM      4  C   UNL     1       0.715  -0.412   0.000  0.00  0.00    +0.000 A 
ATOM      5  C   UNL     1       0.000   0.000   0.000  0.00  0.00    +0.000 A 
ATOM      6  C   UNL     1       0.000   0.825   0.000  0.00  0.00    +0.000 A 
ATOM      7  C   UNL     1       0.715   1.238   0.000  0.00  0.00    +0.000 A 
ENDROOT
BRANCH   7   8
ATOM      8  N   UNL     1       0.715   2.062   0.000  0.00  0.00    +0.000 N 
ATOM      9  O   UNL     1       1.429   2.475   0.000  0.00  0.00    +0.000 OA
ATOM     10  O   UNL     1       0.000   2.475   0.000  0.00  0.00    +0.000 OA
ENDBRANCH   7   8
BRANCH   5  11
ATOM     11  N   UNL     1      -0.715  -0.412   0.000  0.00  0.00    +0.000 N 
ATOM     12  O   UNL     1      -0.715  -1.238   0.000  0.00  0.00    +0.000 OA
ATOM     13  O   UNL     1      -1.429   0.000   0.000  0.00  0.00    +0.000 OA
ENDBRANCH   5  11
TORSDOF 2
