REMARK  Name = 
REMARK  16 active torsions:
REMARK  status: ('A' for Active; 'I' for Inactive)
REMARK    1  A    between atoms: O_2  and  C_3
REMARK    2  A    between atoms: C_5  and  C_13
REMARK    3  A    between atoms: C_7  and  O_8
REMARK    4  A    between atoms: C_10  and  O_11
REMARK    5  A    between atoms: C_13  and  C_16
REMARK    6  A    between atoms: C_23  and  C_24
REMARK    7  A    between atoms: C_24  and  O_26
REMARK    8  A    between atoms: O_26  and  C_27
REMARK    9  A    between atoms: C_27  and  C_28
REMARK   10  A    between atoms: C_27  and  C_37
REMARK   11  A    between atoms: C_28  and  C_29
REMARK   12  A    between atoms: C_29  and  C_30
REMARK   13  A    between atoms: C_30  and  C_31
REMARK   14  A    between atoms: C_37  and  C_38
REMARK   15  A    between atoms: C_38  and  C_39
REMARK   16  A    between atoms: C_39  and  C_40
REMARK                            x       y       z     vdW  Elec       q    Type
REMARK                         _______ _______ _______ _____ _____    ______ ____
ROOT
ATOM      1  C   UNL     1       6.020  -7.289   0.000  0.00  0.00    +0.000 C 
ATOM      2  O   UNL     1       5.750  -6.509   0.000  0.00  0.00    +0.000 OA
ATOM      3  N   UNL     1       5.480  -7.912   0.000  0.00  0.00    +0.000 N 
ATOM      4  C   UNL     1       5.750  -8.692   0.000  0.00  0.00    +0.000 C 
ATOM      5  C   UNL     1       5.210  -9.316   0.000  0.00  0.00    +0.000 C 
ATOM      6  C   UNL     1       4.399  -9.160   0.000  0.00  0.00    +0.000 C 
ATOM      7  C   UNL     1       4.129  -8.380   0.000  0.00  0.00    +0.000 C 
ATOM      8  C   UNL     1       4.670  -7.756   0.000  0.00  0.00    +0.000 C 
ENDROOT
BRANCH   1   9
ATOM      9  C   UNL     1       6.830  -7.445   0.000  0.00  0.00    +0.000 C 
ATOM     10  F   UNL     1       6.986  -6.634   0.000  0.00  0.00    +0.000 F 
ATOM     11  F   UNL     1       6.674  -8.255   0.000  0.00  0.00    +0.000 F 
BRANCH   9  14
ATOM     12  C   UNL     1       8.720  -8.536   0.000  0.00  0.00    +0.000 A 
ATOM     13  C   UNL     1       7.910  -8.380   0.000  0.00  0.00    +0.000 A 
ATOM     14  C   UNL     1       7.640  -7.601   0.000  0.00  0.00    +0.000 A 
ATOM     15  C   UNL     1       8.180  -6.977   0.000  0.00  0.00    +0.000 A 
ATOM     16  C   UNL     1       8.990  -7.133   0.000  0.00  0.00    +0.000 A 
ATOM     17  C   UNL     1       9.260  -7.912   0.000  0.00  0.00    +0.000 A 
BRANCH  17  18
ATOM     18  O   UNL     1      10.070  -8.068   0.000  0.00  0.00    +0.000 OA
ATOM     19  C   UNL     1      10.611  -7.445   0.000  0.00  0.00    +0.000 C 
ENDBRANCH  17  18
BRANCH  16  20
ATOM     20  O   UNL     1       9.530  -6.509   0.000  0.00  0.00    +0.000 OA
ATOM     21  C   UNL     1      10.340  -6.665   0.000  0.00  0.00    +0.000 C 
ENDBRANCH  16  20
BRANCH  12  23
ATOM     22  C   UNL     1       9.800  -9.471   0.000  0.00  0.00    +0.000 C 
ATOM     23  O   UNL     1       8.990  -9.316   0.000  0.00  0.00    +0.000 OA
ENDBRANCH  12  23
ENDBRANCH   9  14
ENDBRANCH   1   9
BRANCH   8  24
ATOM     24  C   UNL     1       4.399  -6.977   0.000  0.00  0.00    +0.000 C 
ATOM     25  O   UNL     1       4.939  -6.353   0.000  0.00  0.00    +0.000 OA
BRANCH  24  26
ATOM     26  O   UNL     1       3.589  -6.821   0.000  0.00  0.00    +0.000 OA
BRANCH  26  27
ATOM     27  C   UNL     1       3.319  -6.041   0.000  0.00  0.00    +0.000 C 
BRANCH  27  28
ATOM     28  C   UNL     1       2.509  -5.886   0.000  0.00  0.00    +0.000 C 
BRANCH  28  29
ATOM     29  C   UNL     1       2.239  -5.106   0.000  0.00  0.00    +0.000 C 
BRANCH  29  30
ATOM     30  C   UNL     1       1.429  -4.950   0.000  0.00  0.00    +0.000 C 
BRANCH  30  31
ATOM     31  C   UNL     1       1.159  -4.170   0.000  0.00  0.00    +0.000 A 
ATOM     32  C   UNL     1       0.349  -4.014   0.000  0.00  0.00    +0.000 A 
ATOM     33  C   UNL     1       0.079  -3.235   0.000  0.00  0.00    +0.000 A 
ATOM     34  C   UNL     1       0.619  -2.611   0.000  0.00  0.00    +0.000 A 
ATOM     35  C   UNL     1       1.429  -2.767   0.000  0.00  0.00    +0.000 A 
ATOM     36  C   UNL     1       1.699  -3.547   0.000  0.00  0.00    +0.000 A 
ENDBRANCH  30  31
ENDBRANCH  29  30
ENDBRANCH  28  29
ENDBRANCH  27  28
BRANCH  27  37
ATOM     37  C   UNL     1       3.859  -5.418   0.000  0.00  0.00    +0.000 C 
BRANCH  37  38
ATOM     38  C   UNL     1       4.670  -5.574   0.000  0.00  0.00    +0.000 C 
BRANCH  38  39
ATOM     39  C   UNL     1       5.210  -4.950   0.000  0.00  0.00    +0.000 C 
BRANCH  39  40
ATOM     40  C   UNL     1       6.020  -5.106   0.000  0.00  0.00    +0.000 A 
ATOM     41  C   UNL     1       6.560  -4.482   0.000  0.00  0.00    +0.000 A 
ATOM     42  N   UNL     1       7.370  -4.638   0.000  0.00  0.00    +0.000 NA
ATOM     43  C   UNL     1       7.640  -5.418   0.000  0.00  0.00    +0.000 A 
ATOM     44  C   UNL     1       7.100  -6.041   0.000  0.00  0.00    +0.000 A 
ATOM     45  C   UNL     1       6.290  -5.886   0.000  0.00  0.00    +0.000 A 
ENDBRANCH  39  40
ENDBRANCH  38  39
ENDBRANCH  37  38
ENDBRANCH  27  37
ENDBRANCH  26  27
ENDBRANCH  24  26
ENDBRANCH   8  24
TORSDOF 16
