REMARK  Name = 
REMARK  2 active torsions:
REMARK  status: ('A' for Active; 'I' for Inactive)
REMARK    1  A    between atoms: C5*_3  and  C4*_8
REMARK    2  A    between atoms: C1*_9  and  N_15
REMARK                            x       y       z     vdW  Elec       q    Type
REMARK                         _______ _______ _______ _____ _____    ______ ____
ROOT
ATOM      1  C   UNL     1       2.638   3.173   0.000  0.00  0.00    +0.000 C 
ATOM      2  C   UNL     1       3.352   1.110   0.000  0.00  0.00    +0.000 A 
ATOM      3  C   UNL     1       0.654   1.523   0.000  0.00  0.00    +0.000 A 
ATOM      4  C   UNL     1       2.638   2.348   0.000  0.00  0.00    +0.000 A 
ATOM      5  C   UNL     1       1.923   1.935   0.000  0.00  0.00    +0.000 A 
ATOM      6  C   UNL     1       1.923   1.110   0.000  0.00  0.00    +0.000 A 
ATOM      7  N   UNL     1       3.352   1.935   0.000  0.00  0.00    +0.000 NA
ATOM      8  N   UNL     1       2.638   0.698   0.000  0.00  0.00    +0.000 NA
ATOM      9  N   UNL     1       1.139   2.190   0.000  0.00  0.00    +0.000 NA
ATOM     10  N   UNL     1       1.139   0.856   0.000  0.00  0.00    +0.000 N 
ENDROOT
BRANCH  10  14
ATOM     11  C2* UNL     1       0.099  -0.184   0.000  0.00  0.00    +0.000 C 
ATOM     12  C3* UNL     1       0.099  -1.009   0.000  0.00  0.00    +0.000 C 
ATOM     13  C4* UNL     1       0.884  -1.264   0.000  0.00  0.00    +0.000 C 
ATOM     14  C1* UNL     1       0.884   0.071   0.000  0.00  0.00    +0.000 C 
ATOM     15  O3* UNL     1      -0.568  -1.494   0.000  0.00  0.00    +0.000 OA
ATOM     16  O4* UNL     1       1.369  -0.597   0.000  0.00  0.00    +0.000 OA
BRANCH  13  17
ATOM     17  C5* UNL     1       1.139  -2.049   0.000  0.00  0.00    +0.000 C 
ATOM     18  O5* UNL     1       1.946  -2.220   0.000  0.00  0.00    +0.000 OA
ENDBRANCH  13  17
ENDBRANCH  10  14
TORSDOF 2
