REMARK  Name = 
REMARK  7 active torsions:
REMARK  status: ('A' for Active; 'I' for Inactive)
REMARK    1  A    between atoms: C_5  and  C_6
REMARK    2  A    between atoms: C_5  and  C_11
REMARK    3  A    between atoms: C_6  and  C_13
REMARK    4  A    between atoms: C_7  and  C_9
REMARK    5  A    between atoms: C_8  and  C_14
REMARK    6  A    between atoms: C_8  and  N_19
REMARK    7  A    between atoms: C_11  and  C_15
REMARK                            x       y       z     vdW  Elec       q    Type
REMARK                         _______ _______ _______ _____ _____    ______ ____
ROOT
ATOM      1  C   UNL     1      -2.236   0.398   0.000  0.00  0.00    +0.000 C 
ATOM      2  C   UNL     1      -1.752   1.065   0.000  0.00  0.00    +0.000 C 
ATOM      3  C   UNL     1      -1.339   2.335   0.000  0.00  0.00    +0.000 C 
ATOM      4  C   UNL     1      -0.926   1.065   0.000  0.00  0.00    +0.000 C 
ATOM      5  N   UNL     1      -2.006   1.850   0.000  0.00  0.00    +0.000 NA
ATOM      6  N   UNL     1      -0.672   1.850   0.000  0.00  0.00    +0.000 N 
ATOM      7  O   UNL     1      -0.442   0.398   0.000  0.00  0.00    +0.000 OA
ENDROOT
BRANCH   1  12
ATOM      8  C   UNL     1      -2.386  -1.024   0.000  0.00  0.00    +0.000 A 
ATOM      9  C   UNL     1      -1.080  -0.442   0.000  0.00  0.00    +0.000 A 
ATOM     10  C   UNL     1      -2.050  -1.777   0.000  0.00  0.00    +0.000 A 
ATOM     11  C   UNL     1      -0.745  -1.196   0.000  0.00  0.00    +0.000 A 
ATOM     12  C   UNL     1      -1.901  -0.356   0.000  0.00  0.00    +0.000 A 
ATOM     13  C   UNL     1      -1.230  -1.863   0.000  0.00  0.00    +0.000 A 
ATOM     14  O   UNL     1      -0.894  -2.617   0.000  0.00  0.00    +0.000 OA
ENDBRANCH   1  12
BRANCH   3  15
ATOM     15  C   UNL     1      -1.339   3.160   0.000  0.00  0.00    +0.000 C 
ATOM     16  N   UNL     1      -0.625   3.572   0.000  0.00  0.00    +0.000 NA
ATOM     17  H   UNL     1       0.090   3.160   0.000  0.00  0.00    +0.000 HD
BRANCH  15  18
ATOM     18  C   UNL     1      -2.054   3.572   0.000  0.00  0.00    +0.000 C 
BRANCH  18  19
ATOM     19  C   UNL     1      -2.768   3.160   0.000  0.00  0.00    +0.000 C 
BRANCH  19  20
ATOM     20  C   UNL     1      -3.482   3.572   0.000  0.00  0.00    +0.000 C 
ATOM     21  O   UNL     1      -4.197   3.160   0.000  0.00  0.00    +0.000 OA
ATOM     22  O   UNL     1      -3.482   4.397   0.000  0.00  0.00    +0.000 OA
ENDBRANCH  19  20
ENDBRANCH  18  19
ENDBRANCH  15  18
ENDBRANCH   3  15
BRANCH   6  23
ATOM     23  C   UNL     1       0.113   2.105   0.000  0.00  0.00    +0.000 C 
BRANCH  23  24
ATOM     24  C   UNL     1       0.726   1.553   0.000  0.00  0.00    +0.000 C 
ATOM     25  O   UNL     1       1.511   1.808   0.000  0.00  0.00    +0.000 OA
ATOM     26  O   UNL     1       0.555   0.746   0.000  0.00  0.00    +0.000 OA
ENDBRANCH  23  24
ENDBRANCH   6  23
TORSDOF 7
