REMARK  Name = 
REMARK  4 active torsions:
REMARK  status: ('A' for Active; 'I' for Inactive)
REMARK    1  A    between atoms: P_3  and  O_6
REMARK    2  A    between atoms: O_6  and  P_7
REMARK    3  A    between atoms: P_7  and  O_9
REMARK    4  A    between atoms: O_9  and  P_10
REMARK                            x       y       z     vdW  Elec       q    Type
REMARK                         _______ _______ _______ _____ _____    ______ ____
ROOT
ATOM      1 NA   UNL     1      -0.866  -2.887   0.000  0.00  0.00    +0.000 Na
ENDROOT
TORSDOF 0
REMARK  Name = 
REMARK  4 active torsions:
REMARK  status: ('A' for Active; 'I' for Inactive)
REMARK    1  A    between atoms: P_3  and  O_6
REMARK    2  A    between atoms: O_6  and  P_7
REMARK    3  A    between atoms: P_7  and  O_9
REMARK    4  A    between atoms: O_9  and  P_10
REMARK                            x       y       z     vdW  Elec       q    Type
REMARK                         _______ _______ _______ _____ _____    ______ ____
ROOT
ATOM      1  P   UNL     1       1.361   2.227   0.000  0.00  0.00    +0.000 P 
ATOM      2  O   UNL     1       1.361   1.402   0.000  0.00  0.00    +0.000 OA
ATOM      3  O   UNL     1       1.361   3.052   0.000  0.00  0.00    +0.000 OA
ENDROOT
BRANCH   1   4
ATOM      4  O   UNL     1       0.537   2.227   0.000  0.00  0.00    +0.000 OA
BRANCH   4   6
ATOM      5  O   UNL     1      -0.288   1.402   0.000  0.00  0.00    +0.000 OA
ATOM      6  P   UNL     1      -0.288   2.227   0.000  0.00  0.00    +0.000 P 
ATOM      7  O   UNL     1      -0.288   3.052   0.000  0.00  0.00    +0.000 OA
ATOM      8  O   UNL     1      -1.113   2.227   0.000  0.00  0.00    +0.000 OA
ENDBRANCH   4   6
ENDBRANCH   1   4
BRANCH   1   9
ATOM      9  O   UNL     1       2.186   2.227   0.000  0.00  0.00    +0.000 OA
BRANCH   9  10
ATOM     10  P   UNL     1       3.011   2.227   0.000  0.00  0.00    +0.000 P 
ATOM     11  O   UNL     1       3.011   3.052   0.000  0.00  0.00    +0.000 OA
ATOM     12  O   UNL     1       3.011   1.402   0.000  0.00  0.00    +0.000 OA
ATOM     13  O   UNL     1       3.836   2.227   0.000  0.00  0.00    +0.000 OA
ENDBRANCH   9  10
ENDBRANCH   1   9
TORSDOF 4
REMARK  Name = 
REMARK  4 active torsions:
REMARK  status: ('A' for Active; 'I' for Inactive)
REMARK    1  A    between atoms: P_3  and  O_6
REMARK    2  A    between atoms: O_6  and  P_7
REMARK    3  A    between atoms: P_7  and  O_9
REMARK    4  A    between atoms: O_9  and  P_10
REMARK                            x       y       z     vdW  Elec       q    Type
REMARK                         _______ _______ _______ _____ _____    ______ ____
ROOT
ATOM      1 NA   UNL     1       0.784  -3.052   0.000  0.00  0.00    +0.000 Na
ENDROOT
TORSDOF 0
REMARK  Name = 
REMARK  4 active torsions:
REMARK  status: ('A' for Active; 'I' for Inactive)
REMARK    1  A    between atoms: P_3  and  O_6
REMARK    2  A    between atoms: O_6  and  P_7
REMARK    3  A    between atoms: P_7  and  O_9
REMARK    4  A    between atoms: O_9  and  P_10
REMARK                            x       y       z     vdW  Elec       q    Type
REMARK                         _______ _______ _______ _____ _____    ______ ____
ROOT
ATOM      1 NA   UNL     1       2.763  -2.970   0.000  0.00  0.00    +0.000 Na
ENDROOT
TORSDOF 0
REMARK  Name = 
REMARK  4 active torsions:
REMARK  status: ('A' for Active; 'I' for Inactive)
REMARK    1  A    between atoms: P_3  and  O_6
REMARK    2  A    between atoms: O_6  and  P_7
REMARK    3  A    between atoms: P_7  and  O_9
REMARK    4  A    between atoms: O_9  and  P_10
REMARK                            x       y       z     vdW  Elec       q    Type
REMARK                         _______ _______ _______ _____ _____    ______ ____
ROOT
ATOM      1 NA   UNL     1      -2.103  -2.887   0.000  0.00  0.00    +0.000 Na
ENDROOT
TORSDOF 0
REMARK  Name = 
REMARK  4 active torsions:
REMARK  status: ('A' for Active; 'I' for Inactive)
REMARK    1  A    between atoms: P_3  and  O_6
REMARK    2  A    between atoms: O_6  and  P_7
REMARK    3  A    between atoms: P_7  and  O_9
REMARK    4  A    between atoms: O_9  and  P_10
REMARK                            x       y       z     vdW  Elec       q    Type
REMARK                         _______ _______ _______ _____ _____    ______ ____
ROOT
ATOM      1 NA   UNL     1      -3.836  -2.722   0.000  0.00  0.00    +0.000 Na
ENDROOT
TORSDOF 0
