REMARK  Name = 
REMARK  14 active torsions:
REMARK  status: ('A' for Active; 'I' for Inactive)
REMARK    1  A    between atoms: O_6  and  C_27
REMARK    2  A    between atoms: O_6  and  C_28
REMARK    3  A    between atoms: O_7  and  C_29
REMARK    4  A    between atoms: O_7  and  C_34
REMARK    5  A    between atoms: N_8  and  C_15
REMARK    6  A    between atoms: N_9  and  C_21
REMARK    7  A    between atoms: N_9  and  C_26
REMARK    8  A    between atoms: C_15  and  C_22
REMARK    9  A    between atoms: C_16  and  C_19
REMARK   10  A    between atoms: C_17  and  C_23
REMARK   11  A    between atoms: C_19  and  C_21
REMARK   12  A    between atoms: C_22  and  C_25
REMARK   13  A    between atoms: C_26  and  C_27
REMARK   14  A    between atoms: C_34  and  C_35
REMARK                            x       y       z     vdW  Elec       q    Type
REMARK                         _______ _______ _______ _____ _____    ______ ____
ROOT
ATOM      1  C   UNL     1       5.222   0.684   0.000  0.00  0.00    +0.000 C 
ATOM      2  C   UNL     1       5.937   0.272   0.000  0.00  0.00    +0.000 C 
ENDROOT
BRANCH   1   3
ATOM      3  N   UNL     1       4.508   0.272   0.000  0.00  0.00    +0.000 NA
BRANCH   3   4
ATOM      4  C   UNL     1       4.508  -0.553   0.000  0.00  0.00    +0.000 C 
BRANCH   4   5
ATOM      5  C   UNL     1       3.793  -0.966   0.000  0.00  0.00    +0.000 C 
BRANCH   5   6
ATOM      6  O   UNL     1       3.793  -1.791   0.000  0.00  0.00    +0.000 OA
BRANCH   6   7
ATOM      7  C   UNL     1       3.079  -2.204   0.000  0.00  0.00    +0.000 A 
ATOM      8  C   UNL     1       3.079  -3.029   0.000  0.00  0.00    +0.000 A 
ATOM      9  C   UNL     1       2.365  -1.791   0.000  0.00  0.00    +0.000 A 
ATOM     10  C   UNL     1       2.365  -3.441   0.000  0.00  0.00    +0.000 A 
ATOM     11  C   UNL     1       1.650  -2.204   0.000  0.00  0.00    +0.000 A 
ATOM     12  C   UNL     1       1.650  -3.029   0.000  0.00  0.00    +0.000 A 
BRANCH   8  13
ATOM     13  O   UNL     1       3.793  -3.441   0.000  0.00  0.00    +0.000 OA
BRANCH  13  14
ATOM     14  C   UNL     1       3.793  -4.266   0.000  0.00  0.00    +0.000 C 
BRANCH  14  18
ATOM     15  F   UNL     1       4.920  -3.964   0.000  0.00  0.00    +0.000 F 
ATOM     16  F   UNL     1       4.096  -5.393   0.000  0.00  0.00    +0.000 F 
ATOM     17  F   UNL     1       5.222  -5.091   0.000  0.00  0.00    +0.000 F 
ATOM     18  C   UNL     1       4.508  -4.678   0.000  0.00  0.00    +0.000 C 
ENDBRANCH  14  18
ENDBRANCH  13  14
ENDBRANCH   8  13
ENDBRANCH   6   7
ENDBRANCH   5   6
ENDBRANCH   4   5
ENDBRANCH   3   4
ENDBRANCH   1   3
BRANCH   1  19
ATOM     19  C   UNL     1       5.222   1.509   0.000  0.00  0.00    +0.000 C 
BRANCH  19  25
ATOM     20  N   UNL     1       8.147   2.998   0.000  0.00  0.00    +0.000 N 
ATOM     21  C   UNL     1       7.366   2.747   0.000  0.00  0.00    +0.000 A 
ATOM     22  C   UNL     1       8.628   2.334   0.000  0.00  0.00    +0.000 C 
ATOM     23  C   UNL     1       7.366   1.922   0.000  0.00  0.00    +0.000 A 
ATOM     24  C   UNL     1       8.147   1.670   0.000  0.00  0.00    +0.000 C 
ATOM     25  C   UNL     1       5.937   1.922   0.000  0.00  0.00    +0.000 A 
ATOM     26  C   UNL     1       6.652   3.159   0.000  0.00  0.00    +0.000 A 
ATOM     27  C   UNL     1       6.652   1.509   0.000  0.00  0.00    +0.000 A 
ATOM     28  C   UNL     1       5.937   2.747   0.000  0.00  0.00    +0.000 A 
BRANCH  26  31
ATOM     29  O   UNL     1       7.366   4.397   0.000  0.00  0.00    +0.000 OA
ATOM     30  N   UNL     1       5.937   4.397   0.000  0.00  0.00    +0.000 NA
ATOM     31  C   UNL     1       6.652   3.984   0.000  0.00  0.00    +0.000 C 
ENDBRANCH  26  31
BRANCH  20  32
ATOM     32  C   UNL     1       8.403   3.782   0.000  0.00  0.00    +0.000 C 
BRANCH  32  33
ATOM     33  C   UNL     1       9.210   3.952   0.000  0.00  0.00    +0.000 C 
BRANCH  33  35
ATOM     34  O   UNL     1      10.274   4.907   0.000  0.00  0.00    +0.000 OA
ATOM     35  C   UNL     1       9.466   4.737   0.000  0.00  0.00    +0.000 C 
ENDBRANCH  33  35
ENDBRANCH  32  33
ENDBRANCH  20  32
ENDBRANCH  19  25
ENDBRANCH   1  19
TORSDOF 14
