REMARK  Name = 
REMARK  2 active torsions:
REMARK  status: ('A' for Active; 'I' for Inactive)
REMARK    1  A    between atoms: C_2  and  C_4
REMARK    2  A    between atoms: C_8  and  C_9
REMARK                            x       y       z     vdW  Elec       q    Type
REMARK                         _______ _______ _______ _____ _____    ______ ____
ROOT
ATOM      1  C   UNL     1       1.429   5.529   0.000  0.00  0.00    +0.000 C 
ATOM      2  C   UNL     1       0.715   5.941   0.000  0.00  0.00    +0.000 C 
ATOM      3  C   UNL     1       0.000   5.529   0.000  0.00  0.00    +0.000 C 
ATOM      4  C   UNL     1       0.000   4.704   0.000  0.00  0.00    +0.000 C 
ATOM      5  C   UNL     1       0.715   4.291   0.000  0.00  0.00    +0.000 C 
ATOM      6  O   UNL     1       0.715   6.766   0.000  0.00  0.00    +0.000 OA
ATOM      7  O   UNL     1      -0.715   5.941   0.000  0.00  0.00    +0.000 OA
ATOM      8  O   UNL     1      -0.715   4.291   0.000  0.00  0.00    +0.000 OA
ATOM      9  O   UNL     1       1.429   4.704   0.000  0.00  0.00    +0.000 OA
ENDROOT
BRANCH   5  12
ATOM     10  C   UNL     1      -0.183   1.529   0.000  0.00  0.00    +0.000 C 
ATOM     11  C   UNL     1       0.302   2.196   0.000  0.00  0.00    +0.000 A 
ATOM     12  C   UNL     1       0.715   3.466   0.000  0.00  0.00    +0.000 A 
ATOM     13  N   UNL     1       1.127   2.196   0.000  0.00  0.00    +0.000 NA
ATOM     14  N   UNL     1       1.382   2.981   0.000  0.00  0.00    +0.000 NA
ATOM     15  O   UNL     1       0.047   2.981   0.000  0.00  0.00    +0.000 OA
ENDBRANCH   5  12
BRANCH   1  16
ATOM     16  C   UNL     1       2.143   5.941   0.000  0.00  0.00    +0.000 C 
ATOM     17  O   UNL     1       2.143   6.766   0.000  0.00  0.00    +0.000 OA
ENDBRANCH   1  16
TORSDOF 2
