REMARK  Name = 
REMARK  4 active torsions:
REMARK  status: ('A' for Active; 'I' for Inactive)
REMARK    1  A    between atoms: C_5  and  C_9
REMARK    2  A    between atoms: C_5  and  O_20
REMARK    3  A    between atoms: C_12  and  N_14
REMARK    4  A    between atoms: O_20  and  P_22
REMARK                            x       y       z     vdW  Elec       q    Type
REMARK                         _______ _______ _______ _____ _____    ______ ____
ROOT
ATOM      1  C   UNL     1       0.884   4.310   0.000  0.00  0.00    +0.000 C 
ATOM      2  C   UNL     1       0.099   4.055   0.000  0.00  0.00    +0.000 C 
ATOM      3  C   UNL     1       0.099   3.230   0.000  0.00  0.00    +0.000 C 
ATOM      4  C   UNL     1       0.884   2.975   0.000  0.00  0.00    +0.000 C 
ATOM      5  O   UNL     1      -0.568   4.540   0.000  0.00  0.00    +0.000 OA
ATOM      6  O   UNL     1      -0.568   2.745   0.000  0.00  0.00    +0.000 OA
ATOM      7  O   UNL     1       1.369   3.642   0.000  0.00  0.00    +0.000 OA
ENDROOT
BRANCH   4  16
ATOM      8  C   UNL     1       3.352   1.110   0.000  0.00  0.00    +0.000 A 
ATOM      9  C   UNL     1       3.352   1.935   0.000  0.00  0.00    +0.000 A 
ATOM     10  C   UNL     1       2.638   0.698   0.000  0.00  0.00    +0.000 A 
ATOM     11  C   UNL     1       2.638   2.348   0.000  0.00  0.00    +0.000 A 
ATOM     12  C   UNL     1       0.654   1.523   0.000  0.00  0.00    +0.000 A 
ATOM     13  C   UNL     1       1.923   1.110   0.000  0.00  0.00    +0.000 A 
ATOM     14  C   UNL     1       1.923   1.935   0.000  0.00  0.00    +0.000 A 
ATOM     15  N   UNL     1       1.139   0.856   0.000  0.00  0.00    +0.000 NA
ATOM     16  N   UNL     1       1.139   2.190   0.000  0.00  0.00    +0.000 N 
ENDBRANCH   4  16
BRANCH   1  17
ATOM     17  C   UNL     1       1.139   5.095   0.000  0.00  0.00    +0.000 C 
BRANCH  17  18
ATOM     18  O   UNL     1       1.946   5.266   0.000  0.00  0.00    +0.000 OA
BRANCH  18  22
ATOM     19  O   UNL     1       2.456   6.835   0.000  0.00  0.00    +0.000 OA
ATOM     20  O   UNL     1       2.985   5.796   0.000  0.00  0.00    +0.000 OA
ATOM     21  O   UNL     1       1.416   6.306   0.000  0.00  0.00    +0.000 OA
ATOM     22  P   UNL     1       2.201   6.051   0.000  0.00  0.00    +0.000 P 
ENDBRANCH  18  22
ENDBRANCH  17  18
ENDBRANCH   1  17
TORSDOF 4
