REMARK  Name = 
REMARK  6 active torsions:
REMARK  status: ('A' for Active; 'I' for Inactive)
REMARK    1  A    between atoms: N_1  and  C_8
REMARK    2  A    between atoms: N_1  and  C_9
REMARK    3  A    between atoms: C_3  and  O_18
REMARK    4  A    between atoms: C_6  and  C_8
REMARK    5  A    between atoms: C_9  and  C_10
REMARK    6  A    between atoms: C_10  and  N_15
REMARK                            x       y       z     vdW  Elec       q    Type
REMARK                         _______ _______ _______ _____ _____    ______ ____
ROOT
ATOM      1  N   UNL     1       0.000   0.000   0.000  0.00  0.00    +0.000 N 
ATOM      2  C   UNL     1      -0.717   0.408   0.000  0.00  0.00    +0.000 A 
ATOM      3  C   UNL     1      -1.439   1.641   0.000  0.00  0.00    +0.000 A 
ATOM      4  C   UNL     1      -2.151   1.224   0.000  0.00  0.00    +0.000 A 
ATOM      5  C   UNL     1      -2.146   0.399   0.000  0.00  0.00    +0.000 A 
ATOM      6  N   UNL     1      -1.429  -0.009   0.000  0.00  0.00    +0.000 NA
ATOM      7  C   UNL     1      -0.722   1.233   0.000  0.00  0.00    +0.000 A 
ENDROOT
BRANCH   1   8
ATOM      8  C   UNL     1       0.005  -0.825   0.000  0.00  0.00    +0.000 C 
BRANCH   8  13
ATOM      9  C   UNL     1       1.444  -2.466   0.000  0.00  0.00    +0.000 A 
ATOM     10  C   UNL     1       2.156  -2.049   0.000  0.00  0.00    +0.000 A 
ATOM     11  C   UNL     1       2.151  -1.224   0.000  0.00  0.00    +0.000 A 
ATOM     12  C   UNL     1       1.434  -0.816   0.000  0.00  0.00    +0.000 A 
ATOM     13  C   UNL     1       0.722  -1.233   0.000  0.00  0.00    +0.000 A 
ATOM     14  C   UNL     1       0.727  -2.058   0.000  0.00  0.00    +0.000 A 
BRANCH  10  15
ATOM     15  O   UNL     1       2.873  -2.457   0.000  0.00  0.00    +0.000 OA
ATOM     16  C   UNL     1       3.585  -2.040   0.000  0.00  0.00    +0.000 C 
ENDBRANCH  10  15
ENDBRANCH   8  13
ENDBRANCH   1   8
BRANCH   1  17
ATOM     17  C   UNL     1       0.712   0.417   0.000  0.00  0.00    +0.000 C 
BRANCH  17  18
ATOM     18  C   UNL     1       1.429   0.009   0.000  0.00  0.00    +0.000 C 
BRANCH  18  19
ATOM     19  N   UNL     1       2.141   0.426   0.000  0.00  0.00    +0.000 NA
ATOM     20  C   UNL     1       2.135   1.251   0.000  0.00  0.00    +0.000 C 
ATOM     21  C   UNL     1       2.858   0.018   0.000  0.00  0.00    +0.000 C 
ENDBRANCH  18  19
ENDBRANCH  17  18
ENDBRANCH   1  17
TORSDOF 6
