REMARK  Name = 
REMARK  3 active torsions:
REMARK  status: ('A' for Active; 'I' for Inactive)
REMARK    1  A    between atoms: N_2  and  C_3
REMARK    2  A    between atoms: N_2  and  C_5
REMARK    3  A    between atoms: N_2  and  C_7
REMARK                            x       y       z     vdW  Elec       q    Type
REMARK                         _______ _______ _______ _____ _____    ______ ____
ROOT
ATOM      1  C   UNL     1       1.650   1.429   0.000  0.00  0.00    +0.000 C 
ATOM      2  N   UNL     1       1.238   0.715   0.000  0.00  0.00    +0.000 N 
ENDROOT
BRANCH   2   3
ATOM      3  C   UNL     1       0.523   1.127   0.000  0.00  0.00    +0.000 C 
ATOM      4  O   UNL     1      -0.191   0.715   0.000  0.00  0.00    +0.000 OA
ENDBRANCH   2   3
BRANCH   2   5
ATOM      5  C   UNL     1       1.952   0.302   0.000  0.00  0.00    +0.000 C 
ATOM      6  O   UNL     1       2.666   0.715   0.000  0.00  0.00    +0.000 OA
ENDBRANCH   2   5
BRANCH   2   7
ATOM      7  C   UNL     1       0.825   0.000   0.000  0.00  0.00    +0.000 C 
ATOM      8  O   UNL     1       0.000   0.000   0.000  0.00  0.00    +0.000 OA
ENDBRANCH   2   7
TORSDOF 3
