REMARK  Name = 
REMARK  1 active torsions:
REMARK  status: ('A' for Active; 'I' for Inactive)
REMARK    1  A    between atoms: C_2  and  C_4
REMARK                            x       y       z     vdW  Elec       q    Type
REMARK                         _______ _______ _______ _____ _____    ______ ____
ROOT
ATOM      1  C   UNK     1       0.575   1.113   0.000  0.00  0.00    +0.000 A 
ATOM      2  C   UNK     1       1.094   0.472   0.000  0.00  0.00    +0.000 A 
ATOM      3  S   UNK     1       0.644  -0.220   0.000  0.00  0.00    +0.000 S 
ATOM      4  C   UNK     1      -0.152  -0.006   0.000  0.00  0.00    +0.000 A 
ATOM      5  N   UNK     1      -0.196   0.818   0.000  0.00  0.00    +0.000 NA
ENDROOT
BRANCH   1   7
ATOM      6  O   UNK     1       0.205   2.494   0.000  0.00  0.00    +0.000 OA
ATOM      7  C   UNK     1       0.788   1.910   0.000  0.00  0.00    +0.000 C 
ATOM      8  O   UNK     1       1.585   2.124   0.000  0.00  0.00    +0.000 OA
ENDBRANCH   1   7
TORSDOF 1
