REMARK  Name = 
REMARK  4 active torsions:
REMARK  status: ('A' for Active; 'I' for Inactive)
REMARK    1  A    between atoms: C_11  and  C_13
REMARK    2  A    between atoms: C_11  and  S_21
REMARK    3  A    between atoms: C_12  and  C_14
REMARK    4  A    between atoms: S_21  and  S_22
REMARK                            x       y       z     vdW  Elec       q    Type
REMARK                         _______ _______ _______ _____ _____    ______ ____
ROOT
ATOM      1  C   UNL     1       2.425   0.200   0.000  0.00  0.00    +0.000 C 
ATOM      2  C   UNL     1       1.532   0.849   0.000  0.00  0.00    +0.000 C 
ATOM      3  C   UNL     1       3.303   2.903   0.000  0.00  0.00    +0.000 C 
ATOM      4  C   UNL     1       2.199   2.903   0.000  0.00  0.00    +0.000 C 
ATOM      5  C   UNL     1       3.164   1.021   0.000  0.00  0.00    +0.000 C 
ATOM      6  C   UNL     1       3.419   1.805   0.000  0.00  0.00    +0.000 C 
ATOM      7  C   UNL     1       2.339   1.021   0.000  0.00  0.00    +0.000 C 
ATOM      8  C   UNL     1       2.751   2.290   0.000  0.00  0.00    +0.000 C 
ATOM      9  N   UNL     1       2.084   1.805   0.000  0.00  0.00    +0.000 NA
ATOM     10  O   UNL     1       1.299   2.060   0.000  0.00  0.00    +0.000 OA
ENDROOT
BRANCH   6  16
ATOM     11  C   UNL     1       5.772   2.570   0.000  0.00  0.00    +0.000 A 
ATOM     12  C   UNL     1       5.159   3.122   0.000  0.00  0.00    +0.000 A 
ATOM     13  C   UNL     1       5.601   1.763   0.000  0.00  0.00    +0.000 A 
ATOM     14  C   UNL     1       4.375   2.867   0.000  0.00  0.00    +0.000 A 
ATOM     15  C   UNL     1       4.816   1.508   0.000  0.00  0.00    +0.000 A 
ATOM     16  C   UNL     1       4.203   2.060   0.000  0.00  0.00    +0.000 A 
ENDBRANCH   6  16
BRANCH   5  17
ATOM     17  C   UNL     1       3.649   0.353   0.000  0.00  0.00    +0.000 C 
BRANCH  17  18
ATOM     18  S   UNL     1       3.313  -0.401   0.000  0.00  0.00    +0.000 S 
BRANCH  18  22
ATOM     19  C   UNL     1       4.283  -1.735   0.000  0.00  0.00    +0.000 C 
ATOM     20  O   UNL     1       4.465  -0.583   0.000  0.00  0.00    +0.000 OA
ATOM     21  O   UNL     1       3.131  -1.553   0.000  0.00  0.00    +0.000 OA
ATOM     22  S   UNL     1       3.798  -1.068   0.000  0.00  0.00    +0.000 S 
ENDBRANCH  18  22
ENDBRANCH  17  18
ENDBRANCH   5  17
TORSDOF 4
