REMARK  Name = 
REMARK  1 active torsions:
REMARK  status: ('A' for Active; 'I' for Inactive)
REMARK    1  A    between atoms: C_8  and  C_9
REMARK                            x       y       z     vdW  Elec       q    Type
REMARK                         _______ _______ _______ _____ _____    ______ ____
ROOT
ATOM      1  C   UNL     1       2.751   4.765   0.000  0.00  0.00    +0.000 A 
ATOM      2  C   UNL     1       2.037   4.353   0.000  0.00  0.00    +0.000 A 
ATOM      3  C   UNL     1       3.466   4.353   0.000  0.00  0.00    +0.000 A 
ATOM      4  C   UNL     1       2.037   3.528   0.000  0.00  0.00    +0.000 A 
ATOM      5  C   UNL     1       3.466   3.528   0.000  0.00  0.00    +0.000 A 
ATOM      6  C   UNL     1       2.751   3.115   0.000  0.00  0.00    +0.000 A 
ENDROOT
BRANCH   6   9
ATOM      7  C   UNL     1       3.419   1.805   0.000  0.00  0.00    +0.000 A 
ATOM      8  C   UNL     1       2.339   1.021   0.000  0.00  0.00    +0.000 A 
ATOM      9  C   UNL     1       2.751   2.290   0.000  0.00  0.00    +0.000 A 
ATOM     10  N   UNL     1       3.164   1.021   0.000  0.00  0.00    +0.000 NA
ATOM     11  N   UNL     1       2.084   1.805   0.000  0.00  0.00    +0.000 NA
ENDBRANCH   6   9
TORSDOF 1
