REMARK  Name = 
REMARK  10 active torsions:
REMARK  status: ('A' for Active; 'I' for Inactive)
REMARK    1  A    between atoms: C_2  and  O_3
REMARK    2  A    between atoms: N_5  and  C_6
REMARK    3  A    between atoms: C_6  and  C_7
REMARK    4  A    between atoms: C_13  and  C_14
REMARK    5  A    between atoms: C_14  and  C_15
REMARK    6  A    between atoms: C_15  and  C_16
REMARK    7  A    between atoms: C_16  and  C_17
REMARK    8  A    between atoms: C_17  and  C_18
REMARK    9  A    between atoms: C_18  and  C_19
REMARK   10  A    between atoms: C_19  and  C_20
REMARK                            x       y       z     vdW  Elec       q    Type
REMARK                         _______ _______ _______ _____ _____    ______ ____
ROOT
ATOM      1  N   UNL     1      -1.428   0.618   0.000  0.00  0.00    +0.000 NA
ATOM      2  O   UNL     1      -0.715   1.855   0.000  0.00  0.00    +0.000 OA
ATOM      3  C   UNL     1      -0.715   1.031   0.000  0.00  0.00    +0.000 C 
ENDROOT
BRANCH   3   4
ATOM      4  C   UNL     1      -0.000   0.618   0.000  0.00  0.00    +0.000 C 
BRANCH   4   5
ATOM      5  C   UNL     1       0.713   1.031   0.000  0.00  0.00    +0.000 C 
BRANCH   5   6
ATOM      6  C   UNL     1       1.428   0.618   0.000  0.00  0.00    +0.000 C 
BRANCH   6   7
ATOM      7  C   UNL     1       2.143   1.031   0.000  0.00  0.00    +0.000 C 
BRANCH   7   8
ATOM      8  C   UNL     1       2.856   0.618   0.000  0.00  0.00    +0.000 C 
BRANCH   8   9
ATOM      9  C   UNL     1       3.571   1.031   0.000  0.00  0.00    +0.000 C 
BRANCH   9  10
ATOM     10  C   UNL     1       4.285   0.618   0.000  0.00  0.00    +0.000 C 
ATOM     11  C   UNL     1       4.999   1.031   0.000  0.00  0.00    +0.000 C 
ENDBRANCH   9  10
ENDBRANCH   8   9
ENDBRANCH   7   8
ENDBRANCH   6   7
ENDBRANCH   5   6
ENDBRANCH   4   5
ENDBRANCH   3   4
BRANCH   1  12
ATOM     12  C   UNL     1      -2.143   1.031   0.000  0.00  0.00    +0.000 C 
BRANCH  12  15
ATOM     13  C   UNL     1      -2.857  -0.206   0.000  0.00  0.00    +0.000 A 
ATOM     14  C   UNL     1      -3.571  -0.618   0.000  0.00  0.00    +0.000 A 
ATOM     15  C   UNL     1      -2.857   0.618   0.000  0.00  0.00    +0.000 A 
ATOM     16  C   UNL     1      -3.571   1.031   0.000  0.00  0.00    +0.000 A 
ATOM     17  C   UNL     1      -4.285   0.618   0.000  0.00  0.00    +0.000 A 
ATOM     18  C   UNL     1      -4.285  -0.206   0.000  0.00  0.00    +0.000 A 
ATOM     19  O   UNL     1      -4.999  -0.618   0.000  0.00  0.00    +0.000 OA
BRANCH  14  20
ATOM     20  O   UNL     1      -3.571  -1.443   0.000  0.00  0.00    +0.000 OA
ATOM     21  C   UNL     1      -4.285  -1.855   0.000  0.00  0.00    +0.000 C 
ENDBRANCH  14  20
ENDBRANCH  12  15
ENDBRANCH   1  12
TORSDOF 10
