REMARK  Name = 
REMARK  8 active torsions:
REMARK  status: ('A' for Active; 'I' for Inactive)
REMARK    1  A    between atoms: C_1  and  N_2
REMARK    2  A    between atoms: C_7  and  C_13
REMARK    3  A    between atoms: C_13  and  O_16
REMARK    4  A    between atoms: O_16  and  P_18
REMARK    5  A    between atoms: P_18  and  O_19
REMARK    6  A    between atoms: O_19  and  P_22
REMARK    7  A    between atoms: P_22  and  O_23
REMARK    8  A    between atoms: O_23  and  P_26
REMARK                            x       y       z     vdW  Elec       q    Type
REMARK                         _______ _______ _______ _____ _____    ______ ____
ROOT
ATOM      1  C   UNL     1       2.073   0.169   0.000  0.00  0.00    +0.000 C 
ATOM      2  O   UNL     1       1.430   0.643   0.000  0.00  0.00    +0.000 OA
ATOM      3  C   UNL     1       1.832  -0.639   0.000  0.00  0.00    +0.000 C 
ATOM      4  C   UNL     1       0.760   0.148   0.000  0.00  0.00    +0.000 C 
ATOM      5  C   UNL     1       1.007  -0.639   0.000  0.00  0.00    +0.000 C 
ATOM      6  O   UNL     1       2.317  -1.303   0.000  0.00  0.00    +0.000 OA
ATOM      7  O   UNL     1       0.516  -1.299   0.000  0.00  0.00    +0.000 OA
ENDROOT
BRANCH   1   8
ATOM      8  N   UNL     1       2.863   0.430   0.000  0.00  0.00    +0.000 N 
ATOM      9  C   UNL     1       3.482  -0.120   0.000  0.00  0.00    +0.000 A 
ATOM     10  C   UNL     1       3.035   1.234   0.000  0.00  0.00    +0.000 A 
ATOM     11  N   UNL     1       4.269   0.138   0.000  0.00  0.00    +0.000 NA
ATOM     12  O   UNL     1       3.317  -0.928   0.000  0.00  0.00    +0.000 OA
ATOM     13  C   UNL     1       3.816   1.499   0.000  0.00  0.00    +0.000 A 
ATOM     14  C   UNL     1       4.438   0.949   0.000  0.00  0.00    +0.000 A 
ATOM     15  N   UNL     1       5.221   1.203   0.000  0.00  0.00    +0.000 NA
ENDBRANCH   1   8
BRANCH   4  16
ATOM     16  C   UNL     1      -0.028   0.402   0.000  0.00  0.00    +0.000 C 
BRANCH  16  17
ATOM     17  O   UNL     1      -0.636  -0.148   0.000  0.00  0.00    +0.000 OA
BRANCH  17  18
ATOM     18  P   UNL     1      -1.458  -0.148   0.000  0.00  0.00    +0.000 P 
ATOM     19  O   UNL     1      -1.461  -0.973   0.000  0.00  0.00    +0.000 OA
ATOM     20  O   UNL     1      -1.461   0.674   0.000  0.00  0.00    +0.000 OA
BRANCH  18  21
ATOM     21  O   UNL     1      -2.279  -0.148   0.000  0.00  0.00    +0.000 OA
BRANCH  21  22
ATOM     22  P   UNL     1      -3.104  -0.144   0.000  0.00  0.00    +0.000 P 
ATOM     23  O   UNL     1      -3.107  -0.966   0.000  0.00  0.00    +0.000 OA
ATOM     24  O   UNL     1      -3.107   0.677   0.000  0.00  0.00    +0.000 OA
BRANCH  22  25
ATOM     25  O   UNL     1      -3.925  -0.144   0.000  0.00  0.00    +0.000 OA
BRANCH  25  26
ATOM     26  P   UNL     1      -4.747  -0.141   0.000  0.00  0.00    +0.000 P 
ATOM     27  O   UNL     1      -4.750  -0.963   0.000  0.00  0.00    +0.000 OA
ATOM     28  O   UNL     1      -5.569  -0.138   0.000  0.00  0.00    +0.000 OA
ATOM     29  O   UNL     1      -4.750   0.681   0.000  0.00  0.00    +0.000 OA
ENDBRANCH  25  26
ENDBRANCH  22  25
ENDBRANCH  21  22
ENDBRANCH  18  21
ENDBRANCH  17  18
ENDBRANCH  16  17
ENDBRANCH   4  16
TORSDOF 8
