REMARK  Name = 
REMARK  2 active torsions:
REMARK  status: ('A' for Active; 'I' for Inactive)
REMARK    1  A    between atoms: C_6  and  C_10
REMARK    2  A    between atoms: C_12  and  N_16
REMARK                            x       y       z     vdW  Elec       q    Type
REMARK                         _______ _______ _______ _____ _____    ______ ____
ROOT
ATOM      1  C   UNL     1       0.884  -1.264   0.000  0.00  0.00    +0.000 C 
ATOM      2  C   UNL     1       1.369  -0.597   0.000  0.00  0.00    +0.000 C 
ATOM      3  C   UNL     1       0.099  -1.009   0.000  0.00  0.00    +0.000 C 
ATOM      4  C   UNL     1       0.884   0.071   0.000  0.00  0.00    +0.000 C 
ATOM      5  O   UNL     1       1.139  -2.049   0.000  0.00  0.00    +0.000 OA
ATOM      6  O   UNL     1       2.194  -0.597   0.000  0.00  0.00    +0.000 OA
ATOM      7  O   UNL     1       0.099  -0.184   0.000  0.00  0.00    +0.000 OA
ENDROOT
BRANCH   4  17
ATOM      8  C   UNL     1       2.638   3.173   0.000  0.00  0.00    +0.000 C 
ATOM      9  C   UNL     1       3.352   1.110   0.000  0.00  0.00    +0.000 A 
ATOM     10  C   UNL     1       0.654   1.523   0.000  0.00  0.00    +0.000 A 
ATOM     11  C   UNL     1       2.638   2.348   0.000  0.00  0.00    +0.000 A 
ATOM     12  C   UNL     1       1.923   1.935   0.000  0.00  0.00    +0.000 A 
ATOM     13  C   UNL     1       1.923   1.110   0.000  0.00  0.00    +0.000 A 
ATOM     14  N   UNL     1       3.352   1.935   0.000  0.00  0.00    +0.000 NA
ATOM     15  N   UNL     1       2.638   0.698   0.000  0.00  0.00    +0.000 NA
ATOM     16  N   UNL     1       1.139   2.190   0.000  0.00  0.00    +0.000 NA
ATOM     17  N   UNL     1       1.139   0.856   0.000  0.00  0.00    +0.000 N 
ENDBRANCH   4  17
BRANCH   3  19
ATOM     18  C   UNL     1      -0.482  -2.314   0.000  0.00  0.00    +0.000 C 
ATOM     19  C   UNL     1      -0.568  -1.494   0.000  0.00  0.00    +0.000 C 
ATOM     20  O   UNL     1      -1.322  -1.158   0.000  0.00  0.00    +0.000 OA
ENDBRANCH   3  19
TORSDOF 2
