REMARK  Name = 
REMARK  4 active torsions:
REMARK  status: ('A' for Active; 'I' for Inactive)
REMARK    1  A    between atoms: C_9  and  C_14
REMARK    2  A    between atoms: C_9  and  C_15
REMARK    3  A    between atoms: C_14  and  N_21
REMARK    4  A    between atoms: C_15  and  N_22
REMARK                            x       y       z     vdW  Elec       q    Type
REMARK                         _______ _______ _______ _____ _____    ______ ____
ROOT
ATOM      1  C   UNL     1       6.712   0.363   0.000  0.00  0.00    +0.000 C 
ATOM      2  C   UNL     1       7.243  -0.556   0.000  0.00  0.00    +0.000 C 
ATOM      3  C   UNL     1       5.001   1.238   0.000  0.00  0.00    +0.000 A 
ATOM      4  C   UNL     1       7.145  -2.475   0.000  0.00  0.00    +0.000 A 
ATOM      5  C   UNL     1       4.287   0.825   0.000  0.00  0.00    +0.000 A 
ATOM      6  C   UNL     1       6.430  -2.888   0.000  0.00  0.00    +0.000 A 
ATOM      7  C   UNL     1       5.716   0.825   0.000  0.00  0.00    +0.000 A 
ATOM      8  C   UNL     1       7.145  -1.650   0.000  0.00  0.00    +0.000 A 
ATOM      9  C   UNL     1       4.287   0.000   0.000  0.00  0.00    +0.000 A 
ATOM     10  C   UNL     1       5.716  -2.475   0.000  0.00  0.00    +0.000 A 
ATOM     11  C   UNL     1       5.716   0.000   0.000  0.00  0.00    +0.000 A 
ATOM     12  C   UNL     1       6.430  -1.238   0.000  0.00  0.00    +0.000 A 
ATOM     13  C   UNL     1       5.001  -0.412   0.000  0.00  0.00    +0.000 A 
ATOM     14  C   UNL     1       5.716  -1.650   0.000  0.00  0.00    +0.000 A 
ATOM     15  C   UNL     1       6.430  -0.412   0.000  0.00  0.00    +0.000 C 
ATOM     16  N   UNL     1       5.001  -1.238   0.000  0.00  0.00    +0.000 N 
ENDROOT
BRANCH  16  17
ATOM     17  C   UNL     1       4.287  -1.650   0.000  0.00  0.00    +0.000 C 
BRANCH  17  18
ATOM     18  C   UNL     1       3.572  -1.238   0.000  0.00  0.00    +0.000 C 
BRANCH  18  19
ATOM     19  C   UNL     1       2.858  -1.650   0.000  0.00  0.00    +0.000 C 
BRANCH  19  22
ATOM     20  C   UNL     1       1.429  -1.650   0.000  0.00  0.00    +0.000 C 
ATOM     21  C   UNL     1       2.143  -0.412   0.000  0.00  0.00    +0.000 C 
ATOM     22  N   UNL     1       2.143  -1.238   0.000  0.00  0.00    +0.000 NA
ENDBRANCH  19  22
ENDBRANCH  18  19
ENDBRANCH  17  18
ENDBRANCH  16  17
TORSDOF 4
