REMARK  Name = 
REMARK  7 active torsions:
REMARK  status: ('A' for Active; 'I' for Inactive)
REMARK    1  A    between atoms: C_10  and  C_13
REMARK    2  A    between atoms: C_10  and  N_33
REMARK    3  A    between atoms: C_13  and  O_35
REMARK    4  A    between atoms: C_18  and  O_38
REMARK    5  A    between atoms: C_19  and  O_35
REMARK    6  A    between atoms: C_23  and  O_38
REMARK    7  A    between atoms: C_25  and  N_31
REMARK                            x       y       z     vdW  Elec       q    Type
REMARK                         _______ _______ _______ _____ _____    ______ ____
ROOT
ATOM      1  C   UNL     1      -1.502  -2.348   0.000  0.00  0.00    +0.000 A 
ATOM      2  C   UNL     1      -0.073  -2.348   0.000  0.00  0.00    +0.000 A 
ATOM      3  C   UNL     1      -2.217  -0.285   0.000  0.00  0.00    +0.000 A 
ATOM      4  C   UNL     1      -0.788  -2.760   0.000  0.00  0.00    +0.000 A 
ATOM      5  C   UNL     1      -1.502  -1.523   0.000  0.00  0.00    +0.000 A 
ATOM      6  C   UNL     1      -0.073  -1.523   0.000  0.00  0.00    +0.000 A 
ATOM      7  C   UNL     1      -0.788  -1.110   0.000  0.00  0.00    +0.000 A 
ATOM      8  C   UNL     1      -0.788  -0.285   0.000  0.00  0.00    +0.000 A 
ATOM      9  N   UNL     1      -2.217  -1.110   0.000  0.00  0.00    +0.000 NA
ATOM     10  N   UNL     1      -1.502   0.127   0.000  0.00  0.00    +0.000 NA
ATOM     11  N   UNL     1      -0.073   0.127   0.000  0.00  0.00    +0.000 NA
ENDROOT
BRANCH  11  17
ATOM     12  C   UNL     1       0.641   2.190   0.000  0.00  0.00    +0.000 A 
ATOM     13  C   UNL     1      -0.073   2.602   0.000  0.00  0.00    +0.000 A 
ATOM     14  C   UNL     1      -2.057   1.777   0.000  0.00  0.00    +0.000 C 
ATOM     15  C   UNL     1       0.641   1.365   0.000  0.00  0.00    +0.000 A 
ATOM     16  C   UNL     1      -0.788   2.190   0.000  0.00  0.00    +0.000 A 
ATOM     17  C   UNL     1      -0.073   0.952   0.000  0.00  0.00    +0.000 A 
ATOM     18  C   UNL     1      -0.788   1.365   0.000  0.00  0.00    +0.000 A 
ATOM     19 CL   UNL     1       1.356   0.952   0.000  0.00  0.00    +0.000 Cl
ATOM     20  O   UNL     1      -1.572   2.445   0.000  0.00  0.00    +0.000 OA
ATOM     21  O   UNL     1      -1.572   1.110   0.000  0.00  0.00    +0.000 OA
ENDBRANCH  11  17
BRANCH   4  22
ATOM     22  O   UNL     1      -0.788  -3.585   0.000  0.00  0.00    +0.000 OA
BRANCH  22  23
ATOM     23  C   UNL     1      -1.502  -3.998   0.000  0.00  0.00    +0.000 C 
BRANCH  23  24
ATOM     24  C   UNL     1      -2.217  -3.585   0.000  0.00  0.00    +0.000 C 
BRANCH  24  31
ATOM     25  C   UNL     1      -5.075  -5.235   0.000  0.00  0.00    +0.000 C 
ATOM     26  C   UNL     1      -3.646  -5.235   0.000  0.00  0.00    +0.000 C 
ATOM     27  C   UNL     1      -4.360  -3.998   0.000  0.00  0.00    +0.000 C 
ATOM     28  C   UNL     1      -2.931  -4.823   0.000  0.00  0.00    +0.000 C 
ATOM     29  C   UNL     1      -3.646  -3.585   0.000  0.00  0.00    +0.000 C 
ATOM     30  N   UNL     1      -4.360  -4.823   0.000  0.00  0.00    +0.000 NA
ATOM     31  N   UNL     1      -2.931  -3.998   0.000  0.00  0.00    +0.000 NA
ENDBRANCH  24  31
ENDBRANCH  23  24
ENDBRANCH  22  23
ENDBRANCH   4  22
BRANCH   6  32
ATOM     32  O   UNL     1       0.641  -1.110   0.000  0.00  0.00    +0.000 OA
BRANCH  32  37
ATOM     33  C   UNL     1       1.356  -2.348   0.000  0.00  0.00    +0.000 C 
ATOM     34  C   UNL     1       2.070  -1.110   0.000  0.00  0.00    +0.000 C 
ATOM     35  C   UNL     1       2.070  -2.760   0.000  0.00  0.00    +0.000 C 
ATOM     36  C   UNL     1       2.784  -1.523   0.000  0.00  0.00    +0.000 C 
ATOM     37  C   UNL     1       1.356  -1.523   0.000  0.00  0.00    +0.000 C 
ATOM     38  O   UNL     1       2.784  -2.348   0.000  0.00  0.00    +0.000 OA
ENDBRANCH  32  37
ENDBRANCH   6  32
TORSDOF 7
