REMARK  Name = 
REMARK  3 active torsions:
REMARK  status: ('A' for Active; 'I' for Inactive)
REMARK    1  A    between atoms: C_3  and  C_4
REMARK    2  A    between atoms: C_3  and  C_5
REMARK    3  A    between atoms: C_4  and  C_6
REMARK                            x       y       z     vdW  Elec       q    Type
REMARK                         _______ _______ _______ _____ _____    ______ ____
ROOT
ATOM      1  C   UNL     1      -0.412  -0.715   0.000  0.00  0.00    +0.000 C 
ENDROOT
BRANCH   1   4
ATOM      2  C   UNL     1       1.238  -0.715   0.000  0.00  0.00    +0.000 C 
ATOM      3  C   UNL     1       0.825   0.000   0.000  0.00  0.00    +0.000 C 
ATOM      4  C   UNL     1       0.000   0.000   0.000  0.00  0.00    +0.000 C 
ATOM      5  N   UNL     1      -0.412   0.715   0.000  0.00  0.00    +0.000 NA
ENDBRANCH   1   4
BRANCH   1   6
ATOM      6  C   UNL     1       0.000  -1.429   0.000  0.00  0.00    +0.000 C 
BRANCH   6   7
ATOM      7  C   UNL     1      -0.412  -2.143   0.000  0.00  0.00    +0.000 C 
ATOM      8  O   UNL     1       0.000  -2.858   0.000  0.00  0.00    +0.000 OA
ATOM      9  O   UNL     1      -1.238  -2.143   0.000  0.00  0.00    +0.000 OA
ENDBRANCH   6   7
ENDBRANCH   1   6
TORSDOF 3
