REMARK  Name = 
REMARK  6 active torsions:
REMARK  status: ('A' for Active; 'I' for Inactive)
REMARK    1  A    between atoms: C_2  and  C_3
REMARK    2  A    between atoms: C_3  and  C_4
REMARK    3  A    between atoms: C_4  and  C_5
REMARK    4  A    between atoms: C_5  and  O_16
REMARK    5  A    between atoms: C_6  and  C_7
REMARK    6  A    between atoms: C_11  and  O_16
REMARK                            x       y       z     vdW  Elec       q    Type
REMARK                         _______ _______ _______ _____ _____    ______ ____
ROOT
ATOM      1  C   UNL     1       7.145   4.950   0.000  0.00  0.00    +0.000 C 
ATOM      2  C   UNL     1       7.145   5.775   0.000  0.00  0.00    +0.000 C 
ATOM      3  C   UNL     1       6.430   6.188   0.000  0.00  0.00    +0.000 C 
ATOM      4  C   UNL     1       5.716   5.775   0.000  0.00  0.00    +0.000 C 
ATOM      5  C   UNL     1       5.716   4.950   0.000  0.00  0.00    +0.000 C 
ATOM      6  O   UNL     1       7.859   6.188   0.000  0.00  0.00    +0.000 OA
ATOM      7  O   UNL     1       6.430   7.013   0.000  0.00  0.00    +0.000 OA
ATOM      8  O   UNL     1       5.001   6.188   0.000  0.00  0.00    +0.000 OA
ATOM      9  O   UNL     1       6.430   4.537   0.000  0.00  0.00    +0.000 OA
ENDROOT
BRANCH   1  10
ATOM     10  C   UNL     1       7.859   4.537   0.000  0.00  0.00    +0.000 C 
ATOM     11  O   UNL     1       8.574   4.950   0.000  0.00  0.00    +0.000 OA
ENDBRANCH   1  10
BRANCH   5  12
ATOM     12  O   UNL     1       5.001   4.537   0.000  0.00  0.00    +0.000 OA
BRANCH  12  13
ATOM     13  C   UNL     1       4.287   4.950   0.000  0.00  0.00    +0.000 C 
BRANCH  13  14
ATOM     14  C   UNL     1       3.572   4.537   0.000  0.00  0.00    +0.000 C 
BRANCH  14  15
ATOM     15  C   UNL     1       2.858   4.950   0.000  0.00  0.00    +0.000 C 
BRANCH  15  17
ATOM     16  C   UNL     1       1.429   4.950   0.000  0.00  0.00    +0.000 C 
ATOM     17  C   UNL     1       2.143   4.537   0.000  0.00  0.00    +0.000 C 
ENDBRANCH  15  17
ENDBRANCH  14  15
ENDBRANCH  13  14
ENDBRANCH  12  13
ENDBRANCH   5  12
TORSDOF 6
