REMARK  Name = 
REMARK  1 active torsions:
REMARK  status: ('A' for Active; 'I' for Inactive)
REMARK    1  A    between atoms: C_2  and  C_7
REMARK                            x       y       z     vdW  Elec       q    Type
REMARK                         _______ _______ _______ _____ _____    ______ ____
ROOT
ATOM      1  C   UNL     1       1.191   0.412   0.000  0.00  0.00    +0.000 C 
ATOM      2  C   UNL     1       1.905   0.825   0.000  0.00  0.00    +0.000 C 
ATOM      3  C   UNL     1       0.476   0.825   0.000  0.00  0.00    +0.000 C 
ATOM      4  C   UNL     1       1.905   1.650   0.000  0.00  0.00    +0.000 C 
ATOM      5  C   UNL     1       1.191   2.062   0.000  0.00  0.00    +0.000 C 
ATOM      6  C   UNL     1       0.476   1.650   0.000  0.00  0.00    +0.000 C 
ATOM      7  O   UNL     1       2.620   0.412   0.000  0.00  0.00    +0.000 OA
ATOM      8  O   UNL     1       2.620   2.062   0.000  0.00  0.00    +0.000 OA
ATOM      9  O   UNL     1       1.191   2.888   0.000  0.00  0.00    +0.000 OA
ATOM     10  O   UNL     1      -0.238   1.238   0.000  0.00  0.00    +0.000 OA
ENDROOT
BRANCH   6  11
ATOM     11  C   UNL     1       0.064   2.365   0.000  0.00  0.00    +0.000 C 
ATOM     12  O   UNL     1      -0.761   2.365   0.000  0.00  0.00    +0.000 OA
ENDBRANCH   6  11
TORSDOF 1
