REMARK  Name = 
REMARK  0 active torsions:
REMARK  status: ('A' for Active; 'I' for Inactive)
REMARK                            x       y       z     vdW  Elec       q    Type
REMARK                         _______ _______ _______ _____ _____    ______ ____
ROOT
ATOM      1  N   UNL     1       3.522   0.491   0.000  0.00  0.00    +0.000 NA
ATOM      2  N   UNL     1       2.093   0.491   0.000  0.00  0.00    +0.000 NA
ATOM      3  N   UNL     1       2.808  -0.747   0.000  0.00  0.00    +0.000 NA
ATOM      4  C   UNL     1       2.808   0.078   0.000  0.00  0.00    +0.000 C 
ENDROOT
TORSDOF 0
