REMARK  Name = 
REMARK  1 active torsions:
REMARK  status: ('A' for Active; 'I' for Inactive)
REMARK    1  A    between atoms: CA_4  and  C_8
REMARK                            x       y       z     vdW  Elec       q    Type
REMARK                         _______ _______ _______ _____ _____    ______ ____
ROOT
ATOM      1  N   PRO A   1      33.246 -25.504   0.000  0.00  0.00    +0.000 NA
ATOM      2  CA  PRO A   1      33.913 -25.019   0.000  0.00  0.00    +0.000 A 
ATOM      3  CB  PRO A   1      33.658 -24.234   0.000  0.00  0.00    +0.000 A 
ATOM      4  CD  PRO A   1      32.578 -25.019   0.000  0.00  0.00    +0.000 A 
ATOM      5  CG  PRO A   1      32.833 -24.234   0.000  0.00  0.00    +0.000 A 
ENDROOT
BRANCH   2   8
ATOM      6  O   PRO A   1      35.311 -24.721   0.000  0.00  0.00    +0.000 OA
ATOM      7  OXT PRO A   1      34.869 -26.081   0.000  0.00  0.00    +0.000 OA
ATOM      8  C   PRO A   1      34.698 -25.274   0.000  0.00  0.00    +0.000 C 
ENDBRANCH   2   8
TORSDOF 1
