REMARK  Name = 
REMARK  5 active torsions:
REMARK  status: ('A' for Active; 'I' for Inactive)
REMARK    1  A    between atoms: P_1  and  O_2
REMARK    2  A    between atoms: O_2  and  C_12
REMARK    3  A    between atoms: C_10  and  CA_11
REMARK    4  A    between atoms: C_10  and  C_12
REMARK    5  A    between atoms: CA_11  and  C_13
REMARK                            x       y       z     vdW  Elec       q    Type
REMARK                         _______ _______ _______ _____ _____    ______ ____
ROOT
ATOM      1  O   UNL     1      17.175  -3.190   0.000  0.00  0.00    +0.000 OA
ATOM      2  C   UNL     1      17.175  -4.015   0.000  0.00  0.00    +0.000 C 
ENDROOT
BRANCH   2   4
ATOM      3  N   UNL     1      16.461  -5.253   0.000  0.00  0.00    +0.000 NA
ATOM      4  CA  UNL     1      16.461  -4.428   0.000  0.00  0.00    +0.000 C 
BRANCH   4   7
ATOM      5  O   UNL     1      15.032  -4.428   0.000  0.00  0.00    +0.000 OA
ATOM      6  OXT UNL     1      15.746  -3.190   0.000  0.00  0.00    +0.000 OA
ATOM      7  C   UNL     1      15.746  -4.015   0.000  0.00  0.00    +0.000 C 
ENDBRANCH   4   7
ENDBRANCH   2   4
BRANCH   2   8
ATOM      8  C   UNL     1      17.890  -4.428   0.000  0.00  0.00    +0.000 C 
BRANCH   8   9
ATOM      9  O   UNL     1      18.604  -4.015   0.000  0.00  0.00    +0.000 OA
BRANCH   9  10
ATOM     10  P   UNL     1      19.319  -4.428   0.000  0.00  0.00    +0.000 P 
ATOM     11  O   UNL     1      20.033  -4.840   0.000  0.00  0.00    +0.000 OA
ATOM     12  O   UNL     1      19.731  -3.713   0.000  0.00  0.00    +0.000 OA
ATOM     13  O   UNL     1      18.906  -5.142   0.000  0.00  0.00    +0.000 OA
ENDBRANCH   9  10
ENDBRANCH   8   9
ENDBRANCH   2   8
TORSDOF 5
