REMARK  Name = 
REMARK  9 active torsions:
REMARK  status: ('A' for Active; 'I' for Inactive)
REMARK    1  A    between atoms: C_8  and  C_9
REMARK    2  A    between atoms: C_8  and  C_14
REMARK    3  A    between atoms: C_9  and  N_26
REMARK    4  A    between atoms: C_12  and  C_15
REMARK    5  A    between atoms: C_12  and  C_21
REMARK    6  A    between atoms: C_16  and  O_31
REMARK    7  A    between atoms: C_17  and  C_23
REMARK    8  A    between atoms: C_22  and  O_31
REMARK    9  A    between atoms: C_23  and  N_26
REMARK                            x       y       z     vdW  Elec       q    Type
REMARK                         _______ _______ _______ _____ _____    ______ ____
ROOT
ATOM      1  C   UNL     1       6.430   7.013   0.000  0.00  0.00    +0.000 A 
ATOM      2  C   UNL     1       5.716   7.425   0.000  0.00  0.00    +0.000 A 
ATOM      3  C   UNL     1       5.716   5.775   0.000  0.00  0.00    +0.000 A 
ATOM      4  C   UNL     1       6.430   6.188   0.000  0.00  0.00    +0.000 A 
ATOM      5  C   UNL     1       5.001   6.188   0.000  0.00  0.00    +0.000 A 
ATOM      6  C   UNL     1       5.001   7.013   0.000  0.00  0.00    +0.000 A 
ATOM      7  O   UNL     1       4.287   7.425   0.000  0.00  0.00    +0.000 OA
ENDROOT
BRANCH   5   8
ATOM      8  C   UNL     1       4.287   5.775   0.000  0.00  0.00    +0.000 C 
ATOM      9  O   UNL     1       4.287   4.950   0.000  0.00  0.00    +0.000 OA
BRANCH   8  10
ATOM     10  N   UNL     1       3.572   6.188   0.000  0.00  0.00    +0.000 NA
BRANCH  10  11
ATOM     11  C   UNL     1       2.858   5.775   0.000  0.00  0.00    +0.000 C 
BRANCH  11  12
ATOM     12  C   UNL     1       2.143   6.188   0.000  0.00  0.00    +0.000 C 
BRANCH  12  18
ATOM     13  C   UNL     1       0.000   4.950   0.000  0.00  0.00    +0.000 A 
ATOM     14  C   UNL     1       0.715   4.537   0.000  0.00  0.00    +0.000 A 
ATOM     15  C   UNL     1       0.000   5.775   0.000  0.00  0.00    +0.000 A 
ATOM     16  C   UNL     1       1.429   4.950   0.000  0.00  0.00    +0.000 A 
ATOM     17  C   UNL     1       0.715   6.188   0.000  0.00  0.00    +0.000 A 
ATOM     18  C   UNL     1       1.429   5.775   0.000  0.00  0.00    +0.000 A 
ENDBRANCH  12  18
ENDBRANCH  11  12
ENDBRANCH  10  11
ENDBRANCH   8  10
ENDBRANCH   5   8
BRANCH   4  19
ATOM     19  O   UNL     1       7.145   5.775   0.000  0.00  0.00    +0.000 OA
BRANCH  19  25
ATOM     20  C   UNL     1       9.288   6.188   0.000  0.00  0.00    +0.000 A 
ATOM     21  C   UNL     1       8.574   7.425   0.000  0.00  0.00    +0.000 A 
ATOM     22  C   UNL     1       9.288   7.013   0.000  0.00  0.00    +0.000 A 
ATOM     23  C   UNL     1       8.574   5.775   0.000  0.00  0.00    +0.000 A 
ATOM     24  C   UNL     1       7.859   7.013   0.000  0.00  0.00    +0.000 A 
ATOM     25  C   UNL     1       7.859   6.188   0.000  0.00  0.00    +0.000 A 
ATOM     26 BR   UNL     1       8.574   4.950   0.000  0.00  0.00    +0.000 Br
ATOM     27 BR   UNL     1       7.145   7.425   0.000  0.00  0.00    +0.000 Br
BRANCH  22  28
ATOM     28  C   UNL     1      10.003   7.425   0.000  0.00  0.00    +0.000 C 
BRANCH  28  29
ATOM     29  C   UNL     1      10.717   7.013   0.000  0.00  0.00    +0.000 C 
ATOM     30  O   UNL     1      11.431   7.425   0.000  0.00  0.00    +0.000 OA
ATOM     31  O   UNL     1      10.717   6.188   0.000  0.00  0.00    +0.000 OA
ENDBRANCH  28  29
ENDBRANCH  22  28
ENDBRANCH  19  25
ENDBRANCH   4  19
TORSDOF 9
