REMARK  Name = 
REMARK  12 active torsions:
REMARK  status: ('A' for Active; 'I' for Inactive)
REMARK    1  A    between atoms: C_2  and  C_3
REMARK    2  A    between atoms: C_3  and  C_4
REMARK    3  A    between atoms: C_5  and  O_6
REMARK    4  A    between atoms: O_6  and  C_7
REMARK    5  A    between atoms: C_7  and  C_8
REMARK    6  A    between atoms: C_8  and  C_9
REMARK    7  A    between atoms: C_9  and  O_10
REMARK    8  A    between atoms: O_10  and  C_11
REMARK    9  A    between atoms: N_17  and  C_18
REMARK   10  A    between atoms: C_18  and  C_19
REMARK   11  A    between atoms: C_30  and  C_32
REMARK   12  A    between atoms: C_32  and  C_34
REMARK                            x       y       z     vdW  Elec       q    Type
REMARK                         _______ _______ _______ _____ _____    ______ ____
ROOT
ATOM      1  C   UNL     1       0.000   0.000   0.000  0.00  0.00    +0.000 A 
ATOM      2  C   UNL     1      -0.715  -0.412   0.000  0.00  0.00    +0.000 A 
ATOM      3  C   UNL     1      -0.715  -1.238   0.000  0.00  0.00    +0.000 A 
ATOM      4  C   UNL     1       0.000  -1.650   0.000  0.00  0.00    +0.000 A 
ATOM      5  C   UNL     1       0.715  -1.238   0.000  0.00  0.00    +0.000 A 
ATOM      6  C   UNL     1       0.715  -0.412   0.000  0.00  0.00    +0.000 A 
ATOM      7  C   UNL     1       1.429   0.000   0.000  0.00  0.00    +0.000 A 
ATOM      8  C   UNL     1       2.143  -0.412   0.000  0.00  0.00    +0.000 A 
ATOM      9  C   UNL     1       2.143  -1.238   0.000  0.00  0.00    +0.000 A 
ATOM     10  C   UNL     1       1.429  -1.650   0.000  0.00  0.00    +0.000 A 
ENDROOT
BRANCH   9  11
ATOM     11  C   UNL     1       2.858  -1.650   0.000  0.00  0.00    +0.000 C 
ATOM     12  O   UNL     1       2.858  -2.475   0.000  0.00  0.00    +0.000 OA
BRANCH  11  13
ATOM     13  C   UNL     1       3.572  -1.238   0.000  0.00  0.00    +0.000 A 
ATOM     14  C   UNL     1       3.572  -0.412   0.000  0.00  0.00    +0.000 A 
ATOM     15  C   UNL     1       4.287   0.000   0.000  0.00  0.00    +0.000 A 
ATOM     16  C   UNL     1       5.001  -0.412   0.000  0.00  0.00    +0.000 A 
ATOM     17  C   UNL     1       5.001  -1.238   0.000  0.00  0.00    +0.000 A 
ATOM     18  C   UNL     1       4.287  -1.650   0.000  0.00  0.00    +0.000 A 
ENDBRANCH  11  13
ENDBRANCH   9  11
BRANCH   2  19
ATOM     19  O   UNL     1      -1.429   0.000   0.000  0.00  0.00    +0.000 OA
BRANCH  19  20
ATOM     20  C   UNL     1      -2.143  -0.412   0.000  0.00  0.00    +0.000 C 
BRANCH  20  21
ATOM     21  C   UNL     1      -2.858   0.000   0.000  0.00  0.00    +0.000 C 
BRANCH  21  22
ATOM     22  C   UNL     1      -3.572  -0.412   0.000  0.00  0.00    +0.000 C 
BRANCH  22  23
ATOM     23  O   UNL     1      -4.287   0.000   0.000  0.00  0.00    +0.000 OA
BRANCH  23  24
ATOM     24  C   UNL     1      -5.001  -0.412   0.000  0.00  0.00    +0.000 A 
ATOM     25  C   UNL     1      -5.001  -1.238   0.000  0.00  0.00    +0.000 A 
ATOM     26  C   UNL     1      -5.716  -1.650   0.000  0.00  0.00    +0.000 A 
ATOM     27  C   UNL     1      -6.430  -1.238   0.000  0.00  0.00    +0.000 A 
ATOM     28  C   UNL     1      -6.430  -0.412   0.000  0.00  0.00    +0.000 A 
ATOM     29  C   UNL     1      -5.716   0.000   0.000  0.00  0.00    +0.000 A 
ATOM     30  N   UNL     1      -7.043  -1.790   0.000  0.00  0.00    +0.000 N 
ATOM     31  C   UNL     1      -6.708  -2.543   0.000  0.00  0.00    +0.000 A 
ATOM     32  C   UNL     1      -5.887  -2.457   0.000  0.00  0.00    +0.000 A 
BRANCH  30  33
ATOM     33  C   UNL     1      -7.850  -1.618   0.000  0.00  0.00    +0.000 C 
BRANCH  33  34
ATOM     34  C   UNL     1      -8.402  -2.231   0.000  0.00  0.00    +0.000 C 
ATOM     35  O   UNL     1      -9.209  -2.060   0.000  0.00  0.00    +0.000 OA
ATOM     36  O   UNL     1      -8.147  -3.016   0.000  0.00  0.00    +0.000 OA
ENDBRANCH  33  34
ENDBRANCH  30  33
ENDBRANCH  23  24
ENDBRANCH  22  23
ENDBRANCH  21  22
ENDBRANCH  20  21
ENDBRANCH  19  20
ENDBRANCH   2  19
BRANCH   1  37
ATOM     37  C   UNL     1       0.000   0.825   0.000  0.00  0.00    +0.000 C 
BRANCH  37  39
ATOM     38  C   UNL     1      -0.715   2.062   0.000  0.00  0.00    +0.000 C 
ATOM     39  C   UNL     1      -0.715   1.238   0.000  0.00  0.00    +0.000 C 
ENDBRANCH  37  39
ENDBRANCH   1  37
TORSDOF 12
