REMARK  Name = 
REMARK  2 active torsions:
REMARK  status: ('A' for Active; 'I' for Inactive)
REMARK    1  A    between atoms: N_4  and  C1*_13
REMARK    2  A    between atoms: C4*_16  and  C5*_18
REMARK                            x       y       z     vdW  Elec       q    Type
REMARK                         _______ _______ _______ _____ _____    ______ ____
ROOT
ATOM      1  C   UNL     1       0.558  -2.420   0.000  0.00  0.00    +0.000 C 
ATOM      2  N   UNL     1       0.303  -1.635   0.000  0.00  0.00    +0.000 N 
ATOM      3  C   UNL     1       0.788  -0.967   0.000  0.00  0.00    +0.000 A 
ATOM      4  N   UNL     1       0.303  -0.300   0.000  0.00  0.00    +0.000 N 
ATOM      5  C   UNL     1      -0.482  -0.555   0.000  0.00  0.00    +0.000 A 
ATOM      6  C   UNL     1      -0.482  -1.380   0.000  0.00  0.00    +0.000 A 
ATOM      7  C   UNL     1      -1.196  -1.792   0.000  0.00  0.00    +0.000 A 
ATOM      8  O   UNL     1      -1.196  -2.617   0.000  0.00  0.00    +0.000 OA
ATOM      9  N   UNL     1      -1.911  -1.380   0.000  0.00  0.00    +0.000 NA
ATOM     10  C   UNL     1      -1.911  -0.555   0.000  0.00  0.00    +0.000 A 
ATOM     11  N   UNL     1      -1.196  -0.142   0.000  0.00  0.00    +0.000 NA
ATOM     12  N   UNL     1      -2.625  -0.142   0.000  0.00  0.00    +0.000 NA
ENDROOT
BRANCH   4  13
ATOM     13  C1* UNL     1       0.558   0.485   0.000  0.00  0.00    +0.000 C 
ATOM     14  C2* UNL     1       1.342   0.740   0.000  0.00  0.00    +0.000 C 
ATOM     15  C3* UNL     1       1.342   1.565   0.000  0.00  0.00    +0.000 C 
ATOM     16  C4* UNL     1       0.558   1.819   0.000  0.00  0.00    +0.000 C 
ATOM     17  O4* UNL     1       0.073   1.152   0.000  0.00  0.00    +0.000 OA
ATOM     18  O3* UNL     1       2.010   2.050   0.000  0.00  0.00    +0.000 OA
ATOM     19  O2* UNL     1       2.010   0.255   0.000  0.00  0.00    +0.000 OA
BRANCH  16  20
ATOM     20  C5* UNL     1       0.303   2.604   0.000  0.00  0.00    +0.000 C 
ATOM     21  O5* UNL     1       0.855   3.217   0.000  0.00  0.00    +0.000 OA
ENDBRANCH  16  20
ENDBRANCH   4  13
TORSDOF 2
