REMARK  Name = 
REMARK  0 active torsions:
REMARK  status: ('A' for Active; 'I' for Inactive)
REMARK                            x       y       z     vdW  Elec       q    Type
REMARK                         _______ _______ _______ _____ _____    ______ ____
ROOT
ATOM      1  O   UNL     1       2.150   1.642   0.000  0.00  0.00    +0.000 OA
ATOM      2  N   UNL     1       3.190   0.603   0.000  0.00  0.00    +0.000 N 
ATOM      3  N   UNL     1       1.920   0.190   0.000  0.00  0.00    +0.000 NA
ATOM      4  N   UNL     1       2.150  -1.262   0.000  0.00  0.00    +0.000 NA
ATOM      5  C   UNL     1       3.190  -0.222   0.000  0.00  0.00    +0.000 C 
ATOM      6  C   UNL     1       3.905   0.190   0.000  0.00  0.00    +0.000 C 
ATOM      7  C   UNL     1       2.405  -0.477   0.000  0.00  0.00    +0.000 C 
ATOM      8  C   UNL     1       2.405   0.858   0.000  0.00  0.00    +0.000 C 
ENDROOT
TORSDOF 0
