REMARK  Name = 
REMARK  11 active torsions:
REMARK  status: ('A' for Active; 'I' for Inactive)
REMARK    1  A    between atoms: C_7  and  C_9
REMARK    2  A    between atoms: N_11  and  C_12
REMARK    3  A    between atoms: C_12  and  C_13
REMARK    4  A    between atoms: C_13  and  O_14
REMARK    5  A    between atoms: O_14  and  C_15
REMARK    6  A    between atoms: C_15  and  C_16
REMARK    7  A    between atoms: C_16  and  O_17
REMARK    8  A    between atoms: O_17  and  C_18
REMARK    9  A    between atoms: C_18  and  C_19
REMARK   10  A    between atoms: C_19  and  N_20
REMARK   11  A    between atoms: C_21  and  C_23
REMARK                            x       y       z     vdW  Elec       q    Type
REMARK                         _______ _______ _______ _____ _____    ______ ____
ROOT
ATOM      1  C   UNL     1      -4.020  -5.593   0.000  0.00  0.00    +0.000 C 
ENDROOT
BRANCH   1   2
ATOM      2  O   UNL     1      -4.734  -5.180   0.000  0.00  0.00    +0.000 OA
BRANCH   2   3
ATOM      3  C   UNL     1      -5.449  -5.593   0.000  0.00  0.00    +0.000 C 
BRANCH   3   4
ATOM      4  C   UNL     1      -6.163  -5.180   0.000  0.00  0.00    +0.000 C 
BRANCH   4   7
ATOM      5  C   UNL     1      -7.592  -5.180   0.000  0.00  0.00    +0.000 C 
ATOM      6  O   UNL     1      -7.592  -4.355   0.000  0.00  0.00    +0.000 OA
ATOM      7  N   UNL     1      -6.878  -5.593   0.000  0.00  0.00    +0.000 NA
BRANCH   5  14
ATOM      8 CL   UNL     1     -11.675  -6.585   0.000  0.00  0.00    +0.000 Cl
ATOM      9  C   UNL     1     -10.850  -6.585   0.000  0.00  0.00    +0.000 A 
ATOM     10  C   UNL     1     -10.437  -5.870   0.000  0.00  0.00    +0.000 A 
ATOM     11  C   UNL     1      -9.612  -5.870   0.000  0.00  0.00    +0.000 A 
ATOM     12  C   UNL     1      -9.200  -6.585   0.000  0.00  0.00    +0.000 A 
ATOM     13  N   UNL     1      -8.393  -6.413   0.000  0.00  0.00    +0.000 NA
ATOM     14  C   UNL     1      -8.306  -5.593   0.000  0.00  0.00    +0.000 A 
ATOM     15  C   UNL     1      -9.060  -5.257   0.000  0.00  0.00    +0.000 A 
ATOM     16  C   UNL     1      -9.612  -7.299   0.000  0.00  0.00    +0.000 A 
ATOM     17  C   UNL     1     -10.437  -7.299   0.000  0.00  0.00    +0.000 A 
ENDBRANCH   5  14
ENDBRANCH   4   7
ENDBRANCH   3   4
ENDBRANCH   2   3
ENDBRANCH   1   2
BRANCH   1  18
ATOM     18  C   UNL     1      -3.305  -5.180   0.000  0.00  0.00    +0.000 C 
BRANCH  18  19
ATOM     19  O   UNL     1      -2.591  -5.593   0.000  0.00  0.00    +0.000 OA
BRANCH  19  20
ATOM     20  C   UNL     1      -1.876  -5.180   0.000  0.00  0.00    +0.000 C 
BRANCH  20  21
ATOM     21  C   UNL     1      -1.162  -5.593   0.000  0.00  0.00    +0.000 C 
BRANCH  21  22
ATOM     22  N   UNL     1      -0.447  -5.180   0.000  0.00  0.00    +0.000 NA
ATOM     23  C   UNL     1       0.267  -5.593   0.000  0.00  0.00    +0.000 C 
ATOM     24  O   UNL     1       0.267  -6.418   0.000  0.00  0.00    +0.000 OA
BRANCH  23  25
ATOM     25  C   UNL     1       0.982  -5.180   0.000  0.00  0.00    +0.000 A 
ATOM     26  C   UNL     1       1.735  -5.516   0.000  0.00  0.00    +0.000 A 
ATOM     27  C   UNL     1       2.287  -4.902   0.000  0.00  0.00    +0.000 A 
ATOM     28  C   UNL     1       1.875  -4.188   0.000  0.00  0.00    +0.000 A 
ATOM     29  N   UNL     1       1.068  -4.360   0.000  0.00  0.00    +0.000 NA
ATOM     30  C   UNL     1       2.287  -3.474   0.000  0.00  0.00    +0.000 A 
ATOM     31  C   UNL     1       3.112  -3.474   0.000  0.00  0.00    +0.000 A 
ATOM     32  C   UNL     1       3.525  -4.188   0.000  0.00  0.00    +0.000 A 
ATOM     33 CL   UNL     1       4.350  -4.188   0.000  0.00  0.00    +0.000 Cl
ATOM     34  C   UNL     1       3.112  -4.902   0.000  0.00  0.00    +0.000 A 
ENDBRANCH  23  25
ENDBRANCH  21  22
ENDBRANCH  20  21
ENDBRANCH  19  20
ENDBRANCH  18  19
ENDBRANCH   1  18
TORSDOF 11
