REMARK  Name = 
REMARK  1 active torsions:
REMARK  status: ('A' for Active; 'I' for Inactive)
REMARK    1  A    between atoms: P_2  and  C_5
REMARK                            x       y       z     vdW  Elec       q    Type
REMARK                         _______ _______ _______ _____ _____    ______ ____
ROOT
ATOM      1  O   UNL     1       1.650  -1.429   0.000  0.00  0.00    +0.000 OA
ATOM      2  P   UNL     1       1.238  -0.715   0.000  0.00  0.00    +0.000 P 
ATOM      3  O   UNL     1       1.952  -0.302   0.000  0.00  0.00    +0.000 OA
ATOM      4  O   UNL     1       0.523  -1.127   0.000  0.00  0.00    +0.000 OA
ENDROOT
BRANCH   2   5
ATOM      5  C   UNL     1       0.825   0.000   0.000  0.00  0.00    +0.000 C 
ATOM      6  S   UNL     1       0.000   0.000   0.000  0.00  0.00    +0.000 S 
ENDBRANCH   2   5
TORSDOF 1
