REMARK  Name = 
REMARK  3 active torsions:
REMARK  status: ('A' for Active; 'I' for Inactive)
REMARK    1  A    between atoms: O_1  and  C_8
REMARK    2  A    between atoms: O_1  and  C_9
REMARK    3  A    between atoms: C_4  and  C_8
REMARK                            x       y       z     vdW  Elec       q    Type
REMARK                         _______ _______ _______ _____ _____    ______ ____
ROOT
ATOM      1  O   UNL     1       3.670  -0.290   0.000  0.00  0.00    +0.000 OA
ENDROOT
BRANCH   1   3
ATOM      2  N   UNL     1       5.099  -1.940   0.000  0.00  0.00    +0.000 NA
ATOM      3  C   UNL     1       4.385  -0.702   0.000  0.00  0.00    +0.000 A 
ATOM      4  C   UNL     1       4.385  -1.527   0.000  0.00  0.00    +0.000 A 
ATOM      5  C   UNL     1       5.099  -0.290   0.000  0.00  0.00    +0.000 A 
ATOM      6  C   UNL     1       3.670  -1.940   0.000  0.00  0.00    +0.000 C 
ATOM      7  C   UNL     1       5.814  -0.702   0.000  0.00  0.00    +0.000 A 
ATOM      8  C   UNL     1       5.814  -1.527   0.000  0.00  0.00    +0.000 A 
ENDBRANCH   1   3
BRANCH   1   9
ATOM      9  C   UNL     1       3.670   0.535   0.000  0.00  0.00    +0.000 C 
BRANCH   9  11
ATOM     10  N   UNL     1       2.202   0.612   0.000  0.00  0.00    +0.000 NA
ATOM     11  C   UNL     1       2.956   0.948   0.000  0.00  0.00    +0.000 C 
ATOM     12  C   UNL     1       2.869   1.768   0.000  0.00  0.00    +0.000 C 
ATOM     13  C   UNL     1       2.062   1.940   0.000  0.00  0.00    +0.000 C 
ATOM     14  C   UNL     1       1.650   1.225   0.000  0.00  0.00    +0.000 C 
ENDBRANCH   9  11
ENDBRANCH   1   9
TORSDOF 3
