REMARK  Name = 
REMARK  6 active torsions:
REMARK  status: ('A' for Active; 'I' for Inactive)
REMARK    1  A    between atoms: N_3  and  C_4
REMARK    2  A    between atoms: N_3  and  C_16
REMARK    3  A    between atoms: N_3  and  C_18
REMARK    4  A    between atoms: C_10  and  C_17
REMARK    5  A    between atoms: C_16  and  C_19
REMARK    6  A    between atoms: C_23  and  C_26
REMARK                            x       y       z     vdW  Elec       q    Type
REMARK                         _______ _______ _______ _____ _____    ______ ____
ROOT
ATOM      1 CL   UNL     1       2.475   4.568   0.000  0.00  0.00    +0.000 Cl
ATOM      2  C   UNL     1       3.904   4.568   0.000  0.00  0.00    +0.000 A 
ATOM      3  C   UNL     1       3.189   4.155   0.000  0.00  0.00    +0.000 A 
ATOM      4  C   UNL     1       4.619   4.155   0.000  0.00  0.00    +0.000 A 
ATOM      5  C   UNL     1       3.904   2.918   0.000  0.00  0.00    +0.000 A 
ATOM      6  C   UNL     1       3.189   3.330   0.000  0.00  0.00    +0.000 A 
ATOM      7  C   UNL     1       4.619   3.330   0.000  0.00  0.00    +0.000 A 
ENDROOT
BRANCH   2   8
ATOM      8  C   UNL     1       3.904   5.393   0.000  0.00  0.00    +0.000 C 
ATOM      9  C   UNL     1       3.189   5.806   0.000  0.00  0.00    +0.000 C 
ATOM     10  C   UNL     1       4.619   5.806   0.000  0.00  0.00    +0.000 C 
ATOM     11  C   UNL     1       3.189   6.631   0.000  0.00  0.00    +0.000 C 
ATOM     12  C   UNL     1       4.619   6.631   0.000  0.00  0.00    +0.000 C 
ATOM     13  C   UNL     1       3.904   7.043   0.000  0.00  0.00    +0.000 C 
ENDBRANCH   2   8
BRANCH   5  15
ATOM     14  C   UNL     1       4.619   1.681   0.000  0.00  0.00    +0.000 C 
ATOM     15  C   UNL     1       3.904   2.093   0.000  0.00  0.00    +0.000 C 
BRANCH  14  16
ATOM     16  C   UNL     1       5.333   2.093   0.000  0.00  0.00    +0.000 C 
BRANCH  16  17
ATOM     17  N   UNL     1       6.048   1.681   0.000  0.00  0.00    +0.000 NA
BRANCH  17  18
ATOM     18  C   UNL     1       6.762   2.093   0.000  0.00  0.00    +0.000 C 
ATOM     19  C   UNL     1       7.476   1.681   0.000  0.00  0.00    +0.000 C 
ATOM     20  C   UNL     1       6.762   2.918   0.000  0.00  0.00    +0.000 C 
ATOM     21  C   UNL     1       8.191   2.093   0.000  0.00  0.00    +0.000 C 
ATOM     22  C   UNL     1       7.476   3.330   0.000  0.00  0.00    +0.000 C 
ATOM     23  C   UNL     1       8.191   2.918   0.000  0.00  0.00    +0.000 C 
ENDBRANCH  17  18
BRANCH  17  24
ATOM     24  C   UNL     1       6.048   0.856   0.000  0.00  0.00    +0.000 C 
ATOM     25  C   UNL     1       6.762   0.443   0.000  0.00  0.00    +0.000 C 
ENDBRANCH  17  24
ENDBRANCH  16  17
ENDBRANCH  14  16
ENDBRANCH   5  15
TORSDOF 6
REMARK  Name = 
REMARK  6 active torsions:
REMARK  status: ('A' for Active; 'I' for Inactive)
REMARK    1  A    between atoms: N_3  and  C_4
REMARK    2  A    between atoms: N_3  and  C_16
REMARK    3  A    between atoms: N_3  and  C_18
REMARK    4  A    between atoms: C_10  and  C_17
REMARK    5  A    between atoms: C_16  and  C_19
REMARK    6  A    between atoms: C_23  and  C_26
REMARK                            x       y       z     vdW  Elec       q    Type
REMARK                         _______ _______ _______ _____ _____    ______ ____
ROOT
ATOM      1 CL   UNL     1       0.000   3.511   0.000  0.00  0.00    +0.000 Cl
ENDROOT
TORSDOF 0
