REMARK  Name = 
REMARK  8 active torsions:
REMARK  status: ('A' for Active; 'I' for Inactive)
REMARK    1  A    between atoms: C_2  and  C_4
REMARK    2  A    between atoms: C_4  and  N_5
REMARK    3  A    between atoms: C_4  and  C_23
REMARK    4  A    between atoms: C_6  and  C_8
REMARK    5  A    between atoms: C_8  and  N_9
REMARK    6  A    between atoms: C_16  and  C_17
REMARK    7  A    between atoms: C_23  and  C_25
REMARK    8  A    between atoms: C_28  and  C_30
REMARK                            x       y       z     vdW  Elec       q    Type
REMARK                         _______ _______ _______ _____ _____    ______ ____
ROOT
ATOM      1  N   UNL     1       3.572  -1.238   0.000  0.00  0.00    +0.000 NA
ATOM      2  C   UNL     1       2.858  -0.825   0.000  0.00  0.00    +0.000 C 
ATOM      3  O   UNL     1       2.858   0.000   0.000  0.00  0.00    +0.000 OA
ENDROOT
BRANCH   2   4
ATOM      4  C   UNL     1       2.143  -1.238   0.000  0.00  0.00    +0.000 C 
BRANCH   4   5
ATOM      5  N   UNL     1       2.143  -2.062   0.000  0.00  0.00    +0.000 N 
ATOM      6  C   UNL     1       2.858  -2.475   0.000  0.00  0.00    +0.000 A 
ATOM      7  O   UNL     1       3.572  -2.062   0.000  0.00  0.00    +0.000 OA
ATOM      8  C   UNL     1       2.858  -3.300   0.000  0.00  0.00    +0.000 A 
ATOM      9  N   UNL     1       3.572  -3.712   0.000  0.00  0.00    +0.000 NA
ATOM     10  C   UNL     1       2.143  -3.712   0.000  0.00  0.00    +0.000 A 
ATOM     11  N   UNL     1       1.429  -3.300   0.000  0.00  0.00    +0.000 NA
ATOM     12  C   UNL     1       1.429  -2.475   0.000  0.00  0.00    +0.000 A 
BRANCH  12  13
ATOM     13  C   UNL     1       0.715  -2.062   0.000  0.00  0.00    +0.000 A 
ATOM     14  C   UNL     1       0.000  -2.475   0.000  0.00  0.00    +0.000 A 
ATOM     15  C   UNL     1      -0.715  -2.062   0.000  0.00  0.00    +0.000 A 
ATOM     16  C   UNL     1      -0.715  -1.238   0.000  0.00  0.00    +0.000 A 
ATOM     17  C   UNL     1       0.000  -0.825   0.000  0.00  0.00    +0.000 A 
ATOM     18  C   UNL     1       0.715  -1.238   0.000  0.00  0.00    +0.000 A 
ENDBRANCH  12  13
ENDBRANCH   4   5
ENDBRANCH   2   4
BRANCH   1  19
ATOM     19  C   UNL     1       4.287  -0.825   0.000  0.00  0.00    +0.000 C 
BRANCH  19  21
ATOM     20  C   UNL     1       5.001   0.412   0.000  0.00  0.00    +0.000 C 
ATOM     21  C   UNL     1       4.287   0.000   0.000  0.00  0.00    +0.000 C 
ATOM     22  C   UNL     1       3.572   0.412   0.000  0.00  0.00    +0.000 C 
ENDBRANCH  19  21
BRANCH  19  23
ATOM     23  C   UNL     1       5.001  -1.238   0.000  0.00  0.00    +0.000 C 
ATOM     24  O   UNL     1       5.716  -0.825   0.000  0.00  0.00    +0.000 OA
BRANCH  23  25
ATOM     25  C   UNL     1       5.001  -2.062   0.000  0.00  0.00    +0.000 A 
ATOM     26  N   UNL     1       4.334  -2.547   0.000  0.00  0.00    +0.000 NA
ATOM     27  N   UNL     1       4.589  -3.332   0.000  0.00  0.00    +0.000 NA
ATOM     28  C   UNL     1       5.414  -3.332   0.000  0.00  0.00    +0.000 A 
ATOM     29  O   UNL     1       5.669  -2.547   0.000  0.00  0.00    +0.000 OA
BRANCH  28  30
ATOM     30  C   UNL     1       5.899  -3.999   0.000  0.00  0.00    +0.000 C 
ATOM     31  C   UNL     1       6.384  -4.667   0.000  0.00  0.00    +0.000 C 
ATOM     32  C   UNL     1       6.566  -3.515   0.000  0.00  0.00    +0.000 C 
ATOM     33  C   UNL     1       5.231  -4.484   0.000  0.00  0.00    +0.000 C 
ENDBRANCH  28  30
ENDBRANCH  23  25
ENDBRANCH  19  23
ENDBRANCH   1  19
TORSDOF 8
