REMARK  Name = 
REMARK  1 active torsions:
REMARK  status: ('A' for Active; 'I' for Inactive)
REMARK    1  A    between atoms: C_3  and  C_6
REMARK                            x       y       z     vdW  Elec       q    Type
REMARK                         _______ _______ _______ _____ _____    ______ ____
ROOT
ATOM      1  O   UNL     1      28.602 -19.194   0.000  0.00  0.00    +0.000 OA
ATOM      2  O   UNL     1      28.602 -21.668   0.000  0.00  0.00    +0.000 OA
ATOM      3  C   UNL     1      27.888 -19.606   0.000  0.00  0.00    +0.000 A 
ATOM      4  C   UNL     1      29.317 -19.606   0.000  0.00  0.00    +0.000 A 
ATOM      5  C   UNL     1      28.602 -20.843   0.000  0.00  0.00    +0.000 A 
ATOM      6  C   UNL     1      29.317 -20.431   0.000  0.00  0.00    +0.000 A 
ATOM      7  C   UNL     1      27.888 -20.431   0.000  0.00  0.00    +0.000 A 
ATOM      8  C   UNL     1      30.054 -19.165   0.000  0.00  0.00    +0.000 A 
ATOM      9  C   UNL     1      30.054 -20.872   0.000  0.00  0.00    +0.000 A 
ATOM     10  C   UNL     1      30.801 -19.589   0.000  0.00  0.00    +0.000 A 
ATOM     11  C   UNL     1      30.801 -20.448   0.000  0.00  0.00    +0.000 A 
ENDROOT
BRANCH   3  12
ATOM     12  C   UNL     1      27.174 -19.194   0.000  0.00  0.00    +0.000 A 
ATOM     13  C   UNL     1      26.459 -19.606   0.000  0.00  0.00    +0.000 A 
ATOM     14  C   UNL     1      27.174 -18.369   0.000  0.00  0.00    +0.000 A 
ATOM     15  C   UNL     1      25.745 -19.194   0.000  0.00  0.00    +0.000 A 
ATOM     16  C   UNL     1      26.459 -17.956   0.000  0.00  0.00    +0.000 A 
ATOM     17  C   UNL     1      25.745 -18.369   0.000  0.00  0.00    +0.000 A 
ENDBRANCH   3  12
TORSDOF 1
