REMARK  Name = 
REMARK  1 active torsions:
REMARK  status: ('A' for Active; 'I' for Inactive)
REMARK    1  A    between atoms: C_17  and  C_18
REMARK                            x       y       z     vdW  Elec       q    Type
REMARK                         _______ _______ _______ _____ _____    ______ ____
ROOT
ATOM      1  C   UNL     1      16.415 -12.111   0.000  0.00  0.00    +0.000 C 
ATOM      2  C   UNL     1      16.415 -12.935   0.000  0.00  0.00    +0.000 C 
ATOM      3  C   UNL     1      17.130 -13.348   0.000  0.00  0.00    +0.000 C 
ATOM      4  C   UNL     1      17.844 -12.935   0.000  0.00  0.00    +0.000 C 
ATOM      5  C   UNL     1      17.844 -12.111   0.000  0.00  0.00    +0.000 C 
ATOM      6  C   UNL     1      17.130 -11.698   0.000  0.00  0.00    +0.000 C 
ATOM      7  C   UNL     1      18.559 -13.348   0.000  0.00  0.00    +0.000 C 
ATOM      8  C   UNL     1      19.273 -12.935   0.000  0.00  0.00    +0.000 C 
ATOM      9  C   UNL     1      19.273 -12.111   0.000  0.00  0.00    +0.000 C 
ATOM     10  C   UNL     1      18.559 -11.698   0.000  0.00  0.00    +0.000 C 
ATOM     11  C   UNL     1      19.988 -11.698   0.000  0.00  0.00    +0.000 C 
ATOM     12  C   UNL     1      19.988 -10.873   0.000  0.00  0.00    +0.000 C 
ATOM     13  C   UNL     1      19.273 -10.460   0.000  0.00  0.00    +0.000 C 
ATOM     14  C   UNL     1      18.559 -10.873   0.000  0.00  0.00    +0.000 C 
ATOM     15  C   UNL     1      20.772 -11.953   0.000  0.00  0.00    +0.000 C 
ATOM     16  C   UNL     1      21.257 -11.286   0.000  0.00  0.00    +0.000 C 
ATOM     17  C   UNL     1      20.772 -10.618   0.000  0.00  0.00    +0.000 C 
ATOM     18  C   UNL     1      20.074 -10.053   0.000  0.00  0.00    +0.000 C 
ATOM     19  C   UNL     1      17.844 -11.286   0.000  0.00  0.00    +0.000 C 
ATOM     20  O   UNL     1      15.701 -13.348   0.000  0.00  0.00    +0.000 OA
ENDROOT
BRANCH  17  21
ATOM     21  C   UNL     1      21.027  -9.833   0.000  0.00  0.00    +0.000 C 
ATOM     22  O   UNL     1      21.834  -9.662   0.000  0.00  0.00    +0.000 OA
ATOM     23  C   UNL     1      20.475  -9.220   0.000  0.00  0.00    +0.000 C 
ENDBRANCH  17  21
TORSDOF 1
