REMARK  Name = 
REMARK  9 active torsions:
REMARK  status: ('A' for Active; 'I' for Inactive)
REMARK    1  A    between atoms: C_3  and  C_7
REMARK    2  A    between atoms: C_4  and  C_9
REMARK    3  A    between atoms: C_5  and  C_10
REMARK    4  A    between atoms: C_8  and  N_26
REMARK    5  A    between atoms: C_11  and  N_26
REMARK    6  A    between atoms: C_21  and  O_44
REMARK    7  A    between atoms: C_22  and  O_43
REMARK    8  A    between atoms: C_24  and  O_43
REMARK    9  A    between atoms: C_25  and  O_44
REMARK                            x       y       z     vdW  Elec       q    Type
REMARK                         _______ _______ _______ _____ _____    ______ ____
ROOT
ATOM      1  C   UNL     1       0.000   0.000   0.000  0.00  0.00    +0.000 C 
ATOM      2  C   UNL     1       1.429   0.000   0.000  0.00  0.00    +0.000 C 
ATOM      3  C   UNL     1       1.429   0.825   0.000  0.00  0.00    +0.000 C 
ATOM      4  C   UNL     1       0.715  -0.412   0.000  0.00  0.00    +0.000 C 
ATOM      5  C   UNL     1       0.715   1.238   0.000  0.00  0.00    +0.000 C 
ATOM      6  O   UNL     1       2.143  -0.412   0.000  0.00  0.00    +0.000 OA
ATOM      7  O   UNL     1       2.143   1.238   0.000  0.00  0.00    +0.000 OA
ATOM      8  O   UNL     1       0.000   0.825   0.000  0.00  0.00    +0.000 OA
ENDROOT
BRANCH   1   9
ATOM      9  C   UNL     1      -0.715  -0.412   0.000  0.00  0.00    +0.000 C 
ATOM     10  O   UNL     1      -1.429   0.000   0.000  0.00  0.00    +0.000 OA
ENDBRANCH   1   9
BRANCH   4  11
ATOM     11  O   UNL     1       0.715  -1.238   0.000  0.00  0.00    +0.000 OA
BRANCH  11  17
ATOM     12  C   UNL     1      -2.143  -1.238   0.000  0.00  0.00    +0.000 C 
ATOM     13  C   UNL     1      -1.429  -1.650   0.000  0.00  0.00    +0.000 C 
ATOM     14  C   UNL     1      -1.429  -2.475   0.000  0.00  0.00    +0.000 C 
ATOM     15  C   UNL     1      -0.715  -2.888   0.000  0.00  0.00    +0.000 C 
ATOM     16  C   UNL     1       0.000  -2.475   0.000  0.00  0.00    +0.000 C 
ATOM     17  C   UNL     1       0.000  -1.650   0.000  0.00  0.00    +0.000 C 
ATOM     18  O   UNL     1      -0.715  -3.712   0.000  0.00  0.00    +0.000 OA
ATOM     19  O   UNL     1       0.715  -2.888   0.000  0.00  0.00    +0.000 OA
ATOM     20  O   UNL     1      -0.715  -1.238   0.000  0.00  0.00    +0.000 OA
BRANCH  14  21
ATOM     21  N   UNL     1      -2.143  -2.888   0.000  0.00  0.00    +0.000 NA
BRANCH  21  24
ATOM     22  C   UNL     1      -2.858  -1.650   0.000  0.00  0.00    +0.000 C 
ATOM     23  C   UNL     1      -3.572  -1.238   0.000  0.00  0.00    +0.000 C 
ATOM     24  C   UNL     1      -2.858  -2.475   0.000  0.00  0.00    +0.000 C 
ATOM     25  C   UNL     1      -4.287  -1.650   0.000  0.00  0.00    +0.000 C 
ATOM     26  C   UNL     1      -3.572  -2.888   0.000  0.00  0.00    +0.000 C 
ATOM     27  C   UNL     1      -4.287  -2.475   0.000  0.00  0.00    +0.000 C 
ATOM     28  O   UNL     1      -5.001  -1.238   0.000  0.00  0.00    +0.000 OA
ATOM     29  O   UNL     1      -3.572  -3.712   0.000  0.00  0.00    +0.000 OA
ATOM     30  O   UNL     1      -5.001  -2.888   0.000  0.00  0.00    +0.000 OA
BRANCH  23  31
ATOM     31  C   UNL     1      -3.572  -0.412   0.000  0.00  0.00    +0.000 C 
ATOM     32  O   UNL     1      -4.287   0.000   0.000  0.00  0.00    +0.000 OA
ENDBRANCH  23  31
ENDBRANCH  21  24
ENDBRANCH  14  21
ENDBRANCH  11  17
ENDBRANCH   4  11
BRANCH   5  33
ATOM     33  O   UNL     1       0.715   2.062   0.000  0.00  0.00    +0.000 OA
BRANCH  33  37
ATOM     34  C   UNL     1      -0.715   2.062   0.000  0.00  0.00    +0.000 C 
ATOM     35  C   UNL     1       0.000   3.300   0.000  0.00  0.00    +0.000 C 
ATOM     36  C   UNL     1      -0.715   3.712   0.000  0.00  0.00    +0.000 C 
ATOM     37  C   UNL     1       0.000   2.475   0.000  0.00  0.00    +0.000 C 
ATOM     38  C   UNL     1      -1.429   3.300   0.000  0.00  0.00    +0.000 C 
ATOM     39  O   UNL     1       0.715   3.712   0.000  0.00  0.00    +0.000 OA
ATOM     40  O   UNL     1      -0.715   4.537   0.000  0.00  0.00    +0.000 OA
ATOM     41  O   UNL     1      -2.143   3.712   0.000  0.00  0.00    +0.000 OA
ATOM     42  O   UNL     1      -1.429   2.475   0.000  0.00  0.00    +0.000 OA
BRANCH  34  43
ATOM     43  C   UNL     1      -0.715   1.238   0.000  0.00  0.00    +0.000 C 
ATOM     44  O   UNL     1      -1.429   0.825   0.000  0.00  0.00    +0.000 OA
ENDBRANCH  34  43
ENDBRANCH  33  37
ENDBRANCH   5  33
TORSDOF 9
