REMARK  Name = 
REMARK  2 active torsions:
REMARK  status: ('A' for Active; 'I' for Inactive)
REMARK    1  A    between atoms: C_5  and  C_8
REMARK    2  A    between atoms: C_6  and  C_10
REMARK                            x       y       z     vdW  Elec       q    Type
REMARK                         _______ _______ _______ _____ _____    ______ ____
ROOT
ATOM      1  C   UNL     1      -0.715   0.412   0.000  0.00  0.00    +0.000 C 
ATOM      2  C   UNL     1      -0.715  -0.412   0.000  0.00  0.00    +0.000 C 
ATOM      3  C   UNL     1       0.715  -0.412   0.000  0.00  0.00    +0.000 C 
ATOM      4  C   UNL     1       0.715   0.412   0.000  0.00  0.00    +0.000 C 
ATOM      5  C   UNL     1       0.000   0.825   0.000  0.00  0.00    +0.000 C 
ATOM      6  C   UNL     1       0.000  -0.825   0.000  0.00  0.00    +0.000 C 
ENDROOT
BRANCH   5   8
ATOM      7  O   UNL     1       0.715   2.062   0.000  0.00  0.00    +0.000 OA
ATOM      8  C   UNL     1       0.000   1.650   0.000  0.00  0.00    +0.000 C 
ATOM      9  O   UNL     1      -0.715   2.062   0.000  0.00  0.00    +0.000 OA
ENDBRANCH   5   8
BRANCH   6  10
ATOM     10  C   UNL     1       0.000  -1.650   0.000  0.00  0.00    +0.000 C 
ATOM     11  N   UNL     1       0.715  -2.062   0.000  0.00  0.00    +0.000 NA
ENDBRANCH   6  10
TORSDOF 2
