REMARK  Name = 
REMARK  3 active torsions:
REMARK  status: ('A' for Active; 'I' for Inactive)
REMARK    1  A    between atoms: O_2  and  C_8
REMARK    2  A    between atoms: C_4  and  C_6
REMARK    3  A    between atoms: C_9  and  C_11
REMARK                            x       y       z     vdW  Elec       q    Type
REMARK                         _______ _______ _______ _____ _____    ______ ____
ROOT
ATOM      1  O   UNL     1       5.937  -0.825   0.000  0.00  0.00    +0.000 OA
ATOM      2  O   UNL     1       7.366  -0.825   0.000  0.00  0.00    +0.000 OA
ATOM      3  C   UNL     1       5.222  -0.412   0.000  0.00  0.00    +0.000 C 
ATOM      4  C   UNL     1       5.222   0.412   0.000  0.00  0.00    +0.000 C 
ATOM      5  C   UNL     1       5.937   0.825   0.000  0.00  0.00    +0.000 C 
ATOM      6  C   UNL     1       6.652   0.412   0.000  0.00  0.00    +0.000 C 
ATOM      7  C   UNL     1       6.652  -0.412   0.000  0.00  0.00    +0.000 C 
ENDROOT
BRANCH   5   8
ATOM      8  O   UNL     1       5.937   1.650   0.000  0.00  0.00    +0.000 OA
ATOM      9  C   UNL     1       6.652   2.062   0.000  0.00  0.00    +0.000 C 
ENDBRANCH   5   8
BRANCH   3  10
ATOM     10  C   UNL     1       4.508  -0.825   0.000  0.00  0.00    +0.000 C 
ATOM     11  C   UNL     1       3.793  -0.412   0.000  0.00  0.00    +0.000 C 
BRANCH  11  13
ATOM     12  C   UNL     1       1.650  -0.825   0.000  0.00  0.00    +0.000 C 
ATOM     13  C   UNL     1       3.079  -0.825   0.000  0.00  0.00    +0.000 C 
ATOM     14  C   UNL     1       1.650  -1.650   0.000  0.00  0.00    +0.000 C 
ATOM     15  C   UNL     1       2.365  -0.412   0.000  0.00  0.00    +0.000 C 
ATOM     16  C   UNL     1       3.079  -1.650   0.000  0.00  0.00    +0.000 C 
ATOM     17  C   UNL     1       2.365  -2.062   0.000  0.00  0.00    +0.000 C 
ENDBRANCH  11  13
ENDBRANCH   3  10
TORSDOF 3
