REMARK  Name = 
REMARK  8 active torsions:
REMARK  status: ('A' for Active; 'I' for Inactive)
REMARK    1  A    between atoms: C_19  and  O_42
REMARK    2  A    between atoms: C_24  and  O_45
REMARK    3  A    between atoms: C_26  and  C_35
REMARK    4  A    between atoms: C_27  and  C_32
REMARK    5  A    between atoms: C_28  and  N_36
REMARK    6  A    between atoms: C_31  and  O_47
REMARK    7  A    between atoms: C_32  and  O_45
REMARK    8  A    between atoms: C_33  and  O_47
REMARK                            x       y       z     vdW  Elec       q    Type
REMARK                         _______ _______ _______ _____ _____    ______ ____
ROOT
ATOM      1  C   UNL     1       2.218   0.294   0.000  0.00  0.00    +0.000 C 
ATOM      2  C   UNL     1       2.999   0.561   0.000  0.00  0.00    +0.000 C 
ATOM      3  C   UNL     1       1.448   0.590   0.000  0.00  0.00    +0.000 C 
ATOM      4  C   UNL     1       2.675   2.625   0.000  0.00  0.00    +0.000 C 
ATOM      5  C   UNL     1       1.850   2.640   0.000  0.00  0.00    +0.000 C 
ATOM      6  C   UNL     1       4.032   2.456   0.000  0.00  0.00    +0.000 C 
ATOM      7  C   UNL     1       3.297   2.083   0.000  0.00  0.00    +0.000 C 
ATOM      8  C   UNL     1       3.425   1.268   0.000  0.00  0.00    +0.000 C 
ATOM      9  C   UNL     1       4.615   1.872   0.000  0.00  0.00    +0.000 C 
ATOM     10  C   UNL     1       1.050   1.313   0.000  0.00  0.00    +0.000 C 
ATOM     11  C   UNL     1       4.239   1.137   0.000  0.00  0.00    +0.000 C 
ATOM     12  C   UNL     1       1.208   2.122   0.000  0.00  0.00    +0.000 C 
ATOM     13  O   UNL     1       0.428   1.855   0.000  0.00  0.00    +0.000 OA
ENDROOT
BRANCH  12  15
ATOM     14  C   UNL     1      -0.009   2.946   0.000  0.00  0.00    +0.000 C 
ATOM     15  C   UNL     1       0.809   2.844   0.000  0.00  0.00    +0.000 C 
ATOM     16  C   UNL     1       0.556   4.155   0.000  0.00  0.00    +0.000 C 
ATOM     17  O   UNL     1       0.658   4.974   0.000  0.00  0.00    +0.000 OA
ATOM     18  O   UNL     1      -0.166   3.756   0.000  0.00  0.00    +0.000 OA
ATOM     19  O   UNL     1       1.159   3.591   0.000  0.00  0.00    +0.000 OA
ENDBRANCH  12  15
BRANCH   9  20
ATOM     20  O   UNL     1       5.430   2.000   0.000  0.00  0.00    +0.000 OA
BRANCH  20  21
ATOM     21  C   UNL     1       5.727   2.770   0.000  0.00  0.00    +0.000 C 
ATOM     22  O   UNL     1       5.208   3.412   0.000  0.00  0.00    +0.000 OA
BRANCH  21  33
ATOM     23  C   UNL     1       9.208   1.869   0.000  0.00  0.00    +0.000 C 
ATOM     24  C   UNL     1       8.172   3.153   0.000  0.00  0.00    +0.000 A 
ATOM     25  C   UNL     1       7.654   3.795   0.000  0.00  0.00    +0.000 A 
ATOM     26  C   UNL     1       8.097   0.972   0.000  0.00  0.00    +0.000 A 
ATOM     27  C   UNL     1       6.763   1.486   0.000  0.00  0.00    +0.000 A 
ATOM     28  C   UNL     1       8.393   1.742   0.000  0.00  0.00    +0.000 A 
ATOM     29  C   UNL     1       7.282   0.844   0.000  0.00  0.00    +0.000 A 
ATOM     30  C   UNL     1       7.875   2.383   0.000  0.00  0.00    +0.000 A 
ATOM     31  C   UNL     1       7.060   2.256   0.000  0.00  0.00    +0.000 A 
ATOM     32  C   UNL     1       6.838   3.667   0.000  0.00  0.00    +0.000 A 
ATOM     33  C   UNL     1       6.542   2.897   0.000  0.00  0.00    +0.000 A 
ATOM     34  O   UNL     1       6.320   4.309   0.000  0.00  0.00    +0.000 OA
BRANCH  29  36
ATOM     35  C   UNL     1       7.503  -0.568   0.000  0.00  0.00    +0.000 C 
ATOM     36  O   UNL     1       6.985   0.074   0.000  0.00  0.00    +0.000 OA
ENDBRANCH  29  36
ENDBRANCH  21  33
ENDBRANCH  20  21
ENDBRANCH   9  20
BRANCH  11  37
ATOM     37  O   UNL     1       4.613   0.402   0.000  0.00  0.00    +0.000 OA
BRANCH  37  43
ATOM     38  C   UNL     1       2.064  -0.892   0.000  0.00  0.00    +0.000 C 
ATOM     39  C   UNL     1       2.888  -0.936   0.000  0.00  0.00    +0.000 C 
ATOM     40  C   UNL     1       4.536  -1.025   0.000  0.00  0.00    +0.000 C 
ATOM     41  C   UNL     1       3.262  -1.672   0.000  0.00  0.00    +0.000 C 
ATOM     42  C   UNL     1       4.086  -1.716   0.000  0.00  0.00    +0.000 C 
ATOM     43  C   UNL     1       4.162  -0.289   0.000  0.00  0.00    +0.000 C 
ATOM     44  O   UNL     1       2.811  -2.363   0.000  0.00  0.00    +0.000 OA
ATOM     45  O   UNL     1       4.459  -2.452   0.000  0.00  0.00    +0.000 OA
ATOM     46  O   UNL     1       3.339  -0.245   0.000  0.00  0.00    +0.000 OA
BRANCH  40  48
ATOM     47  C   UNL     1       5.733  -1.805   0.000  0.00  0.00    +0.000 C 
ATOM     48  N   UNL     1       5.360  -1.069   0.000  0.00  0.00    +0.000 NA
ENDBRANCH  40  48
ENDBRANCH  37  43
ENDBRANCH  11  37
TORSDOF 8
