REMARK  Name = 
REMARK  4 active torsions:
REMARK  status: ('A' for Active; 'I' for Inactive)
REMARK    1  A    between atoms: O_1  and  C_2
REMARK    2  A    between atoms: O_1  and  C_16
REMARK    3  A    between atoms: C_2  and  C_3
REMARK    4  A    between atoms: C_3  and  C_6
REMARK                            x       y       z     vdW  Elec       q    Type
REMARK                         _______ _______ _______ _____ _____    ______ ____
ROOT
ATOM      1  O   UNL     1      -0.715   0.412   0.000  0.00  0.00    +0.000 OA
ENDROOT
BRANCH   1   6
ATOM      2  C   UNL     1      -2.074  -1.339   0.000  0.00  0.00    +0.000 C 
ATOM      3  C   UNL     1      -1.429  -0.825   0.000  0.00  0.00    +0.000 C 
ATOM      4  C   UNL     1      -2.878   0.331   0.000  0.00  0.00    +0.000 C 
ATOM      5  C   UNL     1      -2.074   0.514   0.000  0.00  0.00    +0.000 C 
ATOM      6  C   UNL     1      -1.429   0.000   0.000  0.00  0.00    +0.000 C 
ATOM      7  N   UNL     1      -1.951  -0.119   0.000  0.00  0.00    +0.000 N 
ATOM      8  C   UNL     1      -3.291  -0.384   0.000  0.00  0.00    +0.000 C 
ATOM      9  C   UNL     1      -2.871  -1.126   0.000  0.00  0.00    +0.000 C 
ATOM     10  C   UNL     1      -1.737   0.677   0.000  0.00  0.00    +0.000 C 
ATOM     11  C   UNL     1      -1.154  -0.333   0.000  0.00  0.00    +0.000 C 
ENDBRANCH   1   6
BRANCH   1  12
ATOM     12  C   UNL     1       0.000   0.000   0.000  0.00  0.00    +0.000 C 
ATOM     13  O   UNL     1       0.000  -0.825   0.000  0.00  0.00    +0.000 OA
BRANCH  12  14
ATOM     14  C   UNL     1       0.715   0.412   0.000  0.00  0.00    +0.000 C 
ATOM     15  O   UNL     1       0.715   1.238   0.000  0.00  0.00    +0.000 OA
BRANCH  14  16
ATOM     16  C   UNL     1       1.429   0.000   0.000  0.00  0.00    +0.000 A 
ATOM     17  C   UNL     1       1.429  -0.825   0.000  0.00  0.00    +0.000 A 
ATOM     18  C   UNL     1       2.143   0.412   0.000  0.00  0.00    +0.000 A 
ATOM     19  C   UNL     1       2.858   0.000   0.000  0.00  0.00    +0.000 A 
ATOM     20  C   UNL     1       2.858  -0.825   0.000  0.00  0.00    +0.000 A 
ATOM     21  C   UNL     1       2.143  -1.238   0.000  0.00  0.00    +0.000 A 
ENDBRANCH  14  16
ENDBRANCH  12  14
ENDBRANCH   1  12
TORSDOF 4
REMARK  Name = 
REMARK  4 active torsions:
REMARK  status: ('A' for Active; 'I' for Inactive)
REMARK    1  A    between atoms: O_1  and  C_2
REMARK    2  A    between atoms: O_1  and  C_16
REMARK    3  A    between atoms: C_2  and  C_3
REMARK    4  A    between atoms: C_3  and  C_6
REMARK                            x       y       z     vdW  Elec       q    Type
REMARK                         _______ _______ _______ _____ _____    ______ ____
ROOT
ATOM      1 BR   UNL     1      -1.247   1.555   0.000  0.00  0.00    +0.000 Br
ENDROOT
TORSDOF 0
