REMARK  Name = 
REMARK  7 active torsions:
REMARK  status: ('A' for Active; 'I' for Inactive)
REMARK    1  A    between atoms: O_1  and  C_29
REMARK    2  A    between atoms: O_1  and  C_37
REMARK    3  A    between atoms: C_14  and  C_31
REMARK    4  A    between atoms: C_22  and  C_34
REMARK    5  A    between atoms: C_37  and  C_38
REMARK    6  A    between atoms: C_38  and  C_39
REMARK    7  A    between atoms: C_39  and  C_42
REMARK                            x       y       z     vdW  Elec       q    Type
REMARK                         _______ _______ _______ _____ _____    ______ ____
ROOT
ATOM      1  C   UNL     1       9.396  -0.938   0.000  0.00  0.00    +0.000 C 
ATOM      2  C   UNL     1      10.110  -0.526   0.000  0.00  0.00    +0.000 C 
ATOM      3  C   UNL     1       8.681  -0.526   0.000  0.00  0.00    +0.000 C 
ATOM      4  C   UNL     1      10.110   0.299   0.000  0.00  0.00    +0.000 C 
ATOM      5  C   UNL     1       7.931  -0.944   0.000  0.00  0.00    +0.000 C 
ATOM      6  C   UNL     1      10.848   0.740   0.000  0.00  0.00    +0.000 C 
ATOM      7  C   UNL     1       7.924  -1.803   0.000  0.00  0.00    +0.000 C 
ATOM      8  C   UNL     1      11.595   0.317   0.000  0.00  0.00    +0.000 C 
ATOM      9  C   UNL     1       9.409  -1.797   0.000  0.00  0.00    +0.000 C 
ATOM     10  C   UNL     1       8.681   0.299   0.000  0.00  0.00    +0.000 C 
ATOM     11  C   UNL     1      10.848  -0.967   0.000  0.00  0.00    +0.000 C 
ATOM     12  C   UNL     1       9.396   0.712   0.000  0.00  0.00    +0.000 C 
ATOM     13  C   UNL     1       8.668  -2.232   0.000  0.00  0.00    +0.000 C 
ATOM     14  C   UNL     1      11.595  -0.543   0.000  0.00  0.00    +0.000 C 
ATOM     15  C   UNL     1       7.153  -2.256   0.000  0.00  0.00    +0.000 C 
ATOM     16  C   UNL     1      11.021   1.577   0.000  0.00  0.00    +0.000 C 
ATOM     17  C   UNL     1       7.166  -0.478   0.000  0.00  0.00    +0.000 C 
ATOM     18  C   UNL     1       9.926  -1.570   0.000  0.00  0.00    +0.000 C 
ATOM     19  C   UNL     1      10.393  -1.301   0.000  0.00  0.00    +0.000 C 
ATOM     20  C   UNL     1      12.224   0.894   0.000  0.00  0.00    +0.000 C 
ATOM     21  C   UNL     1      11.870   1.672   0.000  0.00  0.00    +0.000 C 
ATOM     22  C   UNL     1       7.937  -0.119   0.000  0.00  0.00    +0.000 C 
ATOM     23  C   UNL     1       6.378  -1.809   0.000  0.00  0.00    +0.000 C 
ATOM     24  C   UNL     1       6.385  -0.914   0.000  0.00  0.00    +0.000 C 
ATOM     25  C   UNL     1       7.568  -2.969   0.000  0.00  0.00    +0.000 C 
ATOM     26  C   UNL     1       6.743  -2.972   0.000  0.00  0.00    +0.000 C 
ENDROOT
BRANCH   8  29
ATOM     27  O   UNL     1      13.024   0.327   0.000  0.00  0.00    +0.000 OA
ATOM     28  O   UNL     1      12.319  -0.915   0.000  0.00  0.00    +0.000 OA
ATOM     29  C   UNL     1      12.313  -0.090   0.000  0.00  0.00    +0.000 C 
ENDBRANCH   8  29
BRANCH  16  30
ATOM     30  C   UNL     1      10.465   2.186   0.000  0.00  0.00    +0.000 C 
ATOM     31  C   UNL     1      10.716   2.972   0.000  0.00  0.00    +0.000 C 
ATOM     32  C   UNL     1       9.660   2.010   0.000  0.00  0.00    +0.000 C 
ENDBRANCH  16  30
BRANCH  23  33
ATOM     33  O   UNL     1       5.662  -2.219   0.000  0.00  0.00    +0.000 OA
BRANCH  33  35
ATOM     34  O   UNL     1       4.952  -0.979   0.000  0.00  0.00    +0.000 OA
ATOM     35  C   UNL     1       4.949  -1.803   0.000  0.00  0.00    +0.000 C 
BRANCH  35  36
ATOM     36  C   UNL     1       4.233  -2.213   0.000  0.00  0.00    +0.000 C 
BRANCH  36  37
ATOM     37  C   UNL     1       3.520  -1.798   0.000  0.00  0.00    +0.000 C 
ATOM     38  C   UNL     1       3.936  -1.085   0.000  0.00  0.00    +0.000 C 
ATOM     39  C   UNL     1       3.105  -2.511   0.000  0.00  0.00    +0.000 C 
BRANCH  37  42
ATOM     40  O   UNL     1       2.092  -1.792   0.000  0.00  0.00    +0.000 OA
ATOM     41  O   UNL     1       2.811  -0.558   0.000  0.00  0.00    +0.000 OA
ATOM     42  C   UNL     1       2.808  -1.383   0.000  0.00  0.00    +0.000 C 
ENDBRANCH  37  42
ENDBRANCH  36  37
ENDBRANCH  35  36
ENDBRANCH  33  35
ENDBRANCH  23  33
TORSDOF 7
