REMARK  Name = 
REMARK  5 active torsions:
REMARK  status: ('A' for Active; 'I' for Inactive)
REMARK    1  A    between atoms: N_2  and  C_10
REMARK    2  A    between atoms: N_4  and  C_15
REMARK    3  A    between atoms: C_10  and  C_13
REMARK    4  A    between atoms: C_13  and  C_14
REMARK    5  A    between atoms: C_14  and  C_15
REMARK                            x       y       z     vdW  Elec       q    Type
REMARK                         _______ _______ _______ _____ _____    ______ ____
ROOT
ATOM      1  N   UNL     1       2.365  -0.556   0.000  0.00  0.00    +0.000 NA
ATOM      2  N   UNL     1       2.365  -2.206   0.000  0.00  0.00    +0.000 N 
ATOM      3  N   UNL     1       1.650  -3.443   0.000  0.00  0.00    +0.000 NA
ATOM      4  N   UNL     1       3.079  -3.443   0.000  0.00  0.00    +0.000 NA
ATOM      5  C   UNL     1       3.079  -0.969   0.000  0.00  0.00    +0.000 C 
ATOM      6  C   UNL     1       1.650  -0.969   0.000  0.00  0.00    +0.000 C 
ATOM      7  C   UNL     1       3.079  -1.794   0.000  0.00  0.00    +0.000 C 
ATOM      8  C   UNL     1       1.650  -1.794   0.000  0.00  0.00    +0.000 C 
ATOM      9  C   UNL     1       2.365  -3.031   0.000  0.00  0.00    +0.000 A 
ATOM     10  C   UNL     1       1.650  -4.269   0.000  0.00  0.00    +0.000 A 
ATOM     11  C   UNL     1       3.079  -4.269   0.000  0.00  0.00    +0.000 A 
ATOM     12  C   UNL     1       2.365  -4.681   0.000  0.00  0.00    +0.000 A 
ENDROOT
BRANCH   1  13
ATOM     13  C   UNL     1       2.365   0.269   0.000  0.00  0.00    +0.000 C 
BRANCH  13  14
ATOM     14  C   UNL     1       3.079   0.681   0.000  0.00  0.00    +0.000 C 
BRANCH  14  15
ATOM     15  C   UNL     1       3.079   1.507   0.000  0.00  0.00    +0.000 C 
BRANCH  15  16
ATOM     16  C   UNL     1       3.793   1.919   0.000  0.00  0.00    +0.000 C 
BRANCH  16  18
ATOM     17 CL   UNL     1       4.691   4.681   0.000  0.00  0.00    +0.000 Cl
ATOM     18  N   UNL     1       3.793   2.744   0.000  0.00  0.00    +0.000 N 
ATOM     19  N   UNL     1       3.126   3.229   0.000  0.00  0.00    +0.000 NA
ATOM     20  C   UNL     1       4.461   3.229   0.000  0.00  0.00    +0.000 A 
ATOM     21  C   UNL     1       4.206   4.014   0.000  0.00  0.00    +0.000 A 
ATOM     22  C   UNL     1       3.381   4.014   0.000  0.00  0.00    +0.000 A 
ENDBRANCH  16  18
ENDBRANCH  15  16
ENDBRANCH  14  15
ENDBRANCH  13  14
ENDBRANCH   1  13
TORSDOF 5
