REMARK  Name = 
REMARK  2 active torsions:
REMARK  status: ('A' for Active; 'I' for Inactive)
REMARK    1  A    between atoms: N_4  and  C_5
REMARK    2  A    between atoms: C_7  and  AS_12
REMARK                            x       y       z     vdW  Elec       q    Type
REMARK                         _______ _______ _______ _____ _____    ______ ____
ROOT
ATOM      1  C   UNL     1       1.429   0.825   0.000  0.00  0.00    +0.000 A 
ATOM      2  C   UNL     1       1.429   0.000   0.000  0.00  0.00    +0.000 A 
ATOM      3  C   UNL     1       0.715  -0.412   0.000  0.00  0.00    +0.000 A 
ATOM      4  C   UNL     1       0.000   0.000   0.000  0.00  0.00    +0.000 A 
ATOM      5  C   UNL     1       0.000   0.825   0.000  0.00  0.00    +0.000 A 
ATOM      6  C   UNL     1       0.715   1.238   0.000  0.00  0.00    +0.000 A 
ATOM      7  O   UNL     1       0.715   2.062   0.000  0.00  0.00    +0.000 OA
ENDROOT
BRANCH   1  11
ATOM      8  C   UNL     1       2.858   2.475   0.000  0.00  0.00    +0.000 C 
ATOM      9  C   UNL     1       2.143   2.062   0.000  0.00  0.00    +0.000 C 
ATOM     10  O   UNL     1       1.429   2.475   0.000  0.00  0.00    +0.000 OA
ATOM     11  N   UNL     1       2.143   1.238   0.000  0.00  0.00    +0.000 NA
ENDBRANCH   1  11
BRANCH   3  12
ATOM     12 AS   UNL     1       0.715  -1.238   0.000  0.00  0.00    +0.000 As
ATOM     13  O   UNL     1       0.715  -2.062   0.000  0.00  0.00    +0.000 OA
ATOM     14  O   UNL     1      -0.111  -1.238   0.000  0.00  0.00    +0.000 OA
ATOM     15  O   UNL     1       1.540  -1.238   0.000  0.00  0.00    +0.000 OA
ENDBRANCH   3  12
TORSDOF 2
