REMARK  Name = 
REMARK  4 active torsions:
REMARK  status: ('A' for Active; 'I' for Inactive)
REMARK    1  A    between atoms: C_1  and  C_2
REMARK    2  A    between atoms: C_1  and  CA_3
REMARK    3  A    between atoms: C_2  and  O_9
REMARK    4  A    between atoms: CA_3  and  C_4
REMARK                            x       y       z     vdW  Elec       q    Type
REMARK                         _______ _______ _______ _____ _____    ______ ____
ROOT
ATOM      1  CA  UNL     1       9.906 -13.957   0.000  0.00  0.00    +0.000 C 
ATOM      2  N   UNL     1       9.081 -13.957   0.000  0.00  0.00    +0.000 NA
ENDROOT
BRANCH   1   3
ATOM      3  C   UNL     1      10.318 -14.672   0.000  0.00  0.00    +0.000 C 
ATOM      4  O   UNL     1       9.906 -15.386   0.000  0.00  0.00    +0.000 OA
ATOM      5  OXT UNL     1      11.143 -14.672   0.000  0.00  0.00    +0.000 OA
ENDBRANCH   1   3
BRANCH   1   6
ATOM      6  C   UNL     1      10.318 -13.243   0.000  0.00  0.00    +0.000 C 
BRANCH   6   7
ATOM      7  C   UNL     1      11.143 -13.243   0.000  0.00  0.00    +0.000 C 
BRANCH   7   9
ATOM      8  N   UNL     1      12.380 -12.528   0.000  0.00  0.00    +0.000 NA
ATOM      9  O   UNL     1      11.556 -12.528   0.000  0.00  0.00    +0.000 OA
ENDBRANCH   7   9
ENDBRANCH   6   7
ENDBRANCH   1   6
TORSDOF 4
