REMARK  Name = 
REMARK  11 active torsions:
REMARK  status: ('A' for Active; 'I' for Inactive)
REMARK    1  A    between atoms: C_19  and  C_29
REMARK    2  A    between atoms: C_19  and  C_30
REMARK    3  A    between atoms: C_24  and  O_44
REMARK    4  A    between atoms: C_25  and  S_45
REMARK    5  A    between atoms: C_26  and  S_46
REMARK    6  A    between atoms: C_27  and  C_31
REMARK    7  A    between atoms: C_28  and  N_33
REMARK    8  A    between atoms: C_29  and  C_32
REMARK    9  A    between atoms: C_29  and  N_34
REMARK   10  A    between atoms: N_33  and  S_45
REMARK   11  A    between atoms: O_44  and  S_46
REMARK                            x       y       z     vdW  Elec       q    Type
REMARK                         _______ _______ _______ _____ _____    ______ ____
ROOT
ATOM      1  C   UNL     1       4.287   4.125   0.000  0.00  0.00    +0.000 A 
ATOM      2  C   UNL     1       4.287   4.950   0.000  0.00  0.00    +0.000 A 
ATOM      3  C   UNL     1       2.858   4.125   0.000  0.00  0.00    +0.000 A 
ATOM      4  C   UNL     1       3.572   3.712   0.000  0.00  0.00    +0.000 A 
ATOM      5  C   UNL     1       2.858   4.950   0.000  0.00  0.00    +0.000 A 
ATOM      6  C   UNL     1       3.572   5.362   0.000  0.00  0.00    +0.000 A 
ENDROOT
BRANCH   5   8
ATOM      7  C   UNL     1       1.429   4.125   0.000  0.00  0.00    +0.000 C 
ATOM      8  C   UNL     1       2.143   5.362   0.000  0.00  0.00    +0.000 C 
ATOM      9  N   UNL     1       1.429   4.950   0.000  0.00  0.00    +0.000 N 
ATOM     10  O   UNL     1       2.143   6.188   0.000  0.00  0.00    +0.000 OA
BRANCH   9  11
ATOM     11  C   UNL     1       0.715   5.362   0.000  0.00  0.00    +0.000 C 
BRANCH  11  12
ATOM     12  C   UNL     1       0.715   6.188   0.000  0.00  0.00    +0.000 C 
ATOM     13  O   UNL     1       1.429   6.600   0.000  0.00  0.00    +0.000 OA
ATOM     14  O   UNL     1       0.000   6.600   0.000  0.00  0.00    +0.000 OA
ENDBRANCH  11  12
BRANCH  11  15
ATOM     15  C   UNL     1       0.000   4.950   0.000  0.00  0.00    +0.000 C 
BRANCH  15  16
ATOM     16  C   UNL     1      -0.715   5.362   0.000  0.00  0.00    +0.000 C 
ATOM     17  O   UNL     1      -1.429   4.950   0.000  0.00  0.00    +0.000 OA
ATOM     18  O   UNL     1      -0.715   6.188   0.000  0.00  0.00    +0.000 OA
ENDBRANCH  15  16
ENDBRANCH  11  15
ENDBRANCH   9  11
ENDBRANCH   5   8
BRANCH   6  19
ATOM     19  N   UNL     1       3.572   6.188   0.000  0.00  0.00    +0.000 NA
BRANCH  19  22
ATOM     20  O   UNL     1       4.699   5.886   0.000  0.00  0.00    +0.000 OA
ATOM     21  O   UNL     1       5.001   7.013   0.000  0.00  0.00    +0.000 OA
ATOM     22  S   UNL     1       4.287   6.600   0.000  0.00  0.00    +0.000 S 
BRANCH  22  32
ATOM     23  C   UNL     1       3.049  10.172   0.000  0.00  0.00    +0.000 A 
ATOM     24  C   UNL     1       3.874  10.172   0.000  0.00  0.00    +0.000 A 
ATOM     25  C   UNL     1       2.637   9.458   0.000  0.00  0.00    +0.000 A 
ATOM     26  C   UNL     1       4.287   9.458   0.000  0.00  0.00    +0.000 A 
ATOM     27  C   UNL     1       2.637   8.029   0.000  0.00  0.00    +0.000 A 
ATOM     28  C   UNL     1       3.049   7.314   0.000  0.00  0.00    +0.000 A 
ATOM     29  C   UNL     1       4.287   8.029   0.000  0.00  0.00    +0.000 A 
ATOM     30  C   UNL     1       3.049   8.743   0.000  0.00  0.00    +0.000 A 
ATOM     31  C   UNL     1       3.874   8.743   0.000  0.00  0.00    +0.000 A 
ATOM     32  C   UNL     1       3.874   7.314   0.000  0.00  0.00    +0.000 A 
ENDBRANCH  22  32
ENDBRANCH  19  22
ENDBRANCH   6  19
BRANCH   4  33
ATOM     33  O   UNL     1       3.572   2.888   0.000  0.00  0.00    +0.000 OA
BRANCH  33  36
ATOM     34  O   UNL     1       2.445   3.189   0.000  0.00  0.00    +0.000 OA
ATOM     35  O   UNL     1       3.270   1.760   0.000  0.00  0.00    +0.000 OA
ATOM     36  S   UNL     1       2.858   2.475   0.000  0.00  0.00    +0.000 S 
BRANCH  36  46
ATOM     37  C   UNL     1      -0.715   1.238   0.000  0.00  0.00    +0.000 A 
ATOM     38  C   UNL     1      -0.715   2.062   0.000  0.00  0.00    +0.000 A 
ATOM     39  C   UNL     1       0.000   0.825   0.000  0.00  0.00    +0.000 A 
ATOM     40  C   UNL     1       0.000   2.475   0.000  0.00  0.00    +0.000 A 
ATOM     41  C   UNL     1       1.429   0.825   0.000  0.00  0.00    +0.000 A 
ATOM     42  C   UNL     1       2.143   1.238   0.000  0.00  0.00    +0.000 A 
ATOM     43  C   UNL     1       1.429   2.475   0.000  0.00  0.00    +0.000 A 
ATOM     44  C   UNL     1       0.715   1.238   0.000  0.00  0.00    +0.000 A 
ATOM     45  C   UNL     1       0.715   2.062   0.000  0.00  0.00    +0.000 A 
ATOM     46  C   UNL     1       2.143   2.062   0.000  0.00  0.00    +0.000 A 
ENDBRANCH  36  46
ENDBRANCH  33  36
ENDBRANCH   4  33
TORSDOF 11
