REMARK  Name = 
REMARK  4 active torsions:
REMARK  status: ('A' for Active; 'I' for Inactive)
REMARK    1  A    between atoms: C_2  and  C_4
REMARK    2  A    between atoms: C_3  and  C_5
REMARK    3  A    between atoms: C_4  and  C_6
REMARK    4  A    between atoms: C_5  and  C_6
REMARK                            x       y       z     vdW  Elec       q    Type
REMARK                         _______ _______ _______ _____ _____    ______ ____
ROOT
ATOM      1  C   UNL     1       0.191  -0.715   0.000  0.00  0.00    +0.000 C 
ATOM      2  O   UNL     1       0.191   0.111   0.000  0.00  0.00    +0.000 OA
ENDROOT
BRANCH   1   3
ATOM      3  C   UNL     1      -0.523  -1.127   0.000  0.00  0.00    +0.000 C 
ATOM      4  O   UNL     1      -0.523  -1.952   0.000  0.00  0.00    +0.000 OA
BRANCH   3   5
ATOM      5  C   UNL     1      -1.238  -0.715   0.000  0.00  0.00    +0.000 C 
ATOM      6  O   UNL     1      -1.952  -1.127   0.000  0.00  0.00    +0.000 OA
ENDBRANCH   3   5
ENDBRANCH   1   3
BRANCH   1   7
ATOM      7  C   UNL     1       0.906  -1.127   0.000  0.00  0.00    +0.000 C 
ATOM      8  O   UNL     1       0.906  -1.952   0.000  0.00  0.00    +0.000 OA
BRANCH   7  10
ATOM      9  C   UNL     1       2.335  -1.127   0.000  0.00  0.00    +0.000 C 
ATOM     10  C   UNL     1       1.620  -0.715   0.000  0.00  0.00    +0.000 C 
ATOM     11  O   UNL     1       1.620   0.111   0.000  0.00  0.00    +0.000 OA
ENDBRANCH   7  10
ENDBRANCH   1   7
TORSDOF 4
