REMARK  Name = 
REMARK  9 active torsions:
REMARK  status: ('A' for Active; 'I' for Inactive)
REMARK    1  A    between atoms: C_2  and  C_4
REMARK    2  A    between atoms: C_7  and  N_8
REMARK    3  A    between atoms: N_8  and  CA_9
REMARK    4  A    between atoms: CA_9  and  C_10
REMARK    5  A    between atoms: CA_9  and  C_13
REMARK    6  A    between atoms: C_16  and  O_17
REMARK    7  A    between atoms: O_17  and  C_18
REMARK    8  A    between atoms: C_24  and  O_25
REMARK    9  A    between atoms: O_25  and  C_26
REMARK                            x       y       z     vdW  Elec       q    Type
REMARK                         _______ _______ _______ _____ _____    ______ ____
ROOT
ATOM      1  C   UNL     1      -2.143   5.941   0.000  0.00  0.00    +0.000 A 
ATOM      2  C   UNL     1      -1.429   5.529   0.000  0.00  0.00    +0.000 A 
ATOM      3  F   UNL     1      -0.715   5.941   0.000  0.00  0.00    +0.000 F 
ATOM      4  C   UNL     1      -1.429   4.704   0.000  0.00  0.00    +0.000 A 
ATOM      5  C   UNL     1      -2.143   4.291   0.000  0.00  0.00    +0.000 A 
ATOM      6  C   UNL     1      -2.858   4.704   0.000  0.00  0.00    +0.000 A 
ATOM      7  C   UNL     1      -2.858   5.529   0.000  0.00  0.00    +0.000 A 
ENDROOT
BRANCH   1   8
ATOM      8  CA  UNL     1      -2.143   6.766   0.000  0.00  0.00    +0.000 C 
BRANCH   8   9
ATOM      9  C   UNL     1      -1.429   7.179   0.000  0.00  0.00    +0.000 C 
ATOM     10  O   UNL     1      -0.715   6.766   0.000  0.00  0.00    +0.000 OA
ATOM     11  OXT UNL     1      -1.429   8.004   0.000  0.00  0.00    +0.000 OA
ENDBRANCH   8   9
BRANCH   8  12
ATOM     12  N   UNL     1      -2.858   7.179   0.000  0.00  0.00    +0.000 NA
BRANCH  12  16
ATOM     13  C   UNL     1      -2.858   9.654   0.000  0.00  0.00    +0.000 A 
ATOM     14  C   UNL     1      -2.143   9.241   0.000  0.00  0.00    +0.000 A 
ATOM     15  C   UNL     1      -2.143   8.416   0.000  0.00  0.00    +0.000 A 
ATOM     16  C   UNL     1      -2.858   8.004   0.000  0.00  0.00    +0.000 A 
ATOM     17  C   UNL     1      -3.572   8.416   0.000  0.00  0.00    +0.000 A 
ATOM     18  C   UNL     1      -3.572   9.241   0.000  0.00  0.00    +0.000 A 
BRANCH  13  20
ATOM     19  N   UNL     1      -3.572  10.891   0.000  0.00  0.00    +0.000 NA
ATOM     20  C   UNL     1      -2.858  10.479   0.000  0.00  0.00    +0.000 C 
ATOM     21  N   UNL     1      -2.143  10.891   0.000  0.00  0.00    +0.000 NA
ENDBRANCH  13  20
ENDBRANCH  12  16
ENDBRANCH   8  12
ENDBRANCH   1   8
BRANCH   4  22
ATOM     22  O   UNL     1      -0.715   4.291   0.000  0.00  0.00    +0.000 OA
BRANCH  22  23
ATOM     23  C   UNL     1      -0.715   3.466   0.000  0.00  0.00    +0.000 C 
ATOM     24  C   UNL     1      -0.047   2.981   0.000  0.00  0.00    +0.000 C 
ATOM     25  C   UNL     1      -0.302   2.196   0.000  0.00  0.00    +0.000 C 
ATOM     26  O   UNL     1      -1.127   2.196   0.000  0.00  0.00    +0.000 OA
ATOM     27  C   UNL     1      -1.382   2.981   0.000  0.00  0.00    +0.000 C 
ENDBRANCH  22  23
ENDBRANCH   4  22
BRANCH   6  28
ATOM     28  O   UNL     1      -3.572   4.291   0.000  0.00  0.00    +0.000 OA
BRANCH  28  29
ATOM     29  C   UNL     1      -3.572   3.466   0.000  0.00  0.00    +0.000 C 
ATOM     30  C   UNL     1      -4.287   3.054   0.000  0.00  0.00    +0.000 C 
ENDBRANCH  28  29
ENDBRANCH   6  28
TORSDOF 9
