REMARK  Name = 
REMARK  2 active torsions:
REMARK  status: ('A' for Active; 'I' for Inactive)
REMARK    1  A    between atoms: C_7  and  N_11
REMARK    2  A    between atoms: C_8  and  S_18
REMARK                            x       y       z     vdW  Elec       q    Type
REMARK                         _______ _______ _______ _____ _____    ______ ____
ROOT
ATOM      1  C   UNL     1       4.067   2.348   0.000  0.00  0.00    +0.000 C 
ATOM      2  C   UNL     1       3.352   1.110   0.000  0.00  0.00    +0.000 C 
ATOM      3  C   UNL     1       1.139   0.856   0.000  0.00  0.00    +0.000 A 
ATOM      4  C   UNL     1       3.352   1.935   0.000  0.00  0.00    +0.000 C 
ATOM      5  C   UNL     1       1.923   1.110   0.000  0.00  0.00    +0.000 A 
ATOM      6  C   UNL     1       2.638   0.698   0.000  0.00  0.00    +0.000 C 
ATOM      7  C   UNL     1       0.654   1.523   0.000  0.00  0.00    +0.000 A 
ATOM      8  C   UNL     1       1.923   1.935   0.000  0.00  0.00    +0.000 A 
ATOM      9  O   UNL     1       3.025   3.076   0.000  0.00  0.00    +0.000 OA
ATOM     10  O   UNL     1       2.251   3.076   0.000  0.00  0.00    +0.000 OA
ATOM     11  S   UNL     1       1.139   2.190   0.000  0.00  0.00    +0.000 S 
ATOM     12  S   UNL     1       2.638   2.348   0.000  0.00  0.00    +0.000 S 
ENDROOT
BRANCH   7  16
ATOM     13  N   UNL     1      -0.996   1.523   0.000  0.00  0.00    +0.000 NA
ATOM     14  O   UNL     1      -0.171   2.348   0.000  0.00  0.00    +0.000 OA
ATOM     15  O   UNL     1      -0.171   0.698   0.000  0.00  0.00    +0.000 OA
ATOM     16  S   UNL     1      -0.171   1.523   0.000  0.00  0.00    +0.000 S 
ENDBRANCH   7  16
BRANCH   6  18
ATOM     17  C   UNL     1       1.923  -0.540   0.000  0.00  0.00    +0.000 C 
ATOM     18  N   UNL     1       2.638  -0.127   0.000  0.00  0.00    +0.000 NA
ENDBRANCH   6  18
TORSDOF 2
