REMARK  Name = 
REMARK  6 active torsions:
REMARK  status: ('A' for Active; 'I' for Inactive)
REMARK    1  A    between atoms: O_21  and  C_22
REMARK    2  A    between atoms: O_21  and  C_24
REMARK    3  A    between atoms: N_25  and  C_26
REMARK    4  A    between atoms: N_25  and  C_28
REMARK    5  A    between atoms: C_26  and  C_27
REMARK    6  A    between atoms: C_28  and  C_29
REMARK                            x       y       z     vdW  Elec       q    Type
REMARK                         _______ _______ _______ _____ _____    ______ ____
ROOT
ATOM      1  C   UNL     1       1.804  -0.114   0.000  0.00  0.00    +0.000 C 
ATOM      2  C   UNL     1       0.304  -1.096   0.000  0.00  0.00    +0.000 C 
ATOM      3  C   UNL     1       1.804   1.221   0.000  0.00  0.00    +0.000 C 
ATOM      4  C   UNL     1       0.304   1.379   0.000  0.00  0.00    +0.000 C 
ATOM      5  C   UNL     1       2.288   0.554   0.000  0.00  0.00    +0.000 C 
ATOM      6  C   UNL     1      -1.125  -0.271   0.000  0.00  0.00    +0.000 A 
ATOM      7  C   UNL     1      -0.410   0.966   0.000  0.00  0.00    +0.000 C 
ATOM      8  C   UNL     1      -0.410  -1.509   0.000  0.00  0.00    +0.000 C 
ATOM      9  C   UNL     1      -1.125  -1.096   0.000  0.00  0.00    +0.000 A 
ATOM     10  C   UNL     1      -1.839   0.141   0.000  0.00  0.00    +0.000 A 
ATOM     11  C   UNL     1      -1.839  -1.509   0.000  0.00  0.00    +0.000 A 
ATOM     12  C   UNL     1      -2.553  -0.271   0.000  0.00  0.00    +0.000 A 
ATOM     13  C   UNL     1       0.304  -0.271   0.000  0.00  0.00    +0.000 C 
ATOM     14  C   UNL     1      -0.410   0.141   0.000  0.00  0.00    +0.000 C 
ATOM     15  C   UNL     1       1.019   0.966   0.000  0.00  0.00    +0.000 C 
ATOM     16  C   UNL     1       1.019   1.791   0.000  0.00  0.00    +0.000 C 
ATOM     17  C   UNL     1       1.019   0.141   0.000  0.00  0.00    +0.000 C 
ATOM     18  C   UNL     1      -2.553  -1.096   0.000  0.00  0.00    +0.000 A 
ATOM     19  O   UNL     1       1.804   2.046   0.000  0.00  0.00    +0.000 OA
ENDROOT
BRANCH  18  20
ATOM     20  O   UNL     1      -3.268  -1.509   0.000  0.00  0.00    +0.000 OA
BRANCH  20  21
ATOM     21  C   UNL     1      -3.982  -1.096   0.000  0.00  0.00    +0.000 C 
ATOM     22  N   UNL     1      -4.697  -1.509   0.000  0.00  0.00    +0.000 N 
ATOM     23  O   UNL     1      -3.982  -0.271   0.000  0.00  0.00    +0.000 OA
BRANCH  22  24
ATOM     24  C   UNL     1      -4.697  -2.334   0.000  0.00  0.00    +0.000 C 
BRANCH  24  25
ATOM     25  C   UNL     1      -3.982  -2.746   0.000  0.00  0.00    +0.000 C 
ATOM     26 CL   UNL     1      -3.982  -3.571   0.000  0.00  0.00    +0.000 Cl
ENDBRANCH  24  25
ENDBRANCH  22  24
BRANCH  22  27
ATOM     27  C   UNL     1      -5.411  -1.096   0.000  0.00  0.00    +0.000 C 
BRANCH  27  28
ATOM     28  C   UNL     1      -5.411  -0.271   0.000  0.00  0.00    +0.000 C 
ATOM     29 CL   UNL     1      -6.126   0.141   0.000  0.00  0.00    +0.000 Cl
ENDBRANCH  27  28
ENDBRANCH  22  27
ENDBRANCH  20  21
ENDBRANCH  18  20
TORSDOF 6
