REMARK  Name = 
REMARK  5 active torsions:
REMARK  status: ('A' for Active; 'I' for Inactive)
REMARK    1  A    between atoms: C_12  and  C_15
REMARK    2  A    between atoms: C_13  and  C_16
REMARK    3  A    between atoms: C_14  and  C_21
REMARK    4  A    between atoms: C_17  and  N_22
REMARK    5  A    between atoms: C_18  and  N_23
REMARK                            x       y       z     vdW  Elec       q    Type
REMARK                         _______ _______ _______ _____ _____    ______ ____
ROOT
ATOM      1  C   UNL     1      -1.577   1.536   0.000  0.00  0.00    +0.000 A 
ATOM      2  C   UNL     1      -1.577   0.711   0.000  0.00  0.00    +0.000 A 
ATOM      3  C   UNL     1      -0.148   1.536   0.000  0.00  0.00    +0.000 A 
ATOM      4  C   UNL     1      -0.862   1.949   0.000  0.00  0.00    +0.000 A 
ATOM      5  C   UNL     1      -0.862   0.299   0.000  0.00  0.00    +0.000 A 
ATOM      6  C   UNL     1      -0.148   0.711   0.000  0.00  0.00    +0.000 A 
ENDROOT
BRANCH   4   7
ATOM      7  C   UNL     1      -0.862   2.774   0.000  0.00  0.00    +0.000 C 
ATOM      8  O   UNL     1      -0.148   3.186   0.000  0.00  0.00    +0.000 OA
ATOM      9  O   UNL     1      -1.577   3.186   0.000  0.00  0.00    +0.000 OA
ENDBRANCH   4   7
BRANCH   5  11
ATOM     10  C   UNL     1      -1.577  -0.939   0.000  0.00  0.00    +0.000 C 
ATOM     11  N   UNL     1      -0.862  -0.526   0.000  0.00  0.00    +0.000 NA
BRANCH  10  16
ATOM     12  C   UNL     1      -2.291  -3.001   0.000  0.00  0.00    +0.000 A 
ATOM     13  C   UNL     1      -1.577  -3.414   0.000  0.00  0.00    +0.000 A 
ATOM     14  C   UNL     1      -2.291  -2.176   0.000  0.00  0.00    +0.000 A 
ATOM     15  C   UNL     1      -0.862  -3.001   0.000  0.00  0.00    +0.000 A 
ATOM     16  C   UNL     1      -1.577  -1.764   0.000  0.00  0.00    +0.000 A 
ATOM     17  C   UNL     1      -0.862  -2.176   0.000  0.00  0.00    +0.000 A 
ATOM     18  O   UNL     1      -0.148  -1.764   0.000  0.00  0.00    +0.000 OA
ENDBRANCH  10  16
ENDBRANCH   5  11
BRANCH   6  20
ATOM     19  C   UNL     1       1.281   0.711   0.000  0.00  0.00    +0.000 C 
ATOM     20  N   UNL     1       0.567   0.299   0.000  0.00  0.00    +0.000 NA
BRANCH  19  25
ATOM     21  C   UNL     1       2.710  -0.939   0.000  0.00  0.00    +0.000 A 
ATOM     22  C   UNL     1       3.425  -0.526   0.000  0.00  0.00    +0.000 A 
ATOM     23  C   UNL     1       1.996  -0.526   0.000  0.00  0.00    +0.000 A 
ATOM     24  C   UNL     1       3.425   0.299   0.000  0.00  0.00    +0.000 A 
ATOM     25  C   UNL     1       1.996   0.299   0.000  0.00  0.00    +0.000 A 
ATOM     26  C   UNL     1       2.710   0.711   0.000  0.00  0.00    +0.000 A 
ATOM     27  O   UNL     1       2.710   1.536   0.000  0.00  0.00    +0.000 OA
ENDBRANCH  19  25
ENDBRANCH   6  20
TORSDOF 5
REMARK  Name = 
REMARK  5 active torsions:
REMARK  status: ('A' for Active; 'I' for Inactive)
REMARK    1  A    between atoms: C_12  and  C_15
REMARK    2  A    between atoms: C_13  and  C_16
REMARK    3  A    between atoms: C_14  and  C_21
REMARK    4  A    between atoms: C_17  and  N_22
REMARK    5  A    between atoms: C_18  and  N_23
REMARK                            x       y       z     vdW  Elec       q    Type
REMARK                         _______ _______ _______ _____ _____    ______ ____
ROOT
ATOM      1 FE   UNL     1       5.782   0.000   0.000  0.00  0.00    +0.000 Fe
ENDROOT
TORSDOF 0
