REMARK  Name = 
REMARK  9 active torsions:
REMARK  status: ('A' for Active; 'I' for Inactive)
REMARK    1  A    between atoms: C_5  and  C_9
REMARK    2  A    between atoms: C_5  and  N_13
REMARK    3  A    between atoms: C_6  and  C_10
REMARK    4  A    between atoms: C_6  and  O_22
REMARK    5  A    between atoms: C_7  and  C_12
REMARK    6  A    between atoms: C_8  and  N_13
REMARK    7  A    between atoms: C_9  and  C_11
REMARK    8  A    between atoms: C_10  and  C_11
REMARK    9  A    between atoms: O_22  and  P_23
REMARK                            x       y       z     vdW  Elec       q    Type
REMARK                         _______ _______ _______ _____ _____    ______ ____
ROOT
ATOM      1  C   UNL     1       5.001   3.712   0.000  0.00  0.00    +0.000 C 
ATOM      2  O   UNL     1       5.001   4.537   0.000  0.00  0.00    +0.000 OA
ENDROOT
BRANCH   1   3
ATOM      3  C   UNL     1       4.287   3.300   0.000  0.00  0.00    +0.000 C 
ATOM      4  O   UNL     1       4.287   2.475   0.000  0.00  0.00    +0.000 OA
BRANCH   3   5
ATOM      5  C   UNL     1       3.572   3.712   0.000  0.00  0.00    +0.000 C 
ATOM      6  O   UNL     1       3.572   4.537   0.000  0.00  0.00    +0.000 OA
BRANCH   5   7
ATOM      7  C   UNL     1       2.858   3.300   0.000  0.00  0.00    +0.000 C 
BRANCH   7   8
ATOM      8  O   UNL     1       2.143   3.712   0.000  0.00  0.00    +0.000 OA
BRANCH   8  12
ATOM      9  O   UNL     1       0.715   2.888   0.000  0.00  0.00    +0.000 OA
ATOM     10  O   UNL     1       1.016   4.014   0.000  0.00  0.00    +0.000 OA
ATOM     11  O   UNL     1       1.841   2.586   0.000  0.00  0.00    +0.000 OA
ATOM     12  P   UNL     1       1.429   3.300   0.000  0.00  0.00    +0.000 P 
ENDBRANCH   8  12
ENDBRANCH   7   8
ENDBRANCH   5   7
ENDBRANCH   3   5
ENDBRANCH   1   3
BRANCH   1  13
ATOM     13  C   UNL     1       5.716   3.300   0.000  0.00  0.00    +0.000 C 
BRANCH  13  14
ATOM     14  N   UNL     1       6.430   3.712   0.000  0.00  0.00    +0.000 NA
BRANCH  14  20
ATOM     15  C   UNL     1       8.574   2.475   0.000  0.00  0.00    +0.000 A 
ATOM     16  C   UNL     1       8.574   3.300   0.000  0.00  0.00    +0.000 A 
ATOM     17  C   UNL     1       7.859   2.062   0.000  0.00  0.00    +0.000 A 
ATOM     18  C   UNL     1       7.859   3.712   0.000  0.00  0.00    +0.000 A 
ATOM     19  C   UNL     1       7.145   2.475   0.000  0.00  0.00    +0.000 A 
ATOM     20  C   UNL     1       7.145   3.300   0.000  0.00  0.00    +0.000 A 
BRANCH  19  21
ATOM     21  C   UNL     1       6.430   2.062   0.000  0.00  0.00    +0.000 C 
ATOM     22  O   UNL     1       5.716   2.475   0.000  0.00  0.00    +0.000 OA
ATOM     23  O   UNL     1       6.430   1.238   0.000  0.00  0.00    +0.000 OA
ENDBRANCH  19  21
ENDBRANCH  14  20
ENDBRANCH  13  14
ENDBRANCH   1  13
TORSDOF 9
