REMARK  Name = 
REMARK  8 active torsions:
REMARK  status: ('A' for Active; 'I' for Inactive)
REMARK    1  A    between atoms: S_2  and  C_11
REMARK    2  A    between atoms: S_2  and  C_15
REMARK    3  A    between atoms: O_6  and  C_20
REMARK    4  A    between atoms: O_6  and  C_29
REMARK    5  A    between atoms: C_10  and  C_11
REMARK    6  A    between atoms: C_13  and  C_14
REMARK    7  A    between atoms: C_21  and  C_28
REMARK    8  A    between atoms: C_29  and  C_30
REMARK                            x       y       z     vdW  Elec       q    Type
REMARK                         _______ _______ _______ _____ _____    ______ ____
ROOT
ATOM      1  S   UNL     1       5.610  -1.007   0.000  0.00  0.00    +0.000 S 
ATOM      2  N   UNL     1       6.945  -1.007   0.000  0.00  0.00    +0.000 NA
ATOM      3  C   UNL     1       5.865  -0.223   0.000  0.00  0.00    +0.000 A 
ATOM      4  C   UNL     1       6.690  -0.223   0.000  0.00  0.00    +0.000 A 
ATOM      5  C   UNL     1       6.277  -1.492   0.000  0.00  0.00    +0.000 A 
ATOM      6  C   UNL     1       7.175   0.445   0.000  0.00  0.00    +0.000 C 
ENDROOT
BRANCH   5   7
ATOM      7  C   UNL     1       6.277  -2.317   0.000  0.00  0.00    +0.000 A 
ATOM      8  C   UNL     1       6.992  -2.730   0.000  0.00  0.00    +0.000 A 
ATOM      9  C   UNL     1       5.563  -2.730   0.000  0.00  0.00    +0.000 A 
ATOM     10  C   UNL     1       6.277  -3.967   0.000  0.00  0.00    +0.000 A 
ATOM     11  C   UNL     1       6.992  -3.555   0.000  0.00  0.00    +0.000 A 
ATOM     12  C   UNL     1       5.563  -3.555   0.000  0.00  0.00    +0.000 A 
BRANCH  10  16
ATOM     13  F   UNL     1       6.277  -5.617   0.000  0.00  0.00    +0.000 F 
ATOM     14  F   UNL     1       7.103  -4.792   0.000  0.00  0.00    +0.000 F 
ATOM     15  F   UNL     1       5.452  -4.792   0.000  0.00  0.00    +0.000 F 
ATOM     16  C   UNL     1       6.277  -4.792   0.000  0.00  0.00    +0.000 C 
ENDBRANCH  10  16
ENDBRANCH   5   7
BRANCH   3  17
ATOM     17  C   UNL     1       5.380   0.445   0.000  0.00  0.00    +0.000 C 
BRANCH  17  18
ATOM     18  S   UNL     1       4.560   0.359   0.000  0.00  0.00    +0.000 S 
BRANCH  18  19
ATOM     19  C   UNL     1       4.075   1.026   0.000  0.00  0.00    +0.000 A 
ATOM     20  C   UNL     1       2.769   1.607   0.000  0.00  0.00    +0.000 A 
ATOM     21  C   UNL     1       3.254   0.940   0.000  0.00  0.00    +0.000 A 
ATOM     22  C   UNL     1       3.105   2.361   0.000  0.00  0.00    +0.000 A 
ATOM     23  C   UNL     1       4.410   1.780   0.000  0.00  0.00    +0.000 A 
ATOM     24  C   UNL     1       3.925   2.447   0.000  0.00  0.00    +0.000 A 
ATOM     25  C   UNL     1       1.949   1.521   0.000  0.00  0.00    +0.000 C 
BRANCH  22  26
ATOM     26  O   UNL     1       2.620   3.029   0.000  0.00  0.00    +0.000 OA
BRANCH  26  27
ATOM     27  C   UNL     1       2.955   3.782   0.000  0.00  0.00    +0.000 C 
BRANCH  27  30
ATOM     28  O   UNL     1       2.806   5.203   0.000  0.00  0.00    +0.000 OA
ATOM     29  O   UNL     1       1.650   4.363   0.000  0.00  0.00    +0.000 OA
ATOM     30  C   UNL     1       2.470   4.450   0.000  0.00  0.00    +0.000 C 
ENDBRANCH  27  30
ENDBRANCH  26  27
ENDBRANCH  22  26
ENDBRANCH  18  19
ENDBRANCH  17  18
ENDBRANCH   3  17
TORSDOF 8
