REMARK  Name = 
REMARK  3 active torsions:
REMARK  status: ('A' for Active; 'I' for Inactive)
REMARK    1  A    between atoms: C_2  and  CA_4
REMARK    2  A    between atoms: C_9  and  C_10
REMARK    3  A    between atoms: C_10  and  P_11
REMARK                            x       y       z     vdW  Elec       q    Type
REMARK                         _______ _______ _______ _____ _____    ______ ____
ROOT
ATOM      1  CA  UNL     1       1.429   0.825   0.000  0.00  0.00    +0.000 A 
ATOM      2  N   UNL     1       1.429   0.000   0.000  0.00  0.00    +0.000 NA
ATOM      3  C   UNL     1       0.715  -0.412   0.000  0.00  0.00    +0.000 A 
ATOM      4  C   UNL     1       0.000   0.000   0.000  0.00  0.00    +0.000 A 
ATOM      5  C   UNL     1       0.000   0.825   0.000  0.00  0.00    +0.000 A 
ATOM      6  C   UNL     1       0.715   1.238   0.000  0.00  0.00    +0.000 A 
ENDROOT
BRANCH   1   8
ATOM      7  O   UNL     1       2.858   0.825   0.000  0.00  0.00    +0.000 OA
ATOM      8  C   UNL     1       2.143   1.238   0.000  0.00  0.00    +0.000 C 
ATOM      9  OXT UNL     1       2.143   2.062   0.000  0.00  0.00    +0.000 OA
ENDBRANCH   1   8
BRANCH   6  10
ATOM     10  C   UNL     1       0.715   2.062   0.000  0.00  0.00    +0.000 C 
BRANCH  10  11
ATOM     11  P   UNL     1       0.000   2.475   0.000  0.00  0.00    +0.000 P 
ATOM     12  O   UNL     1      -0.715   2.888   0.000  0.00  0.00    +0.000 OA
ATOM     13  O   UNL     1       0.412   3.189   0.000  0.00  0.00    +0.000 OA
ATOM     14  O   UNL     1      -0.412   1.760   0.000  0.00  0.00    +0.000 OA
ENDBRANCH  10  11
ENDBRANCH   6  10
TORSDOF 3
