REMARK  Name = 
REMARK  5 active torsions:
REMARK  status: ('A' for Active; 'I' for Inactive)
REMARK    1  A    between atoms: C_2  and  C_3
REMARK    2  A    between atoms: C_3  and  C_4
REMARK    3  A    between atoms: C_4  and  C_5
REMARK    4  A    between atoms: C_4  and  C_8
REMARK    5  A    between atoms: C_6  and  C_8
REMARK                            x       y       z     vdW  Elec       q    Type
REMARK                         _______ _______ _______ _____ _____    ______ ____
ROOT
ATOM      1  C   UNL     1       0.715  -0.247   0.000  0.00  0.00    +0.000 C 
ENDROOT
BRANCH   1   2
ATOM      2  C   UNL     1       1.429   0.165   0.000  0.00  0.00    +0.000 C 
ATOM      3  O   UNL     1       2.143  -0.247   0.000  0.00  0.00    +0.000 OA
ATOM      4  O   UNL     1       1.429   0.990   0.000  0.00  0.00    +0.000 OA
ENDBRANCH   1   2
BRANCH   1   5
ATOM      5  C   UNL     1       0.000   0.165   0.000  0.00  0.00    +0.000 C 
BRANCH   5   7
ATOM      6  C   UNL     1      -1.429   0.165   0.000  0.00  0.00    +0.000 C 
ATOM      7  C   UNL     1      -0.715  -0.247   0.000  0.00  0.00    +0.000 C 
ENDBRANCH   5   7
ENDBRANCH   1   5
BRANCH   1   8
ATOM      8  C   UNL     1       0.715  -1.073   0.000  0.00  0.00    +0.000 C 
BRANCH   8   9
ATOM      9  C   UNL     1       0.000  -1.485   0.000  0.00  0.00    +0.000 C 
ATOM     10  C   UNL     1       0.000  -2.310   0.000  0.00  0.00    +0.000 C 
ENDBRANCH   8   9
ENDBRANCH   1   8
TORSDOF 5
