REMARK  Name = 
REMARK  1 active torsions:
REMARK  status: ('A' for Active; 'I' for Inactive)
REMARK    1  A    between atoms: C_3  and  C_4
REMARK                            x       y       z     vdW  Elec       q    Type
REMARK                         _______ _______ _______ _____ _____    ______ ____
ROOT
ATOM      1  C   UNL     1       3.292   0.047   0.000  0.00  0.00    +0.000 C 
ATOM      2  C   UNL     1       3.292  -1.382   0.000  0.00  0.00    +0.000 C 
ATOM      3  C   UNL     1       0.000  -1.335   0.000  0.00  0.00    +0.000 C 
ATOM      4  C   UNL     1       0.785  -0.255   0.000  0.00  0.00    +0.000 C 
ATOM      5  C   UNL     1      -0.485  -0.667   0.000  0.00  0.00    +0.000 C 
ATOM      6  C   UNL     1       0.000   0.000   0.000  0.00  0.00    +0.000 C 
ATOM      7  C   UNL     1       0.785  -1.080   0.000  0.00  0.00    +0.000 C 
ATOM      8  C   UNL     1       2.054  -0.667   0.000  0.00  0.00    +0.000 C 
ATOM      9  N   UNL     1       1.569   0.000   0.000  0.00  0.00    +0.000 NA
ATOM     10  N   UNL     1       2.879  -0.667   0.000  0.00  0.00    +0.000 N 
ATOM     11  O   UNL     1      -1.310  -0.667   0.000  0.00  0.00    +0.000 OA
ATOM     12  O   UNL     1      -0.255   0.785   0.000  0.00  0.00    +0.000 OA
ATOM     13  O   UNL     1       1.569  -1.335   0.000  0.00  0.00    +0.000 OA
ENDROOT
BRANCH   3  14
ATOM     14  C   UNL     1      -0.255  -2.119   0.000  0.00  0.00    +0.000 C 
ATOM     15  O   UNL     1       0.297  -2.733   0.000  0.00  0.00    +0.000 OA
ENDBRANCH   3  14
TORSDOF 1
