REMARK  Name = 
REMARK  3 active torsions:
REMARK  status: ('A' for Active; 'I' for Inactive)
REMARK    1  A    between atoms: N_8  and  C_16
REMARK    2  A    between atoms: C_11  and  C_16
REMARK    3  A    between atoms: C_13  and  C_18
REMARK                            x       y       z     vdW  Elec       q    Type
REMARK                         _______ _______ _______ _____ _____    ______ ____
ROOT
ATOM      1  S   UNL     1       3.849   1.217   0.000  0.00  0.00    +0.000 S 
ATOM      2  O   UNL     1       3.594   2.002   0.000  0.00  0.00    +0.000 OA
ATOM      3  O   UNL     1       4.516   1.702   0.000  0.00  0.00    +0.000 OA
ATOM      4  O   UNL     1       1.650  -0.451   0.000  0.00  0.00    +0.000 OA
ATOM      5  N   UNL     1       3.064   0.137   0.000  0.00  0.00    +0.000 N 
ATOM      6  C   UNL     1       4.334   0.550   0.000  0.00  0.00    +0.000 C 
ATOM      7  C   UNL     1       3.064   0.962   0.000  0.00  0.00    +0.000 C 
ATOM      8  C   UNL     1       3.849  -0.118   0.000  0.00  0.00    +0.000 C 
ATOM      9  C   UNL     1       2.232   0.966   0.000  0.00  0.00    +0.000 C 
ATOM     10  C   UNL     1       2.232   0.134   0.000  0.00  0.00    +0.000 C 
ATOM     11  C   UNL     1       5.001   1.035   0.000  0.00  0.00    +0.000 C 
ENDROOT
BRANCH   8  14
ATOM     12  O   UNL     1       3.552  -1.515   0.000  0.00  0.00    +0.000 OA
ATOM     13  O   UNL     1       4.910  -1.074   0.000  0.00  0.00    +0.000 OA
ATOM     14  C   UNL     1       4.104  -0.902   0.000  0.00  0.00    +0.000 C 
ENDBRANCH   8  14
BRANCH   6  15
ATOM     15  C   UNL     1       5.001   0.065   0.000  0.00  0.00    +0.000 C 
BRANCH  15  16
ATOM     16  N   UNL     1       5.755   0.401   0.000  0.00  0.00    +0.000 N 
ATOM     17  N   UNL     1       6.469  -0.012   0.000  0.00  0.00    +0.000 NA
ATOM     18  N   UNL     1       7.082   0.540   0.000  0.00  0.00    +0.000 NA
ATOM     19  C   UNL     1       5.926   1.207   0.000  0.00  0.00    +0.000 A 
ATOM     20  C   UNL     1       6.747   1.294   0.000  0.00  0.00    +0.000 A 
ENDBRANCH  15  16
ENDBRANCH   6  15
TORSDOF 3
