REMARK  Name = 
REMARK  4 active torsions:
REMARK  status: ('A' for Active; 'I' for Inactive)
REMARK    1  A    between atoms: C_2  and  C_4
REMARK    2  A    between atoms: C_6  and  S_7
REMARK    3  A    between atoms: S_7  and  C_8
REMARK    4  A    between atoms: C_13  and  C_15
REMARK                            x       y       z     vdW  Elec       q    Type
REMARK                         _______ _______ _______ _____ _____    ______ ____
ROOT
ATOM      1  S   UNL     1       3.572  -2.888   0.000  0.00  0.00    +0.000 S 
ENDROOT
BRANCH   1   4
ATOM      2  C   UNL     1       2.143  -1.238   0.000  0.00  0.00    +0.000 A 
ATOM      3  C   UNL     1       2.858  -1.650   0.000  0.00  0.00    +0.000 A 
ATOM      4  C   UNL     1       2.858  -2.475   0.000  0.00  0.00    +0.000 A 
ATOM      5  C   UNL     1       2.143  -2.888   0.000  0.00  0.00    +0.000 A 
ATOM      6  C   UNL     1       1.429  -2.475   0.000  0.00  0.00    +0.000 A 
ATOM      7  C   UNL     1       1.429  -1.650   0.000  0.00  0.00    +0.000 A 
ATOM      8  O   UNL     1       0.715  -1.238   0.000  0.00  0.00    +0.000 OA
BRANCH   2  10
ATOM      9  C   UNL     1       1.429   0.000   0.000  0.00  0.00    +0.000 C 
ATOM     10  C   UNL     1       2.143  -0.412   0.000  0.00  0.00    +0.000 C 
ATOM     11  C   UNL     1       2.858   0.000   0.000  0.00  0.00    +0.000 C 
ENDBRANCH   2  10
ENDBRANCH   1   4
BRANCH   1  12
ATOM     12  C   UNL     1       3.572  -3.712   0.000  0.00  0.00    +0.000 A 
ATOM     13  C   UNL     1       4.287  -4.125   0.000  0.00  0.00    +0.000 A 
ATOM     14  C   UNL     1       4.287  -4.950   0.000  0.00  0.00    +0.000 A 
ATOM     15  C   UNL     1       3.572  -5.362   0.000  0.00  0.00    +0.000 A 
ATOM     16  O   UNL     1       3.572  -6.188   0.000  0.00  0.00    +0.000 OA
ATOM     17  C   UNL     1       2.858  -4.950   0.000  0.00  0.00    +0.000 A 
ATOM     18  C   UNL     1       2.858  -4.125   0.000  0.00  0.00    +0.000 A 
BRANCH  17  19
ATOM     19  C   UNL     1       2.143  -5.362   0.000  0.00  0.00    +0.000 C 
ATOM     20  C   UNL     1       1.429  -4.950   0.000  0.00  0.00    +0.000 C 
ATOM     21  C   UNL     1       2.143  -6.188   0.000  0.00  0.00    +0.000 C 
ENDBRANCH  17  19
ENDBRANCH   1  12
TORSDOF 4
