REMARK  Name = 
REMARK  15 active torsions:
REMARK  status: ('A' for Active; 'I' for Inactive)
REMARK    1  A    between atoms: C_2  and  C_3
REMARK    2  A    between atoms: C_3  and  C_4
REMARK    3  A    between atoms: C_4  and  C_5
REMARK    4  A    between atoms: C_5  and  C_6
REMARK    5  A    between atoms: C_6  and  C_7
REMARK    6  A    between atoms: C_7  and  C_8
REMARK    7  A    between atoms: C_8  and  C_15
REMARK    8  A    between atoms: C_9  and  C_10
REMARK    9  A    between atoms: C_9  and  N_18
REMARK   10  A    between atoms: C_11  and  C_13
REMARK   11  A    between atoms: C_11  and  N_18
REMARK   12  A    between atoms: C_12  and  C_14
REMARK   13  A    between atoms: C_13  and  C_16
REMARK   14  A    between atoms: C_14  and  C_17
REMARK   15  A    between atoms: C_16  and  C_17
REMARK                            x       y       z     vdW  Elec       q    Type
REMARK                         _______ _______ _______ _____ _____    ______ ____
ROOT
ATOM      1  C   UNL     1       9.951   3.270   0.000  0.00  0.00    +0.000 C 
ATOM      2  N   UNL     1      10.666   2.858   0.000  0.00  0.00    +0.000 N 
ATOM      3  O   UNL     1       9.951   4.095   0.000  0.00  0.00    +0.000 OA
ENDROOT
BRANCH   2   4
ATOM      4  C   UNL     1      10.666   2.033   0.000  0.00  0.00    +0.000 C 
BRANCH   4   5
ATOM      5  C   UNL     1      11.380   1.620   0.000  0.00  0.00    +0.000 C 
ATOM      6  O   UNL     1      11.380   0.795   0.000  0.00  0.00    +0.000 OA
ENDBRANCH   4   5
ENDBRANCH   2   4
BRANCH   1   7
ATOM      7  C   UNL     1       9.237   2.858   0.000  0.00  0.00    +0.000 C 
BRANCH   7   8
ATOM      8  C   UNL     1       8.522   3.270   0.000  0.00  0.00    +0.000 C 
BRANCH   8   9
ATOM      9  C   UNL     1       7.808   2.858   0.000  0.00  0.00    +0.000 C 
BRANCH   9  10
ATOM     10  C   UNL     1       7.093   3.270   0.000  0.00  0.00    +0.000 C 
BRANCH  10  11
ATOM     11  C   UNL     1       6.379   2.858   0.000  0.00  0.00    +0.000 C 
BRANCH  11  12
ATOM     12  C   UNL     1       5.665   3.270   0.000  0.00  0.00    +0.000 C 
BRANCH  12  14
ATOM     13  C   UNL     1       4.236   3.270   0.000  0.00  0.00    +0.000 C 
ATOM     14  C   UNL     1       4.950   2.858   0.000  0.00  0.00    +0.000 C 
ENDBRANCH  12  14
ENDBRANCH  11  12
ENDBRANCH  10  11
ENDBRANCH   9  10
ENDBRANCH   8   9
ENDBRANCH   7   8
ENDBRANCH   1   7
BRANCH   2  15
ATOM     15  C   UNL     1      11.380   3.270   0.000  0.00  0.00    +0.000 C 
BRANCH  15  16
ATOM     16  C   UNL     1      12.095   2.858   0.000  0.00  0.00    +0.000 C 
ATOM     17  O   UNL     1      12.095   2.033   0.000  0.00  0.00    +0.000 OA
BRANCH  16  18
ATOM     18  C   UNL     1      12.809   3.270   0.000  0.00  0.00    +0.000 C 
ATOM     19  O   UNL     1      12.809   4.095   0.000  0.00  0.00    +0.000 OA
BRANCH  18  20
ATOM     20  C   UNL     1      13.524   2.858   0.000  0.00  0.00    +0.000 C 
ATOM     21  O   UNL     1      13.524   2.033   0.000  0.00  0.00    +0.000 OA
BRANCH  20  22
ATOM     22  C   UNL     1      14.238   3.270   0.000  0.00  0.00    +0.000 C 
ATOM     23  O   UNL     1      14.238   4.095   0.000  0.00  0.00    +0.000 OA
BRANCH  22  24
ATOM     24  C   UNL     1      14.953   2.858   0.000  0.00  0.00    +0.000 C 
ATOM     25  O   UNL     1      15.667   3.270   0.000  0.00  0.00    +0.000 OA
ENDBRANCH  22  24
ENDBRANCH  20  22
ENDBRANCH  18  20
ENDBRANCH  16  18
ENDBRANCH  15  16
ENDBRANCH   2  15
TORSDOF 15
