REMARK  Name = 
REMARK  9 active torsions:
REMARK  status: ('A' for Active; 'I' for Inactive)
REMARK    1  A    between atoms: C_2  and  N_3
REMARK    2  A    between atoms: C_2  and  C_19
REMARK    3  A    between atoms: N_3  and  C_4
REMARK    4  A    between atoms: C_4  and  N_5
REMARK    5  A    between atoms: C_4  and  N_10
REMARK    6  A    between atoms: N_5  and  C_6
REMARK    7  A    between atoms: C_6  and  C_7
REMARK    8  A    between atoms: N_10  and  C_11
REMARK    9  A    between atoms: C_14  and  C_15
REMARK                            x       y       z     vdW  Elec       q    Type
REMARK                         _______ _______ _______ _____ _____    ______ ____
ROOT
ATOM      1  C   UNL     1       1.841  -0.935   0.000  0.00  0.00    +0.000 C 
ENDROOT
BRANCH   1   2
ATOM      2  N   UNL     1       2.666  -0.935   0.000  0.00  0.00    +0.000 NA
BRANCH   2   3
ATOM      3  C   UNL     1       3.079  -1.650   0.000  0.00  0.00    +0.000 C 
BRANCH   3   4
ATOM      4  C   UNL     1       3.904  -1.650   0.000  0.00  0.00    +0.000 C 
ATOM      5  O   UNL     1       4.316  -0.935   0.000  0.00  0.00    +0.000 OA
ATOM      6  O   UNL     1       4.316  -2.365   0.000  0.00  0.00    +0.000 OA
ENDBRANCH   3   4
ENDBRANCH   2   3
ENDBRANCH   1   2
BRANCH   1   7
ATOM      7  N   UNL     1       1.429  -1.650   0.000  0.00  0.00    +0.000 NA
BRANCH   7   9
ATOM      8  C   UNL     1       2.666  -2.365   0.000  0.00  0.00    +0.000 C 
ATOM      9  C   UNL     1       1.841  -2.365   0.000  0.00  0.00    +0.000 C 
BRANCH   9  10
ATOM     10  C   UNL     1       1.429  -3.079   0.000  0.00  0.00    +0.000 A 
ATOM     11  C   UNL     1       1.841  -3.793   0.000  0.00  0.00    +0.000 A 
ATOM     12  C   UNL     1       1.429  -4.508   0.000  0.00  0.00    +0.000 A 
ATOM     13  C   UNL     1       0.604  -4.508   0.000  0.00  0.00    +0.000 A 
ATOM     14  C   UNL     1       0.191  -3.793   0.000  0.00  0.00    +0.000 A 
ATOM     15  C   UNL     1       0.604  -3.079   0.000  0.00  0.00    +0.000 A 
ENDBRANCH   9  10
ENDBRANCH   7   9
ENDBRANCH   1   7
BRANCH   1  16
ATOM     16  N   UNL     1       1.429  -0.221   0.000  0.00  0.00    +0.000 NA
BRANCH  16  17
ATOM     17  C   UNL     1       1.841   0.493   0.000  0.00  0.00    +0.000 A 
ATOM     18  C   UNL     1       1.429   1.208   0.000  0.00  0.00    +0.000 A 
ATOM     19  C   UNL     1       1.841   1.922   0.000  0.00  0.00    +0.000 A 
ATOM     20  C   UNL     1       2.666   1.922   0.000  0.00  0.00    +0.000 A 
ATOM     21  C   UNL     1       3.079   1.208   0.000  0.00  0.00    +0.000 A 
ATOM     22  C   UNL     1       2.666   0.493   0.000  0.00  0.00    +0.000 A 
BRANCH  20  23
ATOM     23  C   UNL     1       3.079   2.637   0.000  0.00  0.00    +0.000 C 
ATOM     24  N   UNL     1       3.904   2.637   0.000  0.00  0.00    +0.000 NA
ENDBRANCH  20  23
ENDBRANCH  16  17
ENDBRANCH   1  16
TORSDOF 9
