REMARK  Name = 
REMARK  9 active torsions:
REMARK  status: ('A' for Active; 'I' for Inactive)
REMARK    1  A    between atoms: C_1  and  N_2
REMARK    2  A    between atoms: C_7  and  C_12
REMARK    3  A    between atoms: C_12  and  O_16
REMARK    4  A    between atoms: O_16  and  P_18
REMARK    5  A    between atoms: P_18  and  O_19
REMARK    6  A    between atoms: O_19  and  P_22
REMARK    7  A    between atoms: P_22  and  O_23
REMARK    8  A    between atoms: O_23  and  C_26
REMARK    9  A    between atoms: C_29  and  C_33
REMARK                            x       y       z     vdW  Elec       q    Type
REMARK                         _______ _______ _______ _____ _____    ______ ____
ROOT
ATOM      1  P   UNL     1      16.217 -13.526   0.000  0.00  0.00    +0.000 P 
ATOM      2  O   UNL     1      16.213 -14.346   0.000  0.00  0.00    +0.000 OA
ATOM      3  O   UNL     1      16.217 -12.701   0.000  0.00  0.00    +0.000 OA
ENDROOT
BRANCH   1   4
ATOM      4  O   UNL     1      17.038 -13.526   0.000  0.00  0.00    +0.000 OA
BRANCH   4   5
ATOM      5  C   UNL     1      17.656 -12.981   0.000  0.00  0.00    +0.000 C 
BRANCH   5   9
ATOM      6  C   UNL     1      19.762 -13.239   0.000  0.00  0.00    +0.000 C 
ATOM      7  O   UNL     1      19.095 -12.761   0.000  0.00  0.00    +0.000 OA
ATOM      8  C   UNL     1      19.507 -14.025   0.000  0.00  0.00    +0.000 C 
ATOM      9  C   UNL     1      18.431 -13.239   0.000  0.00  0.00    +0.000 C 
ATOM     10  C   UNL     1      18.686 -14.025   0.000  0.00  0.00    +0.000 C 
ATOM     11  O   UNL     1      18.201 -14.689   0.000  0.00  0.00    +0.000 OA
BRANCH   6  12
ATOM     12  N   UNL     1      20.199 -12.020   0.000  0.00  0.00    +0.000 N 
ATOM     13  C   UNL     1      19.486 -11.598   0.000  0.00  0.00    +0.000 A 
ATOM     14  C   UNL     1      20.922 -11.598   0.000  0.00  0.00    +0.000 A 
ATOM     15  N   UNL     1      19.486 -10.766   0.000  0.00  0.00    +0.000 NA
ATOM     16  O   UNL     1      18.773 -12.006   0.000  0.00  0.00    +0.000 OA
ATOM     17  C   UNL     1      20.922 -10.766   0.000  0.00  0.00    +0.000 A 
ATOM     18  C   UNL     1      20.199 -10.351   0.000  0.00  0.00    +0.000 A 
ATOM     19  C   UNL     1      21.627 -10.351   0.000  0.00  0.00    +0.000 C 
ATOM     20  O   UNL     1      20.199  -9.533   0.000  0.00  0.00    +0.000 OA
ENDBRANCH   6  12
ENDBRANCH   5   9
ENDBRANCH   4   5
ENDBRANCH   1   4
BRANCH   1  21
ATOM     21  O   UNL     1      15.396 -13.526   0.000  0.00  0.00    +0.000 OA
BRANCH  21  22
ATOM     22  P   UNL     1      14.575 -13.526   0.000  0.00  0.00    +0.000 P 
ATOM     23  O   UNL     1      14.575 -14.346   0.000  0.00  0.00    +0.000 OA
ATOM     24  O   UNL     1      14.575 -12.701   0.000  0.00  0.00    +0.000 OA
BRANCH  22  25
ATOM     25  O   UNL     1      13.754 -13.529   0.000  0.00  0.00    +0.000 OA
BRANCH  25  26
ATOM     26  C   UNL     1      13.042 -13.945   0.000  0.00  0.00    +0.000 C 
ATOM     27  O   UNL     1      12.322 -13.529   0.000  0.00  0.00    +0.000 OA
ATOM     28  C   UNL     1      13.042 -14.776   0.000  0.00  0.00    +0.000 C 
ATOM     29  C   UNL     1      11.610 -13.945   0.000  0.00  0.00    +0.000 C 
ATOM     30  C   UNL     1      12.322 -15.192   0.000  0.00  0.00    +0.000 C 
ATOM     31  O   UNL     1      13.754 -15.181   0.000  0.00  0.00    +0.000 OA
ATOM     32  C   UNL     1      11.610 -14.776   0.000  0.00  0.00    +0.000 C 
ATOM     33  O   UNL     1      12.319 -16.019   0.000  0.00  0.00    +0.000 OA
ATOM     34  O   UNL     1      10.897 -15.181   0.000  0.00  0.00    +0.000 OA
BRANCH  29  35
ATOM     35  C   UNL     1      10.897 -13.529   0.000  0.00  0.00    +0.000 C 
ATOM     36  O   UNL     1      10.897 -12.712   0.000  0.00  0.00    +0.000 OA
ENDBRANCH  29  35
ENDBRANCH  25  26
ENDBRANCH  22  25
ENDBRANCH  21  22
ENDBRANCH   1  21
TORSDOF 9
