REMARK  Name = 
REMARK  6 active torsions:
REMARK  status: ('A' for Active; 'I' for Inactive)
REMARK    1  A    between atoms: CA_2  and  C_3
REMARK    2  A    between atoms: CA_2  and  C_11
REMARK    3  A    between atoms: C_3  and  C_4
REMARK    4  A    between atoms: C_4  and  C_5
REMARK    5  A    between atoms: C_5  and  CA_6
REMARK    6  A    between atoms: CA_6  and  C_8
REMARK                            x       y       z     vdW  Elec       q    Type
REMARK                         _______ _______ _______ _____ _____    ______ ____
ROOT
ATOM      1  C   UNL     1       5.856   2.556   0.000  0.00  0.00    +0.000 C 
ENDROOT
BRANCH   1   2
ATOM      2  C   UNL     1       6.570   2.143   0.000  0.00  0.00    +0.000 C 
BRANCH   2   4
ATOM      3  N   UNL     1       7.285   3.381   0.000  0.00  0.00    +0.000 NA
ATOM      4  CA  UNL     1       7.285   2.556   0.000  0.00  0.00    +0.000 C 
BRANCH   4   5
ATOM      5  C   UNL     1       7.999   2.143   0.000  0.00  0.00    +0.000 C 
ATOM      6  O   UNL     1       8.714   2.556   0.000  0.00  0.00    +0.000 OA
ATOM      7  OXT UNL     1       7.999   1.318   0.000  0.00  0.00    +0.000 OA
ENDBRANCH   4   5
ENDBRANCH   2   4
ENDBRANCH   1   2
BRANCH   1   8
ATOM      8  C   UNL     1       5.141   2.143   0.000  0.00  0.00    +0.000 C 
BRANCH   8   9
ATOM      9  CA  UNL     1       4.427   2.556   0.000  0.00  0.00    +0.000 C 
ATOM     10  N   UNL     1       4.427   3.381   0.000  0.00  0.00    +0.000 NA
BRANCH   9  11
ATOM     11  C   UNL     1       3.712   2.143   0.000  0.00  0.00    +0.000 C 
ATOM     12  O   UNL     1       2.998   2.556   0.000  0.00  0.00    +0.000 OA
ATOM     13  OXT UNL     1       3.712   1.318   0.000  0.00  0.00    +0.000 OA
ENDBRANCH   9  11
ENDBRANCH   8   9
ENDBRANCH   1   8
TORSDOF 6
