REMARK  Name = 
REMARK  7 active torsions:
REMARK  status: ('A' for Active; 'I' for Inactive)
REMARK    1  A    between atoms: C_2  and  C_3
REMARK    2  A    between atoms: C_2  and  C_5
REMARK    3  A    between atoms: C_3  and  O_13
REMARK    4  A    between atoms: C_4  and  C_5
REMARK    5  A    between atoms: O_13  and  P_16
REMARK    6  A    between atoms: O_14  and  P_15
REMARK    7  A    between atoms: O_14  and  P_16
REMARK                            x       y       z     vdW  Elec       q    Type
REMARK                         _______ _______ _______ _____ _____    ______ ____
ROOT
ATOM      1  O   UNL     1      -0.825   0.000   0.000  0.00  0.00    +0.000 OA
ENDROOT
BRANCH   1   4
ATOM      2  O   UNL     1       0.000  -0.825   0.000  0.00  0.00    +0.000 OA
ATOM      3  O   UNL     1       0.000   0.825   0.000  0.00  0.00    +0.000 OA
ATOM      4  P   UNL     1       0.000   0.000   0.000  0.00  0.00    +0.000 P 
BRANCH   4   5
ATOM      5  O   UNL     1       0.825   0.000   0.000  0.00  0.00    +0.000 OA
BRANCH   5   9
ATOM      6  O   UNL     1       1.650   1.429   0.000  0.00  0.00    +0.000 OA
ATOM      7  O   UNL     1       1.952   0.302   0.000  0.00  0.00    +0.000 OA
ATOM      8  O   UNL     1       0.523   1.127   0.000  0.00  0.00    +0.000 OA
ATOM      9  P   UNL     1       1.238   0.715   0.000  0.00  0.00    +0.000 P 
ENDBRANCH   5   9
ENDBRANCH   4   5
ENDBRANCH   1   4
BRANCH   1  10
ATOM     10  C   UNL     1      -1.238  -0.715   0.000  0.00  0.00    +0.000 C 
BRANCH  10  11
ATOM     11  C   UNL     1      -2.062  -0.715   0.000  0.00  0.00    +0.000 C 
BRANCH  11  13
ATOM     12  C   UNL     1      -3.189  -1.016   0.000  0.00  0.00    +0.000 C 
ATOM     13  C   UNL     1      -2.475  -1.429   0.000  0.00  0.00    +0.000 C 
ATOM     14  O   UNL     1      -1.760  -1.841   0.000  0.00  0.00    +0.000 OA
BRANCH  13  15
ATOM     15  C   UNL     1      -2.888  -2.143   0.000  0.00  0.00    +0.000 C 
ATOM     16 BR   UNL     1      -3.712  -2.143   0.000  0.00  0.00    +0.000 Br
ENDBRANCH  13  15
ENDBRANCH  11  13
ENDBRANCH  10  11
ENDBRANCH   1  10
TORSDOF 7
