REMARK  Name = 
REMARK  9 active torsions:
REMARK  status: ('A' for Active; 'I' for Inactive)
REMARK    1  A    between atoms: C_4  and  C_5
REMARK    2  A    between atoms: C_5  and  O_18
REMARK    3  A    between atoms: C_6  and  C_10
REMARK    4  A    between atoms: C_8  and  C_10
REMARK    5  A    between atoms: C_8  and  O_19
REMARK    6  A    between atoms: C_9  and  O_19
REMARK    7  A    between atoms: C_10  and  C_12
REMARK    8  A    between atoms: C_11  and  C_13
REMARK    9  A    between atoms: C_13  and  O_18
REMARK                            x       y       z     vdW  Elec       q    Type
REMARK                         _______ _______ _______ _____ _____    ______ ____
ROOT
ATOM      1  C   UNL     1      -0.504   0.155   0.000  0.00  0.00    +0.000 C 
ATOM      2  C   UNL     1       0.210  -0.257   0.000  0.00  0.00    +0.000 C 
ATOM      3  C   UNL     1       0.487   1.049   0.000  0.00  0.00    +0.000 C 
ATOM      4  N   UNL     1       0.823   0.295   0.000  0.00  0.00    +0.000 NA
ATOM      5  S   UNL     1      -0.333   0.963   0.000  0.00  0.00    +0.000 S 
ENDROOT
BRANCH   2   6
ATOM      6  C   UNL     1       0.296  -1.077   0.000  0.00  0.00    +0.000 C 
ATOM      7  O   UNL     1       1.050  -1.413   0.000  0.00  0.00    +0.000 OA
BRANCH   6   8
ATOM      8  O   UNL     1      -0.371  -1.562   0.000  0.00  0.00    +0.000 OA
BRANCH   8   9
ATOM      9  C   UNL     1      -0.285  -2.383   0.000  0.00  0.00    +0.000 C 
BRANCH   9  11
ATOM     10  C   UNL     1      -0.866  -3.688   0.000  0.00  0.00    +0.000 C 
ATOM     11  C   UNL     1      -0.952  -2.868   0.000  0.00  0.00    +0.000 C 
ENDBRANCH   9  11
ENDBRANCH   8   9
ENDBRANCH   6   8
ENDBRANCH   2   6
BRANCH   3  12
ATOM     12  C   UNL     1       0.900   1.763   0.000  0.00  0.00    +0.000 C 
BRANCH  12  14
ATOM     13  C   UNL     1       2.138   1.049   0.000  0.00  0.00    +0.000 C 
ATOM     14  C   UNL     1       1.725   1.763   0.000  0.00  0.00    +0.000 C 
BRANCH  14  15
ATOM     15  O   UNL     1       2.138   2.478   0.000  0.00  0.00    +0.000 OA
BRANCH  15  17
ATOM     16  C   UNL     1       3.375   3.192   0.000  0.00  0.00    +0.000 C 
ATOM     17  C   UNL     1       2.962   2.478   0.000  0.00  0.00    +0.000 C 
ATOM     18  O   UNL     1       3.375   1.763   0.000  0.00  0.00    +0.000 OA
ENDBRANCH  15  17
ENDBRANCH  14  15
ENDBRANCH  12  14
BRANCH  12  19
ATOM     19  C   UNL     1       0.487   2.478   0.000  0.00  0.00    +0.000 C 
ATOM     20  O   UNL     1       0.900   3.192   0.000  0.00  0.00    +0.000 OA
ENDBRANCH  12  19
ENDBRANCH   3  12
TORSDOF 9
