REMARK  Name = 
REMARK  2 active torsions:
REMARK  status: ('A' for Active; 'I' for Inactive)
REMARK    1  A    between atoms: C_5  and  S_8
REMARK    2  A    between atoms: S_8  and  N_11
REMARK                            x       y       z     vdW  Elec       q    Type
REMARK                         _______ _______ _______ _____ _____    ______ ____
ROOT
ATOM      1  S   UNL     1       1.322   5.590   0.000  0.00  0.00    +0.000 S 
ATOM      2  O   UNL     1       0.910   4.876   0.000  0.00  0.00    +0.000 OA
ATOM      3  O   UNL     1       1.735   6.305   0.000  0.00  0.00    +0.000 OA
ENDROOT
BRANCH   1   8
ATOM      4  N   UNL     1      -1.536   7.240   0.000  0.00  0.00    +0.000 NA
ATOM      5  C   UNL     1      -0.821   6.828   0.000  0.00  0.00    +0.000 A 
ATOM      6  C   UNL     1      -0.107   7.240   0.000  0.00  0.00    +0.000 A 
ATOM      7  C   UNL     1       0.608   6.828   0.000  0.00  0.00    +0.000 A 
ATOM      8  C   UNL     1       0.608   6.003   0.000  0.00  0.00    +0.000 A 
ATOM      9  C   UNL     1      -0.107   5.590   0.000  0.00  0.00    +0.000 A 
ATOM     10  C   UNL     1      -0.821   6.003   0.000  0.00  0.00    +0.000 A 
ENDBRANCH   1   8
BRANCH   1  11
ATOM     11  N   UNL     1       2.037   5.178   0.000  0.00  0.00    +0.000 NA
ATOM     12  C   UNL     1       2.037   4.353   0.000  0.00  0.00    +0.000 A 
ATOM     13  N   UNL     1       2.704   3.868   0.000  0.00  0.00    +0.000 NA
ATOM     14  C   UNL     1       2.449   3.083   0.000  0.00  0.00    +0.000 A 
ATOM     15  C   UNL     1       1.624   3.083   0.000  0.00  0.00    +0.000 A 
ATOM     16  S   UNL     1       1.369   3.868   0.000  0.00  0.00    +0.000 S 
ENDBRANCH   1  11
TORSDOF 2
