REMARK  Name = 
REMARK  6 active torsions:
REMARK  status: ('A' for Active; 'I' for Inactive)
REMARK    1  A    between atoms: C_1  and  C_2
REMARK    2  A    between atoms: C_1  and  O_14
REMARK    3  A    between atoms: C_2  and  C_3
REMARK    4  A    between atoms: C_3  and  C_4
REMARK    5  A    between atoms: C_4  and  C_5
REMARK    6  A    between atoms: O_14  and  P_15
REMARK                            x       y       z     vdW  Elec       q    Type
REMARK                         _______ _______ _______ _____ _____    ______ ____
ROOT
ATOM      1  C   UNL     1       0.523   1.127   0.000  0.00  0.00    +0.000 C 
ATOM      2  O   UNL     1       0.523   1.952   0.000  0.00  0.00    +0.000 OA
ENDROOT
BRANCH   1   3
ATOM      3  C   UNL     1       1.238   0.715   0.000  0.00  0.00    +0.000 C 
ATOM      4  O   UNL     1       1.238  -0.111   0.000  0.00  0.00    +0.000 OA
BRANCH   3   5
ATOM      5  C   UNL     1       1.952   1.127   0.000  0.00  0.00    +0.000 C 
ATOM      6  O   UNL     1       1.952   1.952   0.000  0.00  0.00    +0.000 OA
BRANCH   5   7
ATOM      7  C   UNL     1       2.666   0.715   0.000  0.00  0.00    +0.000 C 
ATOM      8  O   UNL     1       3.381   1.127   0.000  0.00  0.00    +0.000 OA
ATOM      9  O   UNL     1       2.666  -0.111   0.000  0.00  0.00    +0.000 OA
ENDBRANCH   5   7
ENDBRANCH   3   5
ENDBRANCH   1   3
BRANCH   1  10
ATOM     10  C   UNL     1      -0.191   0.715   0.000  0.00  0.00    +0.000 C 
BRANCH  10  11
ATOM     11  O   UNL     1      -0.906   1.127   0.000  0.00  0.00    +0.000 OA
BRANCH  11  15
ATOM     12  O   UNL     1      -2.335   0.302   0.000  0.00  0.00    +0.000 OA
ATOM     13  O   UNL     1      -2.033   1.429   0.000  0.00  0.00    +0.000 OA
ATOM     14  O   UNL     1      -1.208   0.000   0.000  0.00  0.00    +0.000 OA
ATOM     15  P   UNL     1      -1.620   0.715   0.000  0.00  0.00    +0.000 P 
ENDBRANCH  11  15
ENDBRANCH  10  11
ENDBRANCH   1  10
TORSDOF 6
