REMARK  Name = 
REMARK  7 active torsions:
REMARK  status: ('A' for Active; 'I' for Inactive)
REMARK    1  A    between atoms: O_2  and  C_8
REMARK    2  A    between atoms: O_2  and  C_9
REMARK    3  A    between atoms: O_3  and  C_11
REMARK    4  A    between atoms: O_3  and  C_19
REMARK    5  A    between atoms: O_5  and  C_16
REMARK    6  A    between atoms: O_5  and  C_24
REMARK    7  A    between atoms: C_8  and  C_16
REMARK                            x       y       z     vdW  Elec       q    Type
REMARK                         _______ _______ _______ _____ _____    ______ ____
ROOT
ATOM      1  C   UNL     1       7.118  -0.412   0.000  0.00  0.00    +0.000 A 
ATOM      2  C   UNL     1       6.293   1.016   0.000  0.00  0.00    +0.000 A 
ATOM      3  C   UNL     1       7.531   0.302   0.000  0.00  0.00    +0.000 A 
ATOM      4  C   UNL     1       6.293  -0.412   0.000  0.00  0.00    +0.000 A 
ATOM      5  C   UNL     1       7.118   1.016   0.000  0.00  0.00    +0.000 A 
ATOM      6  C   UNL     1       5.881   0.302   0.000  0.00  0.00    +0.000 A 
ENDROOT
BRANCH   2   7
ATOM      7  O   UNL     1       5.881   1.731   0.000  0.00  0.00    +0.000 OA
BRANCH   7  13
ATOM      8 CL   UNL     1       1.650   2.556   0.000  0.00  0.00    +0.000 Cl
ATOM      9  O   UNL     1       4.574   2.395   0.000  0.00  0.00    +0.000 OA
ATOM     10  N   UNL     1       4.574   1.067   0.000  0.00  0.00    +0.000 NA
ATOM     11  C   UNL     1       3.793   2.143   0.000  0.00  0.00    +0.000 A 
ATOM     12  C   UNL     1       3.793   1.319   0.000  0.00  0.00    +0.000 A 
ATOM     13  C   UNL     1       5.056   1.731   0.000  0.00  0.00    +0.000 A 
ATOM     14  C   UNL     1       3.079   2.556   0.000  0.00  0.00    +0.000 A 
ATOM     15  C   UNL     1       3.079   0.906   0.000  0.00  0.00    +0.000 A 
ATOM     16  C   UNL     1       2.365   2.143   0.000  0.00  0.00    +0.000 A 
ATOM     17  C   UNL     1       2.365   1.319   0.000  0.00  0.00    +0.000 A 
ENDBRANCH   7  13
ENDBRANCH   2   7
BRANCH   1  18
ATOM     18  O   UNL     1       7.531  -1.127   0.000  0.00  0.00    +0.000 OA
BRANCH  18  19
ATOM     19  C   UNL     1       8.356  -1.127   0.000  0.00  0.00    +0.000 C 
ATOM     20  C   UNL     1       8.768  -0.412   0.000  0.00  0.00    +0.000 C 
BRANCH  19  22
ATOM     21  O   UNL     1       8.356  -2.556   0.000  0.00  0.00    +0.000 OA
ATOM     22  C   UNL     1       8.768  -1.841   0.000  0.00  0.00    +0.000 C 
BRANCH  22  23
ATOM     23  O   UNL     1       9.593  -1.841   0.000  0.00  0.00    +0.000 OA
BRANCH  23  24
ATOM     24  C   UNL     1      10.006  -2.556   0.000  0.00  0.00    +0.000 C 
ATOM     25  C   UNL     1      10.831  -2.556   0.000  0.00  0.00    +0.000 C 
ENDBRANCH  23  24
ENDBRANCH  22  23
ENDBRANCH  19  22
ENDBRANCH  18  19
ENDBRANCH   1  18
TORSDOF 7
