REMARK  Name = 
REMARK  2 active torsions:
REMARK  status: ('A' for Active; 'I' for Inactive)
REMARK    1  A    between atoms: N9_6  and  C1*_11
REMARK    2  A    between atoms: C4*_13  and  C5*_14
REMARK                            x       y       z     vdW  Elec       q    Type
REMARK                         _______ _______ _______ _____ _____    ______ ____
ROOT
ATOM      1  O6    I A   1       2.365  -3.158   0.000  0.00  0.00    +0.000 OA
ATOM      2  N9    I A   1       3.860  -0.845   0.000  0.00  0.00    +0.000 N 
ATOM      3  N3    I A   1       2.365  -0.683   0.000  0.00  0.00    +0.000 NA
ATOM      4  N7    I A   1       3.860  -2.172   0.000  0.00  0.00    +0.000 NA
ATOM      5  N1    I A   1       1.650  -1.921   0.000  0.00  0.00    +0.000 NA
ATOM      6  C4    I A   1       3.079  -1.096   0.000  0.00  0.00    +0.000 A 
ATOM      7  C8    I A   1       4.341  -1.508   0.000  0.00  0.00    +0.000 A 
ATOM      8  C5    I A   1       3.079  -1.921   0.000  0.00  0.00    +0.000 A 
ATOM      9  C6    I A   1       2.365  -2.333   0.000  0.00  0.00    +0.000 A 
ATOM     10  C2    I A   1       1.650  -1.096   0.000  0.00  0.00    +0.000 A 
ENDROOT
BRANCH   2  15
ATOM     11  O4*   I A   1       3.632   0.608   0.000  0.00  0.00    +0.000 OA
ATOM     12  O2*   I A   1       5.567  -0.293   0.000  0.00  0.00    +0.000 OA
ATOM     13  O3*   I A   1       5.571   1.502   0.000  0.00  0.00    +0.000 OA
ATOM     14  C2*   I A   1       4.901   0.193   0.000  0.00  0.00    +0.000 C 
ATOM     15  C1*   I A   1       4.116  -0.060   0.000  0.00  0.00    +0.000 C 
ATOM     16  C3*   I A   1       4.902   1.018   0.000  0.00  0.00    +0.000 C 
ATOM     17  C4*   I A   1       4.118   1.274   0.000  0.00  0.00    +0.000 C 
BRANCH  17  19
ATOM     18  O5*   I A   1       4.418   2.672   0.000  0.00  0.00    +0.000 OA
ATOM     19  C5*   I A   1       3.865   2.060   0.000  0.00  0.00    +0.000 C 
ENDBRANCH  17  19
ENDBRANCH   2  15
TORSDOF 2
