REMARK  Name = 
REMARK  2 active torsions:
REMARK  status: ('A' for Active; 'I' for Inactive)
REMARK    1  A    between atoms: C5*_2  and  C4*_4
REMARK    2  A    between atoms: C1*_8  and  N_11
REMARK                            x       y       z     vdW  Elec       q    Type
REMARK                         _______ _______ _______ _____ _____    ______ ____
ROOT
ATOM      1  C4* UNL     1      -1.276   3.788   0.000  0.00  0.00    +0.000 C 
ATOM      2  C3* UNL     1      -1.530   3.004   0.000  0.00  0.00    +0.000 C 
ATOM      3  C2* UNL     1      -0.863   2.519   0.000  0.00  0.00    +0.000 C 
ATOM      4  C1* UNL     1      -0.196   3.004   0.000  0.00  0.00    +0.000 C 
ATOM      5  O3* UNL     1      -2.315   2.749   0.000  0.00  0.00    +0.000 OA
ATOM      6  O2* UNL     1      -0.863   1.694   0.000  0.00  0.00    +0.000 OA
ATOM      7  O4* UNL     1      -0.451   3.788   0.000  0.00  0.00    +0.000 OA
ENDROOT
BRANCH   4  13
ATOM      8  C   UNL     1       1.924   2.749   0.000  0.00  0.00    +0.000 A 
ATOM      9  C   UNL     1       0.844   1.964   0.000  0.00  0.00    +0.000 A 
ATOM     10  C   UNL     1       1.256   3.234   0.000  0.00  0.00    +0.000 A 
ATOM     11  N   UNL     1       1.256   4.059   0.000  0.00  0.00    +0.000 NA
ATOM     12  N   UNL     1       1.669   1.964   0.000  0.00  0.00    +0.000 NA
ATOM     13  N   UNL     1       0.589   2.749   0.000  0.00  0.00    +0.000 N 
ENDBRANCH   4  13
BRANCH   1  14
ATOM     14  C5* UNL     1      -1.760   4.456   0.000  0.00  0.00    +0.000 C 
ATOM     15  O5* UNL     1      -2.581   4.370   0.000  0.00  0.00    +0.000 OA
ENDBRANCH   1  14
TORSDOF 2
