REMARK  Name = 
REMARK  7 active torsions:
REMARK  status: ('A' for Active; 'I' for Inactive)
REMARK    1  A    between atoms: C_1  and  C_23
REMARK    2  A    between atoms: CA_4  and  C_20
REMARK    3  A    between atoms: CA_7  and  N_31
REMARK    4  A    between atoms: C_10  and  C_11
REMARK    5  A    between atoms: C_11  and  C_14
REMARK    6  A    between atoms: N_13  and  O_15
REMARK    7  A    between atoms: C_24  and  C_25
REMARK                            x       y       z     vdW  Elec       q    Type
REMARK                         _______ _______ _______ _____ _____    ______ ____
ROOT
ATOM      1  C   UNL     1      10.535  -8.471   0.000  0.00  0.00    +0.000 C 
ATOM      2  C   UNL     1      10.535  -7.646   0.000  0.00  0.00    +0.000 C 
ATOM      3  S   UNL     1       9.821  -7.233   0.000  0.00  0.00    +0.000 S 
ATOM      4  CA  UNL     1       9.821  -8.883   0.000  0.00  0.00    +0.000 C 
ATOM      5  N   UNL     1       9.106  -8.471   0.000  0.00  0.00    +0.000 N 
ATOM      6  C   UNL     1       9.106  -7.646   0.000  0.00  0.00    +0.000 C 
ATOM      7  CA  UNL     1       8.281  -7.646   0.000  0.00  0.00    +0.000 C 
ATOM      8  C   UNL     1       8.281  -8.471   0.000  0.00  0.00    +0.000 C 
ATOM      9  O   UNL     1       7.567  -8.883   0.000  0.00  0.00    +0.000 OA
ENDROOT
BRANCH   7  12
ATOM     10  C   UNL     1       6.852  -7.646   0.000  0.00  0.00    +0.000 C 
ATOM     11  O   UNL     1       6.852  -8.471   0.000  0.00  0.00    +0.000 OA
ATOM     12  N   UNL     1       7.567  -7.233   0.000  0.00  0.00    +0.000 NA
BRANCH  10  13
ATOM     13  C   UNL     1       6.138  -7.233   0.000  0.00  0.00    +0.000 C 
ATOM     14  N   UNL     1       6.138  -6.408   0.000  0.00  0.00    +0.000 NA
BRANCH  13  15
ATOM     15  C   UNL     1       5.423  -7.646   0.000  0.00  0.00    +0.000 A 
ATOM     16  C   UNL     1       5.337  -8.466   0.000  0.00  0.00    +0.000 A 
ATOM     17  S   UNL     1       4.530  -8.638   0.000  0.00  0.00    +0.000 S 
ATOM     18  C   UNL     1       4.117  -7.923   0.000  0.00  0.00    +0.000 A 
ATOM     19  N   UNL     1       4.670  -7.310   0.000  0.00  0.00    +0.000 NA
ATOM     20  N   UNL     1       3.297  -7.837   0.000  0.00  0.00    +0.000 NA
ENDBRANCH  13  15
BRANCH  14  21
ATOM     21  O   UNL     1       6.852  -5.996   0.000  0.00  0.00    +0.000 OA
ATOM     22  C   UNL     1       6.852  -5.171   0.000  0.00  0.00    +0.000 C 
ENDBRANCH  14  21
ENDBRANCH  10  13
ENDBRANCH   7  12
BRANCH   4  23
ATOM     23  C   UNL     1       9.821  -9.708   0.000  0.00  0.00    +0.000 C 
ATOM     24  O   UNL     1       9.106 -10.121   0.000  0.00  0.00    +0.000 OA
ATOM     25  OXT UNL     1      10.535 -10.121   0.000  0.00  0.00    +0.000 OA
ENDBRANCH   4  23
BRANCH   1  26
ATOM     26  C   UNL     1      11.250  -8.883   0.000  0.00  0.00    +0.000 C 
ATOM     27  C   UNL     1      11.964  -8.471   0.000  0.00  0.00    +0.000 C 
BRANCH  27  28
ATOM     28  C   UNL     1      11.964  -7.646   0.000  0.00  0.00    +0.000 A 
ATOM     29  C   UNL     1      12.632  -7.161   0.000  0.00  0.00    +0.000 A 
ATOM     30  N   UNL     1      12.377  -6.376   0.000  0.00  0.00    +0.000 NA
ATOM     31  C   UNL     1      11.552  -6.376   0.000  0.00  0.00    +0.000 A 
ATOM     32  S   UNL     1      11.297  -7.161   0.000  0.00  0.00    +0.000 S 
ATOM     33  C   UNL     1      13.416  -7.416   0.000  0.00  0.00    +0.000 C 
ENDBRANCH  27  28
ENDBRANCH   1  26
TORSDOF 7
