REMARK  Name = 
REMARK  10 active torsions:
REMARK  status: ('A' for Active; 'I' for Inactive)
REMARK    1  A    between atoms: C_3  and  C_4
REMARK    2  A    between atoms: C_4  and  C_5
REMARK    3  A    between atoms: C_5  and  CA_12
REMARK    4  A    between atoms: C_7  and  C_11
REMARK    5  A    between atoms: C_7  and  N_16
REMARK    6  A    between atoms: C_8  and  C_10
REMARK    7  A    between atoms: C_8  and  O_23
REMARK    8  A    between atoms: CA_12  and  C_14
REMARK    9  A    between atoms: CA_12  and  N_16
REMARK   10  A    between atoms: O_23  and  P_24
REMARK                            x       y       z     vdW  Elec       q    Type
REMARK                         _______ _______ _______ _____ _____    ______ ____
ROOT
ATOM      1  C   UNL     1       9.288  -2.888   0.000  0.00  0.00    +0.000 C 
ATOM      2  C   UNL     1      10.003  -0.825   0.000  0.00  0.00    +0.000 A 
ATOM      3  C   UNL     1       9.288  -2.062   0.000  0.00  0.00    +0.000 A 
ATOM      4  C   UNL     1       9.288  -0.412   0.000  0.00  0.00    +0.000 A 
ATOM      5  C   UNL     1       8.574  -0.825   0.000  0.00  0.00    +0.000 A 
ATOM      6  C   UNL     1       8.574  -1.650   0.000  0.00  0.00    +0.000 A 
ATOM      7  N   UNL     1      10.003  -1.650   0.000  0.00  0.00    +0.000 NA
ATOM      8  O   UNL     1       7.859  -2.062   0.000  0.00  0.00    +0.000 OA
ENDROOT
BRANCH   5   9
ATOM      9  C   UNL     1       7.859  -0.412   0.000  0.00  0.00    +0.000 C 
BRANCH   9  10
ATOM     10  N   UNL     1       7.145  -0.825   0.000  0.00  0.00    +0.000 NA
BRANCH  10  11
ATOM     11  CA  UNL     1       6.430  -0.412   0.000  0.00  0.00    +0.000 C 
BRANCH  11  12
ATOM     12  C   UNL     1       6.430   0.412   0.000  0.00  0.00    +0.000 C 
ATOM     13  O   UNL     1       7.145   0.825   0.000  0.00  0.00    +0.000 OA
ATOM     14  OXT UNL     1       5.716   0.825   0.000  0.00  0.00    +0.000 OA
ENDBRANCH  11  12
BRANCH  11  15
ATOM     15  C   UNL     1       5.716  -0.825   0.000  0.00  0.00    +0.000 C 
BRANCH  15  16
ATOM     16  C   UNL     1       5.001  -0.412   0.000  0.00  0.00    +0.000 C 
BRANCH  16  18
ATOM     17  C   UNL     1       3.572  -0.412   0.000  0.00  0.00    +0.000 C 
ATOM     18  C   UNL     1       4.287  -0.825   0.000  0.00  0.00    +0.000 C 
ENDBRANCH  16  18
ENDBRANCH  15  16
ENDBRANCH  11  15
ENDBRANCH  10  11
ENDBRANCH   9  10
ENDBRANCH   5   9
BRANCH   4  19
ATOM     19  C   UNL     1       9.288   0.412   0.000  0.00  0.00    +0.000 C 
BRANCH  19  20
ATOM     20  O   UNL     1      10.003   0.825   0.000  0.00  0.00    +0.000 OA
BRANCH  20  24
ATOM     21  O   UNL     1      10.003   2.475   0.000  0.00  0.00    +0.000 OA
ATOM     22  O   UNL     1      10.828   1.650   0.000  0.00  0.00    +0.000 OA
ATOM     23  O   UNL     1       9.178   1.650   0.000  0.00  0.00    +0.000 OA
ATOM     24  P   UNL     1      10.003   1.650   0.000  0.00  0.00    +0.000 P 
ENDBRANCH  20  24
ENDBRANCH  19  20
ENDBRANCH   4  19
TORSDOF 10
