REMARK  Name = 
REMARK  0 active torsions:
REMARK  status: ('A' for Active; 'I' for Inactive)
REMARK                            x       y       z     vdW  Elec       q    Type
REMARK                         _______ _______ _______ _____ _____    ______ ____
ROOT
ATOM      1 CL   UNL     1       0.715   0.000   0.000  0.00  0.00    +0.000 Cl
ATOM      2  O   UNL     1       1.429   0.412   0.000  0.00  0.00    +0.000 OA
ATOM      3  O   UNL     1       0.000   0.412   0.000  0.00  0.00    +0.000 OA
ENDROOT
TORSDOF 0
REMARK  Name = 
REMARK  0 active torsions:
REMARK  status: ('A' for Active; 'I' for Inactive)
REMARK                            x       y       z     vdW  Elec       q    Type
REMARK                         _______ _______ _______ _____ _____    ______ ____
ROOT
ATOM      1 CL   UNL     1       0.715   4.125   0.000  0.00  0.00    +0.000 Cl
ATOM      2  O   UNL     1       1.429   4.538   0.000  0.00  0.00    +0.000 OA
ATOM      3  O   UNL     1       0.000   4.538   0.000  0.00  0.00    +0.000 OA
ENDROOT
TORSDOF 0
REMARK  Name = 
REMARK  0 active torsions:
REMARK  status: ('A' for Active; 'I' for Inactive)
REMARK                            x       y       z     vdW  Elec       q    Type
REMARK                         _______ _______ _______ _____ _____    ______ ____
ROOT
ATOM      1 CL   UNL     1       3.793   4.125   0.000  0.00  0.00    +0.000 Cl
ATOM      2  O   UNL     1       4.508   4.538   0.000  0.00  0.00    +0.000 OA
ATOM      3  O   UNL     1       3.079   4.538   0.000  0.00  0.00    +0.000 OA
ENDROOT
TORSDOF 0
REMARK  Name = 
REMARK  0 active torsions:
REMARK  status: ('A' for Active; 'I' for Inactive)
REMARK                            x       y       z     vdW  Elec       q    Type
REMARK                         _______ _______ _______ _____ _____    ______ ____
ROOT
ATOM      1 CL   UNL     1       3.793   2.062   0.000  0.00  0.00    +0.000 Cl
ATOM      2  O   UNL     1       4.508   2.475   0.000  0.00  0.00    +0.000 OA
ATOM      3  O   UNL     1       3.079   2.475   0.000  0.00  0.00    +0.000 OA
ENDROOT
TORSDOF 0
REMARK  Name = 
REMARK  0 active torsions:
REMARK  status: ('A' for Active; 'I' for Inactive)
REMARK                            x       y       z     vdW  Elec       q    Type
REMARK                         _______ _______ _______ _____ _____    ______ ____
ROOT
ATOM      1  O   HOH     1       3.793   0.000   0.000  0.00  0.00    +0.000 OA
ENDROOT
TORSDOF 0
REMARK  Name = 
REMARK  0 active torsions:
REMARK  status: ('A' for Active; 'I' for Inactive)
REMARK                            x       y       z     vdW  Elec       q    Type
REMARK                         _______ _______ _______ _____ _____    ______ ____
ROOT
ATOM      1  O   UNL     1       1.127   2.062   0.000  0.00  0.00    +0.000 OA
ATOM      2  O   UNL     1       0.302   2.062   0.000  0.00  0.00    +0.000 OA
ENDROOT
TORSDOF 0
