REMARK  Name = 
REMARK  5 active torsions:
REMARK  status: ('A' for Active; 'I' for Inactive)
REMARK    1  A    between atoms: C_11  and  C_14
REMARK    2  A    between atoms: C_11  and  N_25
REMARK    3  A    between atoms: C_15  and  C_18
REMARK    4  A    between atoms: C_16  and  N_23
REMARK    5  A    between atoms: C_17  and  N_26
REMARK                            x       y       z     vdW  Elec       q    Type
REMARK                         _______ _______ _______ _____ _____    ______ ____
ROOT
ATOM      1  C   UNL     1      -4.895   6.003   0.000  0.00  0.00    +0.000 C 
ATOM      2  C   UNL     1      -4.895   6.828   0.000  0.00  0.00    +0.000 C 
ATOM      3  C   UNL     1      -5.609   5.590   0.000  0.00  0.00    +0.000 C 
ATOM      4  C   UNL     1      -6.324   6.828   0.000  0.00  0.00    +0.000 C 
ATOM      5  N   UNL     1      -5.609   7.240   0.000  0.00  0.00    +0.000 NA
ATOM      6  N   UNL     1      -7.038   7.240   0.000  0.00  0.00    +0.000 NA
ATOM      7  N   UNL     1      -6.324   6.003   0.000  0.00  0.00    +0.000 NA
ENDROOT
BRANCH   3  13
ATOM      8  C   UNL     1      -6.324   3.528   0.000  0.00  0.00    +0.000 A 
ATOM      9  C   UNL     1      -5.609   3.115   0.000  0.00  0.00    +0.000 A 
ATOM     10  C   UNL     1      -6.324   4.353   0.000  0.00  0.00    +0.000 A 
ATOM     11  C   UNL     1      -4.895   4.353   0.000  0.00  0.00    +0.000 A 
ATOM     12  C   UNL     1      -4.895   3.528   0.000  0.00  0.00    +0.000 A 
ATOM     13  C   UNL     1      -5.609   4.765   0.000  0.00  0.00    +0.000 A 
BRANCH  12  14
ATOM     14  C   UNL     1      -4.180   3.115   0.000  0.00  0.00    +0.000 C 
BRANCH  14  19
ATOM     15  C   UNL     1      -4.593   1.021   0.000  0.00  0.00    +0.000 A 
ATOM     16  C   UNL     1      -3.513   1.805   0.000  0.00  0.00    +0.000 A 
ATOM     17  N   UNL     1      -3.768   1.021   0.000  0.00  0.00    +0.000 NA
ATOM     18  N   UNL     1      -4.848   1.805   0.000  0.00  0.00    +0.000 NA
ATOM     19  N   UNL     1      -4.180   2.290   0.000  0.00  0.00    +0.000 N 
ENDBRANCH  14  19
ENDBRANCH  12  14
ENDBRANCH   3  13
BRANCH   6  24
ATOM     20  C   UNL     1      -8.467   5.590   0.000  0.00  0.00    +0.000 A 
ATOM     21  C   UNL     1      -7.753   6.003   0.000  0.00  0.00    +0.000 A 
ATOM     22  C   UNL     1      -9.181   6.003   0.000  0.00  0.00    +0.000 A 
ATOM     23  C   UNL     1      -8.467   7.240   0.000  0.00  0.00    +0.000 A 
ATOM     24  C   UNL     1      -7.753   6.828   0.000  0.00  0.00    +0.000 A 
ATOM     25  C   UNL     1      -9.181   6.828   0.000  0.00  0.00    +0.000 A 
BRANCH  25  26
ATOM     26  N   UNL     1      -9.896   7.240   0.000  0.00  0.00    +0.000 N 
ATOM     27  O   UNL     1     -10.610   6.828   0.000  0.00  0.00    +0.000 OA
ATOM     28  O   UNL     1      -9.896   8.065   0.000  0.00  0.00    +0.000 OA
ENDBRANCH  25  26
ENDBRANCH   6  24
TORSDOF 5
