REMARK  Name = 
REMARK  12 active torsions:
REMARK  status: ('A' for Active; 'I' for Inactive)
REMARK    1  A    between atoms: C_4  and  C_5
REMARK    2  A    between atoms: C_5  and  C_6
REMARK    3  A    between atoms: C_6  and  C_7
REMARK    4  A    between atoms: C_9  and  C_10
REMARK    5  A    between atoms: C_10  and  C_11
REMARK    6  A    between atoms: C_11  and  C_12
REMARK    7  A    between atoms: C_12  and  C_24
REMARK    8  A    between atoms: C_13  and  C_14
REMARK    9  A    between atoms: C_14  and  O_15
REMARK   10  A    between atoms: O_15  and  P_16
REMARK   11  A    between atoms: P_16  and  O_19
REMARK   12  A    between atoms: O_19  and  P_20
REMARK                            x       y       z     vdW  Elec       q    Type
REMARK                         _______ _______ _______ _____ _____    ______ ____
ROOT
ATOM      1  C   UNL     1       1.760  -0.191   0.000  0.00  0.00    +0.000 C 
ATOM      2  C   UNL     1       1.760  -1.016   0.000  0.00  0.00    +0.000 C 
ENDROOT
BRANCH   1   3
ATOM      3  C   UNL     1       2.475   0.221   0.000  0.00  0.00    +0.000 C 
ATOM      4  F   UNL     1       3.189   0.634   0.000  0.00  0.00    +0.000 F 
ATOM      5  F   UNL     1       2.888  -0.493   0.000  0.00  0.00    +0.000 F 
ATOM      6  F   UNL     1       2.062   0.935   0.000  0.00  0.00    +0.000 F 
ENDBRANCH   1   3
BRANCH   2   7
ATOM      7  C   UNL     1       2.475  -1.429   0.000  0.00  0.00    +0.000 C 
BRANCH   7   8
ATOM      8  O   UNL     1       3.189  -1.016   0.000  0.00  0.00    +0.000 OA
BRANCH   8   9
ATOM      9  P   UNL     1       3.904  -1.429   0.000  0.00  0.00    +0.000 P 
ATOM     10  O   UNL     1       3.491  -2.143   0.000  0.00  0.00    +0.000 OA
ATOM     11  O   UNL     1       4.316  -0.715   0.000  0.00  0.00    +0.000 OA
BRANCH   9  12
ATOM     12  O   UNL     1       4.618  -1.841   0.000  0.00  0.00    +0.000 OA
BRANCH  12  13
ATOM     13  P   UNL     1       5.333  -1.429   0.000  0.00  0.00    +0.000 P 
ATOM     14  O   UNL     1       6.047  -1.016   0.000  0.00  0.00    +0.000 OA
ATOM     15  O   UNL     1       5.745  -2.143   0.000  0.00  0.00    +0.000 OA
ATOM     16  O   UNL     1       4.920  -0.715   0.000  0.00  0.00    +0.000 OA
ENDBRANCH  12  13
ENDBRANCH   9  12
ENDBRANCH   8   9
ENDBRANCH   7   8
ENDBRANCH   2   7
BRANCH   1  17
ATOM     17  C   UNL     1       1.046   0.221   0.000  0.00  0.00    +0.000 C 
BRANCH  17  18
ATOM     18  C   UNL     1       1.046   1.046   0.000  0.00  0.00    +0.000 C 
BRANCH  18  21
ATOM     19  C   UNL     1       0.332   2.284   0.000  0.00  0.00    +0.000 C 
ATOM     20  C   UNL     1       1.046   2.696   0.000  0.00  0.00    +0.000 C 
ATOM     21  C   UNL     1       0.332   1.459   0.000  0.00  0.00    +0.000 C 
BRANCH  19  22
ATOM     22  C   UNL     1      -0.383   2.696   0.000  0.00  0.00    +0.000 C 
BRANCH  22  23
ATOM     23  C   UNL     1      -0.383   3.521   0.000  0.00  0.00    +0.000 C 
BRANCH  23  27
ATOM     24  C   UNL     1      -1.812   5.171   0.000  0.00  0.00    +0.000 C 
ATOM     25  C   UNL     1      -1.097   4.759   0.000  0.00  0.00    +0.000 C 
ATOM     26  C   UNL     1      -0.383   5.171   0.000  0.00  0.00    +0.000 C 
ATOM     27  C   UNL     1      -1.097   3.934   0.000  0.00  0.00    +0.000 C 
ENDBRANCH  23  27
ENDBRANCH  22  23
ENDBRANCH  19  22
ENDBRANCH  18  21
ENDBRANCH  17  18
ENDBRANCH   1  17
TORSDOF 12
