REMARK  Name = 
REMARK  4 active torsions:
REMARK  status: ('A' for Active; 'I' for Inactive)
REMARK    1  A    between atoms: CA_3  and  N_6
REMARK    2  A    between atoms: CA_4  and  C_8
REMARK    3  A    between atoms: C_7  and  CA_10
REMARK    4  A    between atoms: CA_10  and  C_18
REMARK                            x       y       z     vdW  Elec       q    Type
REMARK                         _______ _______ _______ _____ _____    ______ ____
ROOT
ATOM      1  N   UNL     1       4.292  -3.692   0.000  0.00  0.00    +0.000 N 
ATOM      2  C   UNL     1       3.467  -3.692   0.000  0.00  0.00    +0.000 C 
ATOM      3  CA  UNL     1       3.467  -2.867   0.000  0.00  0.00    +0.000 C 
ATOM      4  CA  UNL     1       5.004  -4.104   0.000  0.00  0.00    +0.000 C 
ATOM      5  C   UNL     1       4.292  -2.867   0.000  0.00  0.00    +0.000 C 
ATOM      6  C   UNL     1       5.725  -3.692   0.000  0.00  0.00    +0.000 C 
ATOM      7  C   UNL     1       5.004  -2.454   0.000  0.00  0.00    +0.000 C 
ATOM      8  O   UNL     1       2.892  -4.275   0.000  0.00  0.00    +0.000 OA
ATOM      9  C   UNL     1       5.725  -2.867   0.000  0.00  0.00    +0.000 C 
ATOM     10 CL   UNL     1       6.442  -4.104   0.000  0.00  0.00    +0.000 Cl
ENDROOT
BRANCH   3  11
ATOM     11  N   UNL     1       2.892  -2.292   0.000  0.00  0.00    +0.000 NA
ATOM     12  C   UNL     1       3.104  -1.504   0.000  0.00  0.00    +0.000 C 
ATOM     13  O   UNL     1       3.904  -1.292   0.000  0.00  0.00    +0.000 OA
BRANCH  12  14
ATOM     14  CA  UNL     1       2.517  -0.917   0.000  0.00  0.00    +0.000 C 
ATOM     15  N   UNL     1       2.729  -0.129   0.000  0.00  0.00    +0.000 NA
BRANCH  14  16
ATOM     16  C   UNL     1       1.717  -1.129   0.000  0.00  0.00    +0.000 A 
ATOM     17  C   UNL     1       1.504  -1.913   0.000  0.00  0.00    +0.000 A 
ATOM     18  C   UNL     1       1.137  -0.542   0.000  0.00  0.00    +0.000 A 
ATOM     19  C   UNL     1       0.350  -0.750   0.000  0.00  0.00    +0.000 A 
ATOM     20  C   UNL     1       0.704  -2.125   0.000  0.00  0.00    +0.000 A 
ATOM     21  C   UNL     1       0.129  -1.542   0.000  0.00  0.00    +0.000 A 
ENDBRANCH  14  16
ENDBRANCH  12  14
ENDBRANCH   3  11
BRANCH   4  22
ATOM     22  C   UNL     1       5.004  -4.929   0.000  0.00  0.00    +0.000 C 
ATOM     23  O   UNL     1       5.725  -5.342   0.000  0.00  0.00    +0.000 OA
ATOM     24  OXT UNL     1       4.292  -5.342   0.000  0.00  0.00    +0.000 OA
ENDBRANCH   4  22
TORSDOF 4
