REMARK  Name = 
REMARK  0 active torsions:
REMARK  status: ('A' for Active; 'I' for Inactive)
REMARK                            x       y       z     vdW  Elec       q    Type
REMARK                         _______ _______ _______ _____ _____    ______ ____
ROOT
ATOM      1 ZN   UNL     1       0.000  -2.620   0.000  0.00  0.00    +0.000 Zn
ATOM      2  O   UNL     1       0.825  -2.621   0.000  0.00  0.00    +0.000 OA
ENDROOT
TORSDOF 0
