REMARK  Name = 
REMARK  8 active torsions:
REMARK  status: ('A' for Active; 'I' for Inactive)
REMARK    1  A    between atoms: CA_3  and  C_15
REMARK    2  A    between atoms: C_4  and  C_14
REMARK    3  A    between atoms: CA_7  and  N_9
REMARK    4  A    between atoms: C_10  and  C_13
REMARK    5  A    between atoms: C_13  and  C_18
REMARK    6  A    between atoms: C_14  and  O_25
REMARK    7  A    between atoms: N_24  and  O_29
REMARK    8  A    between atoms: O_25  and  C_26
REMARK                            x       y       z     vdW  Elec       q    Type
REMARK                         _______ _______ _______ _____ _____    ______ ____
ROOT
ATOM      1  C   UNL     1       9.846  -4.669   0.000  0.00  0.00    +0.000 C 
ATOM      2  N   UNL     1       9.846  -5.494   0.000  0.00  0.00    +0.000 N 
ATOM      3  CA  UNL     1      10.560  -5.906   0.000  0.00  0.00    +0.000 C 
ATOM      4  C   UNL     1      11.275  -5.494   0.000  0.00  0.00    +0.000 C 
ATOM      5  C   UNL     1      11.275  -4.669   0.000  0.00  0.00    +0.000 C 
ATOM      6  S   UNL     1      10.560  -4.257   0.000  0.00  0.00    +0.000 S 
ATOM      7  CA  UNL     1       9.021  -4.669   0.000  0.00  0.00    +0.000 C 
ATOM      8  C   UNL     1       9.021  -5.494   0.000  0.00  0.00    +0.000 C 
ATOM      9  O   UNL     1       8.307  -5.906   0.000  0.00  0.00    +0.000 OA
ENDROOT
BRANCH   3  10
ATOM     10  C   UNL     1      10.560  -6.731   0.000  0.00  0.00    +0.000 C 
ATOM     11  O   UNL     1       9.836  -7.149   0.000  0.00  0.00    +0.000 OA
ATOM     12  OXT UNL     1      11.265  -7.138   0.000  0.00  0.00    +0.000 OA
ENDBRANCH   3  10
BRANCH   7  13
ATOM     13  N   UNL     1       8.307  -4.257   0.000  0.00  0.00    +0.000 NA
ATOM     14  C   UNL     1       7.592  -4.669   0.000  0.00  0.00    +0.000 C 
ATOM     15  O   UNL     1       7.592  -5.494   0.000  0.00  0.00    +0.000 OA
BRANCH  14  16
ATOM     16  C   UNL     1       6.878  -4.257   0.000  0.00  0.00    +0.000 C 
ATOM     17  N   UNL     1       6.878  -3.419   0.000  0.00  0.00    +0.000 NA
BRANCH  16  18
ATOM     18  C   UNL     1       6.152  -4.676   0.000  0.00  0.00    +0.000 A 
ATOM     19  O   UNL     1       5.471  -4.197   0.000  0.00  0.00    +0.000 OA
ATOM     20  C   UNL     1       4.802  -4.696   0.000  0.00  0.00    +0.000 A 
ATOM     21  C   UNL     1       5.071  -5.487   0.000  0.00  0.00    +0.000 A 
ATOM     22  C   UNL     1       5.905  -5.476   0.000  0.00  0.00    +0.000 A 
ENDBRANCH  16  18
BRANCH  17  23
ATOM     23  O   UNL     1       7.594  -3.006   0.000  0.00  0.00    +0.000 OA
ATOM     24  C   UNL     1       7.594  -2.177   0.000  0.00  0.00    +0.000 C 
ENDBRANCH  17  23
ENDBRANCH  14  16
ENDBRANCH   7  13
BRANCH   4  25
ATOM     25  C   UNL     1      12.000  -5.913   0.000  0.00  0.00    +0.000 C 
BRANCH  25  26
ATOM     26  O   UNL     1      12.725  -5.495   0.000  0.00  0.00    +0.000 OA
BRANCH  26  27
ATOM     27  C   UNL     1      13.425  -5.900   0.000  0.00  0.00    +0.000 C 
ATOM     28  N   UNL     1      14.130  -5.493   0.000  0.00  0.00    +0.000 NA
ATOM     29  O   UNL     1      13.425  -6.729   0.000  0.00  0.00    +0.000 OA
ENDBRANCH  26  27
ENDBRANCH  25  26
ENDBRANCH   4  25
TORSDOF 8
