REMARK  Name = 
REMARK  7 active torsions:
REMARK  status: ('A' for Active; 'I' for Inactive)
REMARK    1  A    between atoms: C_7  and  C_9
REMARK    2  A    between atoms: C_10  and  C_18
REMARK    3  A    between atoms: C_12  and  C_17
REMARK    4  A    between atoms: C_13  and  C_21
REMARK    5  A    between atoms: C_14  and  C_16
REMARK    6  A    between atoms: C_16  and  O_24
REMARK    7  A    between atoms: C_20  and  O_24
REMARK                            x       y       z     vdW  Elec       q    Type
REMARK                         _______ _______ _______ _____ _____    ______ ____
ROOT
ATOM      1  C   UNL     1       2.858   3.300   0.000  0.00  0.00    +0.000 C 
ATOM      2  C   UNL     1       3.572   2.062   0.000  0.00  0.00    +0.000 C 
ATOM      3  C   UNL     1       2.858   2.475   0.000  0.00  0.00    +0.000 C 
ENDROOT
BRANCH   2   4
ATOM      4  C   UNL     1       3.572   1.238   0.000  0.00  0.00    +0.000 C 
ATOM      5  C   UNL     1       4.287   0.825   0.000  0.00  0.00    +0.000 C 
BRANCH   5   8
ATOM      6  C   UNL     1       3.572  -0.412   0.000  0.00  0.00    +0.000 C 
ATOM      7  C   UNL     1       5.001  -0.412   0.000  0.00  0.00    +0.000 C 
ATOM      8  C   UNL     1       4.287   0.000   0.000  0.00  0.00    +0.000 C 
BRANCH   7   9
ATOM      9  C   UNL     1       5.001  -1.238   0.000  0.00  0.00    +0.000 C 
BRANCH   9  10
ATOM     10  O   UNL     1       4.287  -1.650   0.000  0.00  0.00    +0.000 OA
BRANCH  10  12
ATOM     11  C   UNL     1       3.572  -2.888   0.000  0.00  0.00    +0.000 C 
ATOM     12  C   UNL     1       4.287  -2.475   0.000  0.00  0.00    +0.000 C 
ATOM     13  O   UNL     1       5.001  -2.888   0.000  0.00  0.00    +0.000 OA
ENDBRANCH  10  12
ENDBRANCH   9  10
ENDBRANCH   7   9
ENDBRANCH   5   8
ENDBRANCH   2   4
BRANCH   3  14
ATOM     14  C   UNL     1       2.143   2.062   0.000  0.00  0.00    +0.000 C 
ATOM     15  C   UNL     1       2.143   1.238   0.000  0.00  0.00    +0.000 C 
BRANCH  15  23
ATOM     16  C   UNL     1       2.143  -0.412   0.000  0.00  0.00    +0.000 C 
ATOM     17  C   UNL     1       0.184   1.869   0.000  0.00  0.00    +0.000 C 
ATOM     18  C   UNL     1       1.245   1.869   0.000  0.00  0.00    +0.000 C 
ATOM     19  C   UNL     1       0.000   0.000   0.000  0.00  0.00    +0.000 C 
ATOM     20  C   UNL     1       0.715  -0.412   0.000  0.00  0.00    +0.000 C 
ATOM     21  C   UNL     1       0.000   0.825   0.000  0.00  0.00    +0.000 C 
ATOM     22  C   UNL     1       1.429   0.000   0.000  0.00  0.00    +0.000 C 
ATOM     23  C   UNL     1       1.429   0.825   0.000  0.00  0.00    +0.000 C 
ATOM     24  C   UNL     1       0.715   1.238   0.000  0.00  0.00    +0.000 C 
ENDBRANCH  15  23
ENDBRANCH   3  14
TORSDOF 7
