REMARK  Name = 
REMARK  7 active torsions:
REMARK  status: ('A' for Active; 'I' for Inactive)
REMARK    1  A    between atoms: C_7  and  O_27
REMARK    2  A    between atoms: C_9  and  O_26
REMARK    3  A    between atoms: C_13  and  C_25
REMARK    4  A    between atoms: O_26  and  C_30
REMARK    5  A    between atoms: O_27  and  C_32
REMARK    6  A    between atoms: C_36  and  N_46
REMARK    7  A    between atoms: C_41  and  O_47
REMARK                            x       y       z     vdW  Elec       q    Type
REMARK                         _______ _______ _______ _____ _____    ______ ____
ROOT
ATOM      1  N   UNL     1      -3.266   2.728   0.000  0.00  0.00    +0.000 NA
ATOM      2  C   UNL     1      -1.768   2.711   0.000  0.00  0.00    +0.000 C 
ATOM      3  C   UNL     1      -3.678   2.014   0.000  0.00  0.00    +0.000 C 
ATOM      4  C   UNL     1      -1.355   1.996   0.000  0.00  0.00    +0.000 C 
ATOM      5  C   UNL     1      -1.768   1.282   0.000  0.00  0.00    +0.000 C 
ATOM      6  C   UNL     1      -1.185   0.698   0.000  0.00  0.00    +0.000 C 
ATOM      7  C   UNL     1      -1.185  -0.127   0.000  0.00  0.00    +0.000 C 
ATOM      8  C   UNL     1      -1.768  -0.710   0.000  0.00  0.00    +0.000 C 
ATOM      9  C   UNL     1      -1.768  -1.535   0.000  0.00  0.00    +0.000 C 
ATOM     10  C   UNL     1      -2.482  -1.948   0.000  0.00  0.00    +0.000 C 
ATOM     11  C   UNL     1      -3.197  -1.535   0.000  0.00  0.00    +0.000 C 
ATOM     12  O   UNL     1      -3.197  -0.710   0.000  0.00  0.00    +0.000 OA
ATOM     13  C   UNL     1      -3.911  -0.297   0.000  0.00  0.00    +0.000 C 
ATOM     14  C   UNL     1      -3.911   0.527   0.000  0.00  0.00    +0.000 C 
ATOM     15  C   UNL     1      -3.328   1.111   0.000  0.00  0.00    +0.000 C 
ATOM     16  C   UNL     1      -3.266   3.553   0.000  0.00  0.00    +0.000 C 
ATOM     17  C   UNL     1      -4.475   2.227   0.000  0.00  0.00    +0.000 C 
ATOM     18  O   UNL     1      -2.531   0.897   0.000  0.00  0.00    +0.000 OA
ATOM     19  O   UNL     1      -4.626   0.940   0.000  0.00  0.00    +0.000 OA
ATOM     20  C   UNL     1      -2.482  -2.772   0.000  0.00  0.00    +0.000 C 
ATOM     21  O   UNL     1      -0.388   0.912   0.000  0.00  0.00    +0.000 OA
ATOM     22  C   UNL     1      -0.558   2.210   0.000  0.00  0.00    +0.000 C 
ATOM     23  C   UNL     1      -0.470   0.286   0.000  0.00  0.00    +0.000 C 
ATOM     24  C   UNL     1      -4.626   0.115   0.000  0.00  0.00    +0.000 C 
ATOM     25  O   UNL     1      -3.911  -1.948   0.000  0.00  0.00    +0.000 OA
ATOM     26  C   UNL     1      -2.482  -0.297   0.000  0.00  0.00    +0.000 C 
ENDROOT
BRANCH  13  27
ATOM     27  C   UNL     1      -4.626  -0.710   0.000  0.00  0.00    +0.000 C 
ATOM     28  C   UNL     1      -5.451  -0.710   0.000  0.00  0.00    +0.000 C 
ENDBRANCH  13  27
BRANCH   9  29
ATOM     29  O   UNL     1      -0.639  -3.207   0.000  0.00  0.00    +0.000 OA
BRANCH  29  30
ATOM     30  C   UNL     1      -0.639  -4.032   0.000  0.00  0.00    +0.000 C 
ATOM     31  C   UNL     1       0.186  -4.032   0.000  0.00  0.00    +0.000 C 
ATOM     32  O   UNL     1      -1.052  -4.746   0.000  0.00  0.00    +0.000 OA
ATOM     33  C   UNL     1      -0.639  -5.461   0.000  0.00  0.00    +0.000 C 
ATOM     34  C   UNL     1       0.185  -5.461   0.000  0.00  0.00    +0.000 C 
ATOM     35  C   UNL     1       0.598  -4.746   0.000  0.00  0.00    +0.000 C 
ATOM     36  C   UNL     1      -1.223  -6.044   0.000  0.00  0.00    +0.000 C 
ATOM     37  C   UNL     1       1.181  -5.330   0.000  0.00  0.00    +0.000 C 
ATOM     38  O   UNL     1       0.598  -6.175   0.000  0.00  0.00    +0.000 OA
BRANCH  35  39
ATOM     39  O   UNL     1       1.181  -4.163   0.000  0.00  0.00    +0.000 OA
ATOM     40  C   UNL     1       2.006  -4.163   0.000  0.00  0.00    +0.000 C 
ENDBRANCH  35  39
ENDBRANCH  29  30
ENDBRANCH   9  29
BRANCH   7  41
ATOM     41  O   UNL     1       0.561  -0.685   0.000  0.00  0.00    +0.000 OA
BRANCH  41  43
ATOM     42  C   UNL     1       1.799  -1.400   0.000  0.00  0.00    +0.000 C 
ATOM     43  C   UNL     1       0.974  -1.400   0.000  0.00  0.00    +0.000 C 
ATOM     44  O   UNL     1       0.561  -2.114   0.000  0.00  0.00    +0.000 OA
ATOM     45  C   UNL     1       0.974  -2.829   0.000  0.00  0.00    +0.000 C 
ATOM     46  C   UNL     1       1.799  -2.829   0.000  0.00  0.00    +0.000 C 
ATOM     47  C   UNL     1       2.211  -2.114   0.000  0.00  0.00    +0.000 C 
ATOM     48  O   UNL     1       2.382  -0.816   0.000  0.00  0.00    +0.000 OA
ATOM     49  C   UNL     1       0.561  -3.543   0.000  0.00  0.00    +0.000 C 
BRANCH  47  50
ATOM     50  N   UNL     1       3.036  -2.114   0.000  0.00  0.00    +0.000 NA
ATOM     51  C   UNL     1       3.619  -1.531   0.000  0.00  0.00    +0.000 C 
ATOM     52  C   UNL     1       3.449  -2.829   0.000  0.00  0.00    +0.000 C 
ENDBRANCH  47  50
ENDBRANCH  41  43
ENDBRANCH   7  41
TORSDOF 7
