REMARK  Name = 
REMARK  0 active torsions:
REMARK  status: ('A' for Active; 'I' for Inactive)
REMARK                            x       y       z     vdW  Elec       q    Type
REMARK                         _______ _______ _______ _____ _____    ______ ____
ROOT
ATOM      1  C   UNL     1      18.894  -5.190   0.000  0.00  0.00    +0.000 C 
ATOM      2  C   UNL     1      18.119  -5.190   0.000  0.00  0.00    +0.000 C 
ATOM      3  C   UNL     1      19.378  -4.607   0.000  0.00  0.00    +0.000 C 
ATOM      4  C   UNL     1      15.254  -4.359   0.000  0.00  0.00    +0.000 A 
ATOM      5  C   UNL     1      15.252  -5.186   0.000  0.00  0.00    +0.000 A 
ATOM      6  C   UNL     1      15.967  -5.598   0.000  0.00  0.00    +0.000 A 
ATOM      7  C   UNL     1      15.965  -3.946   0.000  0.00  0.00    +0.000 A 
ATOM      8  C   UNL     1      16.680  -4.355   0.000  0.00  0.00    +0.000 A 
ATOM      9  C   UNL     1      16.679  -5.188   0.000  0.00  0.00    +0.000 A 
ATOM     10  C   UNL     1      17.396  -5.603   0.000  0.00  0.00    +0.000 C 
ATOM     11  C   UNL     1      18.120  -4.357   0.000  0.00  0.00    +0.000 C 
ATOM     12  C   UNL     1      17.399  -3.937   0.000  0.00  0.00    +0.000 C 
ATOM     13  N   UNL     1      18.743  -4.056   0.000  0.00  0.00    +0.000 NA
ATOM     14  O   UNL     1      14.539  -3.946   0.000  0.00  0.00    +0.000 OA
ATOM     15  C   UNL     1      18.807  -3.354   0.000  0.00  0.00    +0.000 C 
ATOM     16  C   UNL     1      17.982  -3.354   0.000  0.00  0.00    +0.000 C 
ATOM     17  C   UNL     1      19.390  -3.937   0.000  0.00  0.00    +0.000 C 
ATOM     18  C   UNL     1      16.816  -3.349   0.000  0.00  0.00    +0.000 C 
ENDROOT
TORSDOF 0
