REMARK  Name = 
REMARK  1 active torsions:
REMARK  status: ('A' for Active; 'I' for Inactive)
REMARK    1  A    between atoms: C_17  and  C_26
REMARK                            x       y       z     vdW  Elec       q    Type
REMARK                         _______ _______ _______ _____ _____    ______ ____
ROOT
ATOM      1  C   UNL     1       7.101  -8.566   0.000  0.00  0.00    +0.000 C 
ATOM      2  O   UNL     1       7.101  -9.391   0.000  0.00  0.00    +0.000 OA
ATOM      3  C   UNL     1       7.886  -9.646   0.000  0.00  0.00    +0.000 C 
ATOM      4  C   UNL     1       8.371  -8.978   0.000  0.00  0.00    +0.000 C 
ATOM      5  C   UNL     1       7.886  -8.311   0.000  0.00  0.00    +0.000 C 
ATOM      6  C   UNL     1       9.156 -10.058   0.000  0.00  0.00    +0.000 C 
ATOM      7  C   UNL     1       9.156  -9.233   0.000  0.00  0.00    +0.000 C 
ATOM      8  C   UNL     1       9.940 -10.313   0.000  0.00  0.00    +0.000 C 
ATOM      9  C   UNL     1      10.425  -9.646   0.000  0.00  0.00    +0.000 C 
ATOM     10  O   UNL     1       9.940  -8.978   0.000  0.00  0.00    +0.000 OA
ATOM     11  O   UNL     1      11.210  -9.901   0.000  0.00  0.00    +0.000 OA
ATOM     12  C   UNL     1      11.210 -10.726   0.000  0.00  0.00    +0.000 C 
ATOM     13  C   UNL     1      10.425 -10.981   0.000  0.00  0.00    +0.000 C 
ATOM     14  O   UNL     1       6.434  -8.081   0.000  0.00  0.00    +0.000 OA
ATOM     15  C   UNL     1       8.371 -10.313   0.000  0.00  0.00    +0.000 C 
ATOM     16  C   UNL     1       8.671 -10.726   0.000  0.00  0.00    +0.000 C 
ATOM     17  C   UNL     1       9.940 -11.138   0.000  0.00  0.00    +0.000 C 
ATOM     18  C   UNL     1       9.156 -11.393   0.000  0.00  0.00    +0.000 C 
ATOM     19  O   UNL     1      11.807 -11.141   0.000  0.00  0.00    +0.000 OA
ATOM     20  O   UNL     1       8.353  -7.975   0.000  0.00  0.00    +0.000 OA
ATOM     21  C   UNL     1       7.819  -7.512   0.000  0.00  0.00    +0.000 C 
ATOM     22  C   UNL     1       9.005  -8.516   0.000  0.00  0.00    +0.000 C 
ATOM     23  O   UNL     1       8.502  -9.509   0.000  0.00  0.00    +0.000 OA
ATOM     24  O   UNL     1       9.005  -7.873   0.000  0.00  0.00    +0.000 OA
ATOM     25  O   UNL     1      10.823 -11.662   0.000  0.00  0.00    +0.000 OA
ATOM     26  O   UNL     1       8.670 -11.998   0.000  0.00  0.00    +0.000 OA
ENDROOT
BRANCH  17  27
ATOM     27  C   UNL     1       9.998 -11.830   0.000  0.00  0.00    +0.000 C 
ATOM     28  C   UNL     1       9.495 -12.487   0.000  0.00  0.00    +0.000 C 
ATOM     29  C   UNL     1      10.152 -12.655   0.000  0.00  0.00    +0.000 C 
ATOM     30  C   UNL     1      10.655 -12.319   0.000  0.00  0.00    +0.000 C 
ENDBRANCH  17  27
TORSDOF 1
