REMARK  Name = 
REMARK  4 active torsions:
REMARK  status: ('A' for Active; 'I' for Inactive)
REMARK    1  A    between atoms: N_4  and  C_5
REMARK    2  A    between atoms: C_8  and  C_9
REMARK    3  A    between atoms: C_9  and  O_10
REMARK    4  A    between atoms: O_10  and  P_11
REMARK                            x       y       z     vdW  Elec       q    Type
REMARK                         _______ _______ _______ _____ _____    ______ ____
ROOT
ATOM      1  C   UNL     1      -1.322   2.290   0.000  0.00  0.00    +0.000 C 
ATOM      2  C   UNL     1      -0.655   1.805   0.000  0.00  0.00    +0.000 C 
ATOM      3  C   UNL     1      -0.910   1.021   0.000  0.00  0.00    +0.000 C 
ATOM      4  C   UNL     1      -1.735   1.021   0.000  0.00  0.00    +0.000 C 
ATOM      5  O   UNL     1      -1.990   1.805   0.000  0.00  0.00    +0.000 OA
ENDROOT
BRANCH   1   9
ATOM      6  C   UNL     1       0.107   4.765   0.000  0.00  0.00    +0.000 C 
ATOM      7  C   UNL     1      -0.608   4.353   0.000  0.00  0.00    +0.000 A 
ATOM      8  C   UNL     1      -0.608   3.528   0.000  0.00  0.00    +0.000 A 
ATOM      9  N   UNL     1      -1.322   3.115   0.000  0.00  0.00    +0.000 N 
ATOM     10  C   UNL     1      -2.037   3.528   0.000  0.00  0.00    +0.000 A 
ATOM     11  O   UNL     1      -2.751   3.115   0.000  0.00  0.00    +0.000 OA
ATOM     12  N   UNL     1      -2.037   4.353   0.000  0.00  0.00    +0.000 NA
ATOM     13  C   UNL     1      -1.322   4.765   0.000  0.00  0.00    +0.000 A 
ATOM     14  O   UNL     1      -1.322   5.590   0.000  0.00  0.00    +0.000 OA
ENDBRANCH   1   9
BRANCH   4  15
ATOM     15  C   UNL     1      -2.220   0.353   0.000  0.00  0.00    +0.000 C 
BRANCH  15  16
ATOM     16  O   UNL     1      -1.884  -0.401   0.000  0.00  0.00    +0.000 OA
BRANCH  16  17
ATOM     17  P   UNL     1      -2.369  -1.068   0.000  0.00  0.00    +0.000 P 
ATOM     18  O   UNL     1      -2.854  -1.735   0.000  0.00  0.00    +0.000 OA
ATOM     19  O   UNL     1      -1.702  -1.553   0.000  0.00  0.00    +0.000 OA
ATOM     20  O   UNL     1      -3.037  -0.583   0.000  0.00  0.00    +0.000 OA
ENDBRANCH  16  17
ENDBRANCH  15  16
ENDBRANCH   4  15
TORSDOF 4
