REMARK  Name = 
REMARK  5 active torsions:
REMARK  status: ('A' for Active; 'I' for Inactive)
REMARK    1  A    between atoms: C_1  and  C_2
REMARK    2  A    between atoms: C_1  and  O_12
REMARK    3  A    between atoms: C_2  and  C_3
REMARK    4  A    between atoms: C_3  and  C_4
REMARK    5  A    between atoms: O_12  and  P_13
REMARK                            x       y       z     vdW  Elec       q    Type
REMARK                         _______ _______ _______ _____ _____    ______ ____
ROOT
ATOM      1  C   UNL     1       2.062  -0.715   0.000  0.00  0.00    +0.000 C 
ATOM      2  O   UNL     1       2.475   0.000   0.000  0.00  0.00    +0.000 OA
ENDROOT
BRANCH   1   3
ATOM      3  C   UNL     1       2.475  -1.429   0.000  0.00  0.00    +0.000 C 
ATOM      4  O   UNL     1       2.062  -2.143   0.000  0.00  0.00    +0.000 OA
BRANCH   3   5
ATOM      5  C   UNL     1       3.300  -1.429   0.000  0.00  0.00    +0.000 C 
ATOM      6  O   UNL     1       3.712  -2.143   0.000  0.00  0.00    +0.000 OA
ATOM      7  O   UNL     1       3.712  -0.715   0.000  0.00  0.00    +0.000 OA
ENDBRANCH   3   5
ENDBRANCH   1   3
BRANCH   1   8
ATOM      8  C   UNL     1       1.238  -0.715   0.000  0.00  0.00    +0.000 C 
BRANCH   8   9
ATOM      9  O   UNL     1       0.825   0.000   0.000  0.00  0.00    +0.000 OA
BRANCH   9  13
ATOM     10  O   UNL     1      -0.825   0.000   0.000  0.00  0.00    +0.000 OA
ATOM     11  O   UNL     1       0.000   0.825   0.000  0.00  0.00    +0.000 OA
ATOM     12  O   UNL     1       0.000  -0.825   0.000  0.00  0.00    +0.000 OA
ATOM     13  P   UNL     1       0.000   0.000   0.000  0.00  0.00    +0.000 P 
ENDBRANCH   9  13
ENDBRANCH   8   9
ENDBRANCH   1   8
TORSDOF 5
