REMARK  Name = 
REMARK  0 active torsions:
REMARK  status: ('A' for Active; 'I' for Inactive)
REMARK                            x       y       z     vdW  Elec       q    Type
REMARK                         _______ _______ _______ _____ _____    ______ ____
ROOT
ATOM      1  O   UNL     1      -0.481  -2.602   0.000  0.00  0.00    +0.000 OA
ATOM      2  C   UNL     1       0.116  -2.032   0.000  0.00  0.00    +0.000 C 
ATOM      3  C   UNL     1       0.852  -1.659   0.000  0.00  0.00    +0.000 C 
ATOM      4  C   UNL     1       0.852  -0.911   0.000  0.00  0.00    +0.000 C 
ATOM      5  C   UNL     1       1.301  -0.121   0.000  0.00  0.00    +0.000 C 
ATOM      6  C   UNL     1       2.037  -0.494   0.000  0.00  0.00    +0.000 C 
ATOM      7  C   UNL     1       2.037  -1.242   0.000  0.00  0.00    +0.000 C 
ATOM      8  C   UNL     1       1.587  -2.032   0.000  0.00  0.00    +0.000 C 
ATOM      9  C   UNL     1       1.301  -1.616   0.000  0.00  0.00    +0.000 C 
ATOM     10  C   UNL     1       0.566  -1.242   0.000  0.00  0.00    +0.000 C 
ATOM     11  C   UNL     1       0.566  -0.494   0.000  0.00  0.00    +0.000 C 
ENDROOT
TORSDOF 0
