REMARK  Name = 
REMARK  11 active torsions:
REMARK  status: ('A' for Active; 'I' for Inactive)
REMARK    1  A    between atoms: C_2  and  C_4
REMARK    2  A    between atoms: C_4  and  O_6
REMARK    3  A    between atoms: O_6  and  C_7
REMARK    4  A    between atoms: C_8  and  C_15
REMARK    5  A    between atoms: C_10  and  C_13
REMARK    6  A    between atoms: C_15  and  C_16
REMARK    7  A    between atoms: C_15  and  C_25
REMARK    8  A    between atoms: C_16  and  C_17
REMARK    9  A    between atoms: C_17  and  N_18
REMARK   10  A    between atoms: N_18  and  C_19
REMARK   11  A    between atoms: N_18  and  C_22
REMARK                            x       y       z     vdW  Elec       q    Type
REMARK                         _______ _______ _______ _____ _____    ______ ____
ROOT
ATOM      1  C   UNL     1       0.715  -1.238   0.000  0.00  0.00    +0.000 C 
ENDROOT
BRANCH   1   2
ATOM      2  C   UNL     1       0.302  -1.952   0.000  0.00  0.00    +0.000 A 
ATOM      3  C   UNL     1       0.715  -2.666   0.000  0.00  0.00    +0.000 A 
ATOM      4  C   UNL     1       0.302  -3.381   0.000  0.00  0.00    +0.000 A 
ATOM      5  C   UNL     1      -0.523  -3.381   0.000  0.00  0.00    +0.000 A 
ATOM      6  C   UNL     1      -0.935  -2.666   0.000  0.00  0.00    +0.000 A 
ATOM      7  C   UNL     1      -0.523  -1.952   0.000  0.00  0.00    +0.000 A 
ENDBRANCH   1   2
BRANCH   1   9
ATOM      8  C   UNL     1       0.715   0.191   0.000  0.00  0.00    +0.000 A 
ATOM      9  C   UNL     1       0.302  -0.523   0.000  0.00  0.00    +0.000 A 
ATOM     10  C   UNL     1      -0.523  -0.523   0.000  0.00  0.00    +0.000 A 
ATOM     11  C   UNL     1      -0.935   0.191   0.000  0.00  0.00    +0.000 A 
ATOM     12  C   UNL     1      -0.523   0.906   0.000  0.00  0.00    +0.000 A 
ATOM     13  C   UNL     1       0.302   0.906   0.000  0.00  0.00    +0.000 A 
BRANCH  11  14
ATOM     14  C   UNL     1      -1.760   0.191   0.000  0.00  0.00    +0.000 C 
ATOM     15  O   UNL     1      -2.173   0.906   0.000  0.00  0.00    +0.000 OA
ENDBRANCH  11  14
BRANCH   8  16
ATOM     16  O   UNL     1       1.540   0.191   0.000  0.00  0.00    +0.000 OA
BRANCH  16  17
ATOM     17  C   UNL     1       1.952   0.906   0.000  0.00  0.00    +0.000 C 
ATOM     18  O   UNL     1       1.540   1.620   0.000  0.00  0.00    +0.000 OA
BRANCH  17  20
ATOM     19  C   UNL     1       3.189   1.620   0.000  0.00  0.00    +0.000 C 
ATOM     20  C   UNL     1       2.777   0.906   0.000  0.00  0.00    +0.000 C 
ATOM     21  C   UNL     1       3.189   0.191   0.000  0.00  0.00    +0.000 C 
ENDBRANCH  17  20
ENDBRANCH  16  17
ENDBRANCH   8  16
ENDBRANCH   1   9
BRANCH   1  22
ATOM     22  C   UNL     1       1.540  -1.238   0.000  0.00  0.00    +0.000 C 
BRANCH  22  23
ATOM     23  C   UNL     1       1.952  -1.952   0.000  0.00  0.00    +0.000 C 
BRANCH  23  24
ATOM     24  N   UNL     1       2.777  -1.952   0.000  0.00  0.00    +0.000 NA
BRANCH  24  25
ATOM     25  C   UNL     1       3.189  -1.238   0.000  0.00  0.00    +0.000 C 
ATOM     26  C   UNL     1       2.777  -0.523   0.000  0.00  0.00    +0.000 C 
ATOM     27  C   UNL     1       4.014  -1.238   0.000  0.00  0.00    +0.000 C 
ENDBRANCH  24  25
BRANCH  24  28
ATOM     28  C   UNL     1       3.189  -2.666   0.000  0.00  0.00    +0.000 C 
ATOM     29  C   UNL     1       4.014  -2.666   0.000  0.00  0.00    +0.000 C 
ATOM     30  C   UNL     1       2.777  -3.381   0.000  0.00  0.00    +0.000 C 
ENDBRANCH  24  28
ENDBRANCH  23  24
ENDBRANCH  22  23
ENDBRANCH   1  22
TORSDOF 11
