REMARK  Name = 
REMARK  18 active torsions:
REMARK  status: ('A' for Active; 'I' for Inactive)
REMARK    1  A    between atoms: O_2  and  C_3
REMARK    2  A    between atoms: C_6  and  C_7
REMARK    3  A    between atoms: C_7  and  C_8
REMARK    4  A    between atoms: C_8  and  N_9
REMARK    5  A    between atoms: C_8  and  C_17
REMARK    6  A    between atoms: C_10  and  C_12
REMARK    7  A    between atoms: C_12  and  C_13
REMARK    8  A    between atoms: N_19  and  C_20
REMARK    9  A    between atoms: C_20  and  C_21
REMARK   10  A    between atoms: C_20  and  C_27
REMARK   11  A    between atoms: C_21  and  C_22
REMARK   12  A    between atoms: N_29  and  C_30
REMARK   13  A    between atoms: C_30  and  C_31
REMARK   14  A    between atoms: C_30  and  C_38
REMARK   15  A    between atoms: C_31  and  C_32
REMARK   16  A    between atoms: C_38  and  C_40
REMARK   17  A    between atoms: C_40  and  C_42
REMARK   18  A    between atoms: C_42  and  C_43
REMARK                            x       y       z     vdW  Elec       q    Type
REMARK                         _______ _______ _______ _____ _____    ______ ____
ROOT
ATOM      1  C   UNL     1       9.582  -5.023   0.000  0.00  0.00    +0.000 C 
ENDROOT
BRANCH   1   2
ATOM      2  C   UNL     1       9.934  -5.769   0.000  0.00  0.00    +0.000 C 
ATOM      3  O   UNL     1       9.465  -6.447   0.000  0.00  0.00    +0.000 OA
ATOM      4  N   UNL     1      10.757  -5.837   0.000  0.00  0.00    +0.000 NA
BRANCH   4   5
ATOM      5  C   UNL     1      11.109  -6.583   0.000  0.00  0.00    +0.000 C 
BRANCH   5   6
ATOM      6  C   UNL     1      11.931  -6.651   0.000  0.00  0.00    +0.000 C 
ATOM      7  O   UNL     1      12.284  -7.397   0.000  0.00  0.00    +0.000 OA
BRANCH   6   8
ATOM      8  C   UNL     1      12.401  -5.973   0.000  0.00  0.00    +0.000 C 
ATOM      9  O   UNL     1      12.049  -5.227   0.000  0.00  0.00    +0.000 OA
BRANCH   8  10
ATOM     10  C   UNL     1      13.223  -6.041   0.000  0.00  0.00    +0.000 C 
BRANCH  10  11
ATOM     11  C   UNL     1      13.693  -5.362   0.000  0.00  0.00    +0.000 C 
ATOM     12  C   UNL     1      13.341  -4.617   0.000  0.00  0.00    +0.000 C 
ATOM     13  C   UNL     1      14.515  -5.430   0.000  0.00  0.00    +0.000 C 
ENDBRANCH  10  11
ENDBRANCH   8  10
ENDBRANCH   6   8
ENDBRANCH   5   6
BRANCH   5  14
ATOM     14  C   UNL     1      10.639  -7.261   0.000  0.00  0.00    +0.000 C 
BRANCH  14  15
ATOM     15  C   UNL     1      10.992  -8.007   0.000  0.00  0.00    +0.000 C 
ATOM     16  C   UNL     1      11.814  -8.075   0.000  0.00  0.00    +0.000 C 
ATOM     17  C   UNL     1      12.166  -8.821   0.000  0.00  0.00    +0.000 C 
ATOM     18  C   UNL     1      11.696  -9.499   0.000  0.00  0.00    +0.000 C 
ATOM     19  C   UNL     1      10.874  -9.431   0.000  0.00  0.00    +0.000 C 
ATOM     20  C   UNL     1      10.522  -8.685   0.000  0.00  0.00    +0.000 C 
ENDBRANCH  14  15
ENDBRANCH   5  14
ENDBRANCH   4   5
ENDBRANCH   1   2
BRANCH   1  23
ATOM     21  C   UNL     1       8.408  -4.210   0.000  0.00  0.00    +0.000 C 
ATOM     22  O   UNL     1       8.877  -3.531   0.000  0.00  0.00    +0.000 OA
ATOM     23  N   UNL     1       8.760  -4.956   0.000  0.00  0.00    +0.000 NA
BRANCH  21  24
ATOM     24  C   UNL     1       7.585  -4.142   0.000  0.00  0.00    +0.000 C 
BRANCH  24  25
ATOM     25  N   UNL     1       7.115  -4.820   0.000  0.00  0.00    +0.000 NA
ATOM     26  C   UNL     1       6.293  -4.752   0.000  0.00  0.00    +0.000 C 
ATOM     27  O   UNL     1       5.941  -4.006   0.000  0.00  0.00    +0.000 OA
BRANCH  26  28
ATOM     28  C   UNL     1       5.824  -5.430   0.000  0.00  0.00    +0.000 C 
BRANCH  28  29
ATOM     29  C   UNL     1       5.001  -5.362   0.000  0.00  0.00    +0.000 C 
ATOM     30  C   UNL     1       4.934  -6.185   0.000  0.00  0.00    +0.000 C 
ATOM     31  C   UNL     1       5.069  -4.540   0.000  0.00  0.00    +0.000 C 
ATOM     32  N   UNL     1       4.179  -5.295   0.000  0.00  0.00    +0.000 NA
ENDBRANCH  28  29
ENDBRANCH  26  28
ENDBRANCH  24  25
BRANCH  24  33
ATOM     33  C   UNL     1       7.233  -3.396   0.000  0.00  0.00    +0.000 C 
BRANCH  33  37
ATOM     34  C   UNL     1       8.643  -1.361   0.000  0.00  0.00    +0.000 A 
ATOM     35  C   UNL     1       8.995  -2.107   0.000  0.00  0.00    +0.000 A 
ATOM     36  C   UNL     1       8.525  -2.785   0.000  0.00  0.00    +0.000 A 
ATOM     37  C   UNL     1       7.703  -2.718   0.000  0.00  0.00    +0.000 A 
ATOM     38  C   UNL     1       7.351  -1.972   0.000  0.00  0.00    +0.000 A 
ATOM     39  C   UNL     1       7.820  -1.294   0.000  0.00  0.00    +0.000 A 
BRANCH  34  41
ATOM     40  C   UNL     1       8.760   0.063   0.000  0.00  0.00    +0.000 C 
ATOM     41  O   UNL     1       9.112  -0.683   0.000  0.00  0.00    +0.000 OA
ENDBRANCH  34  41
ENDBRANCH  33  37
ENDBRANCH  24  33
ENDBRANCH  21  24
ENDBRANCH   1  23
BRANCH   1  42
ATOM     42  C   UNL     1      10.052  -4.345   0.000  0.00  0.00    +0.000 C 
BRANCH  42  43
ATOM     43  C   UNL     1      10.874  -4.413   0.000  0.00  0.00    +0.000 A 
ATOM     44  C   UNL     1      11.303  -5.118   0.000  0.00  0.00    +0.000 A 
ATOM     45  N   UNL     1      12.106  -4.929   0.000  0.00  0.00    +0.000 NA
ATOM     46  C   UNL     1      12.173  -4.106   0.000  0.00  0.00    +0.000 A 
ATOM     47  N   UNL     1      11.412  -3.788   0.000  0.00  0.00    +0.000 NA
ENDBRANCH  42  43
ENDBRANCH   1  42
TORSDOF 18
