REMARK  Name = 
REMARK  7 active torsions:
REMARK  status: ('A' for Active; 'I' for Inactive)
REMARK    1  A    between atoms: C_2  and  C_3
REMARK    2  A    between atoms: C_3  and  C_9
REMARK    3  A    between atoms: C_9  and  C_15
REMARK    4  A    between atoms: CB_12  and  CG_13
REMARK    5  A    between atoms: CB_12  and  CA_14
REMARK    6  A    between atoms: C_15  and  C_17
REMARK    7  A    between atoms: C_15  and  N_19
REMARK                            x       y       z     vdW  Elec       q    Type
REMARK                         _______ _______ _______ _____ _____    ______ ____
ROOT
ATOM      1  C   UNK A   0       5.333   0.383   0.000  0.00  0.00    +0.000 C 
ATOM      2  C   UNK A   0       4.920  -0.332   0.000  0.00  0.00    +0.000 C 
ATOM      3  CA  PHE A   1       6.570  -0.332   0.000  0.00  0.00    +0.000 C 
ATOM      4  C   PHE A   1       6.158  -1.046   0.000  0.00  0.00    +0.000 C 
ATOM      5  N   PHE A   1       6.158   0.383   0.000  0.00  0.00    +0.000 NA
ATOM      6  N   UNK A   0       5.333  -1.046   0.000  0.00  0.00    +0.000 N 
ATOM      7  O   PHE A   1       6.570  -1.760   0.000  0.00  0.00    +0.000 OA
ENDROOT
BRANCH   3   8
ATOM      8  CB  PHE A   1       7.395  -0.332   0.000  0.00  0.00    +0.000 C 
BRANCH   8  14
ATOM      9  CZ  PHE A   1       8.633   1.812   0.000  0.00  0.00    +0.000 A 
ATOM     10  CE1 PHE A   1       7.808   1.812   0.000  0.00  0.00    +0.000 A 
ATOM     11  CE2 PHE A   1       9.045   1.097   0.000  0.00  0.00    +0.000 A 
ATOM     12  CD1 PHE A   1       7.395   1.097   0.000  0.00  0.00    +0.000 A 
ATOM     13  CD2 PHE A   1       8.633   0.383   0.000  0.00  0.00    +0.000 A 
ATOM     14  CG  PHE A   1       7.808   0.383   0.000  0.00  0.00    +0.000 A 
ENDBRANCH   8  14
ENDBRANCH   3   8
BRANCH   6  15
ATOM     15  C   UNK A   0       4.920  -1.760   0.000  0.00  0.00    +0.000 C 
BRANCH  15  16
ATOM     16  C   UNK A   0       5.333  -2.475   0.000  0.00  0.00    +0.000 C 
ATOM     17  O   ACE A   2       6.158  -2.475   0.000  0.00  0.00    +0.000 OA
ATOM     18  O   ACE A   2       4.920  -3.189   0.000  0.00  0.00    +0.000 OA
ENDBRANCH  15  16
BRANCH  15  19
ATOM     19  C   UNK A   0       4.095  -1.760   0.000  0.00  0.00    +0.000 C 
BRANCH  19  20
ATOM     20  C   UNK A   0       3.683  -2.475   0.000  0.00  0.00    +0.000 C 
BRANCH  20  22
ATOM     21  C   UNK A   0       2.445  -3.189   0.000  0.00  0.00    +0.000 C 
ATOM     22  C   UNK A   0       2.858  -2.475   0.000  0.00  0.00    +0.000 C 
ENDBRANCH  20  22
ENDBRANCH  19  20
ENDBRANCH  15  19
ENDBRANCH   6  15
TORSDOF 7
