REMARK  Name = 
REMARK  3 active torsions:
REMARK  status: ('A' for Active; 'I' for Inactive)
REMARK    1  A    between atoms: C_3  and  C_4
REMARK    2  A    between atoms: C_3  and  C_6
REMARK    3  A    between atoms: CA_5  and  C_7
REMARK                            x       y       z     vdW  Elec       q    Type
REMARK                         _______ _______ _______ _____ _____    ______ ____
ROOT
ATOM      1  C   UNL     1       0.980  -0.155   0.000  0.00  0.00    +0.000 C 
ATOM      2  C   UNL     1       1.235   0.629   0.000  0.00  0.00    +0.000 C 
ATOM      3  C   UNL     1       0.155  -0.155   0.000  0.00  0.00    +0.000 C 
ATOM      4  CA  UNL     1       0.568   1.114   0.000  0.00  0.00    +0.000 C 
ATOM      5  N   UNL     1      -0.100   0.629   0.000  0.00  0.00    +0.000 NA
ENDROOT
BRANCH   4   6
ATOM      6  C   UNL     1       0.568   1.939   0.000  0.00  0.00    +0.000 C 
ATOM      7  O   UNL     1      -0.147   2.352   0.000  0.00  0.00    +0.000 OA
ATOM      8  OXT UNL     1       1.282   2.352   0.000  0.00  0.00    +0.000 OA
ENDBRANCH   4   6
BRANCH   3   9
ATOM      9  C   UNL     1      -0.330  -0.823   0.000  0.00  0.00    +0.000 C 
BRANCH   9  10
ATOM     10  C   UNL     1       0.006  -1.576   0.000  0.00  0.00    +0.000 C 
ATOM     11  O   UNL     1      -0.479  -2.244   0.000  0.00  0.00    +0.000 OA
ATOM     12  O   UNL     1       0.826  -1.663   0.000  0.00  0.00    +0.000 OA
ENDBRANCH   9  10
ENDBRANCH   3   9
TORSDOF 3
