REMARK  Name = 
REMARK  11 active torsions:
REMARK  status: ('A' for Active; 'I' for Inactive)
REMARK    1  A    between atoms: N_2  and  C_3
REMARK    2  A    between atoms: N_2  and  C_26
REMARK    3  A    between atoms: C_3  and  C_4
REMARK    4  A    between atoms: C_4  and  C_5
REMARK    5  A    between atoms: C_5  and  C_6
REMARK    6  A    between atoms: C_6  and  C_7
REMARK    7  A    between atoms: C_7  and  C_8
REMARK    8  A    between atoms: C_8  and  O_9
REMARK    9  A    between atoms: O_9  and  C_10
REMARK   10  A    between atoms: C_17  and  C_18
REMARK   11  A    between atoms: C_26  and  C_27
REMARK                            x       y       z     vdW  Elec       q    Type
REMARK                         _______ _______ _______ _____ _____    ______ ____
ROOT
ATOM      1  C   UNL     1      -1.429  -1.650   0.000  0.00  0.00    +0.000 A 
ATOM      2  C   UNL     1      -1.429  -2.475   0.000  0.00  0.00    +0.000 A 
ATOM      3  C   UNL     1      -2.143  -2.888   0.000  0.00  0.00    +0.000 A 
ATOM      4  C   UNL     1      -2.858  -2.475   0.000  0.00  0.00    +0.000 A 
ATOM      5  C   UNL     1      -2.858  -1.650   0.000  0.00  0.00    +0.000 A 
ATOM      6  O   UNL     1      -3.643  -1.395   0.000  0.00  0.00    +0.000 OA
ATOM      7  C   UNL     1      -4.127  -2.062   0.000  0.00  0.00    +0.000 A 
ATOM      8  C   UNL     1      -3.643  -2.730   0.000  0.00  0.00    +0.000 A 
ATOM      9  C   UNL     1      -2.143  -1.238   0.000  0.00  0.00    +0.000 A 
ENDROOT
BRANCH   8  10
ATOM     10  C   UNL     1      -3.897  -3.515   0.000  0.00  0.00    +0.000 A 
ATOM     11  C   UNL     1      -3.345  -4.128   0.000  0.00  0.00    +0.000 A 
ATOM     12  C   UNL     1      -3.600  -4.912   0.000  0.00  0.00    +0.000 A 
ATOM     13  C   UNL     1      -4.407  -5.084   0.000  0.00  0.00    +0.000 A 
ATOM     14 BR   UNL     1      -4.662  -5.868   0.000  0.00  0.00    +0.000 Br
ATOM     15  C   UNL     1      -4.959  -4.471   0.000  0.00  0.00    +0.000 A 
ATOM     16  C   UNL     1      -4.704  -3.686   0.000  0.00  0.00    +0.000 A 
ENDBRANCH   8  10
BRANCH   1  17
ATOM     17  O   UNL     1      -0.715  -1.238   0.000  0.00  0.00    +0.000 OA
BRANCH  17  18
ATOM     18  C   UNL     1       0.000  -1.650   0.000  0.00  0.00    +0.000 C 
BRANCH  18  19
ATOM     19  C   UNL     1       0.715  -1.238   0.000  0.00  0.00    +0.000 C 
BRANCH  19  20
ATOM     20  C   UNL     1       1.429  -1.650   0.000  0.00  0.00    +0.000 C 
BRANCH  20  21
ATOM     21  C   UNL     1       2.143  -1.238   0.000  0.00  0.00    +0.000 C 
BRANCH  21  22
ATOM     22  C   UNL     1       2.858  -1.650   0.000  0.00  0.00    +0.000 C 
BRANCH  22  23
ATOM     23  C   UNL     1       3.572  -1.238   0.000  0.00  0.00    +0.000 C 
BRANCH  23  25
ATOM     24  C   UNL     1       4.287  -2.475   0.000  0.00  0.00    +0.000 C 
ATOM     25  N   UNL     1       4.287  -1.650   0.000  0.00  0.00    +0.000 NA
BRANCH  25  26
ATOM     26  C   UNL     1       5.001  -1.238   0.000  0.00  0.00    +0.000 C 
BRANCH  26  27
ATOM     27  C   UNL     1       5.716  -1.650   0.000  0.00  0.00    +0.000 C 
ATOM     28  C   UNL     1       6.430  -1.238   0.000  0.00  0.00    +0.000 C 
ENDBRANCH  26  27
ENDBRANCH  25  26
ENDBRANCH  23  25
ENDBRANCH  22  23
ENDBRANCH  21  22
ENDBRANCH  20  21
ENDBRANCH  19  20
ENDBRANCH  18  19
ENDBRANCH  17  18
ENDBRANCH   1  17
TORSDOF 11
