REMARK  Name = 
REMARK  4 active torsions:
REMARK  status: ('A' for Active; 'I' for Inactive)
REMARK    1  A    between atoms: C_5  and  C_8
REMARK    2  A    between atoms: C_5  and  C_10
REMARK    3  A    between atoms: C_6  and  C_8
REMARK    4  A    between atoms: C_7  and  C_8
REMARK                            x       y       z     vdW  Elec       q    Type
REMARK                         _______ _______ _______ _____ _____    ______ ____
ROOT
ATOM      1  C   UNL     1      -1.429   2.475   0.000  0.00  0.00    +0.000 A 
ATOM      2  C   UNL     1      -2.143   1.238   0.000  0.00  0.00    +0.000 A 
ATOM      3  C   UNL     1      -2.143   2.888   0.000  0.00  0.00    +0.000 A 
ATOM      4  C   UNL     1      -2.858   1.650   0.000  0.00  0.00    +0.000 A 
ATOM      5  C   UNL     1      -1.429   1.650   0.000  0.00  0.00    +0.000 A 
ATOM      6  C   UNL     1      -2.858   2.475   0.000  0.00  0.00    +0.000 A 
ATOM      7 CL   UNL     1      -3.572   2.888   0.000  0.00  0.00    +0.000 Cl
ENDROOT
BRANCH   5   8
ATOM      8  C   UNL     1      -0.715   1.238   0.000  0.00  0.00    +0.000 C 
BRANCH   8   9
ATOM      9  C   UNL     1      -0.715   0.412   0.000  0.00  0.00    +0.000 C 
ATOM     10  N   UNL     1      -1.429   0.000   0.000  0.00  0.00    +0.000 NA
ENDBRANCH   8   9
BRANCH   8  11
ATOM     11  C   UNL     1       0.000   1.650   0.000  0.00  0.00    +0.000 C 
BRANCH  11  12
ATOM     12  C   UNL     1       0.715   1.238   0.000  0.00  0.00    +0.000 C 
ATOM     13  O   UNL     1       1.429   1.650   0.000  0.00  0.00    +0.000 OA
ATOM     14  O   UNL     1       0.715   0.412   0.000  0.00  0.00    +0.000 OA
ENDBRANCH  11  12
ENDBRANCH   8  11
ENDBRANCH   5   8
TORSDOF 4
