REMARK  Name = 
REMARK  0 active torsions:
REMARK  status: ('A' for Active; 'I' for Inactive)
REMARK                            x       y       z     vdW  Elec       q    Type
REMARK                         _______ _______ _______ _____ _____    ______ ____
ROOT
ATOM      1  O   UNL     1       0.000   0.000   0.000  0.00  0.00    +0.000 OA
ATOM      2  C   UNL     1       0.667  -0.485   0.000  0.00  0.00    +0.000 C 
ATOM      3  N   UNL     1      -0.667  -0.485   0.000  0.00  0.00    +0.000 NA
ATOM      4  C   UNL     1       0.412  -1.270   0.000  0.00  0.00    +0.000 C 
ATOM      5  N   UNL     1       0.897  -1.937   0.000  0.00  0.00    +0.000 NA
ATOM      6  C   UNL     1      -0.412  -1.270   0.000  0.00  0.00    +0.000 C 
ATOM      7  O   UNL     1      -0.897  -1.937   0.000  0.00  0.00    +0.000 OA
ENDROOT
TORSDOF 0
