REMARK  Name = 
REMARK  4 active torsions:
REMARK  status: ('A' for Active; 'I' for Inactive)
REMARK    1  A    between atoms: C_1  and  C_3
REMARK    2  A    between atoms: C_1  and  O_11
REMARK    3  A    between atoms: C_2  and  C_4
REMARK    4  A    between atoms: C_2  and  O_11
REMARK                            x       y       z     vdW  Elec       q    Type
REMARK                         _______ _______ _______ _____ _____    ______ ____
ROOT
ATOM      1  O   UNL     1       0.000   0.000   0.000  0.00  0.00    +0.000 OA
ENDROOT
BRANCH   1   2
ATOM      2  C   UNL     1      -0.412  -0.714   0.000  0.00  0.00    +0.000 C 
BRANCH   2   3
ATOM      3  C   UNL     1      -1.238  -0.714   0.000  0.00  0.00    +0.000 C 
ATOM      4  F   UNL     1      -2.062  -0.714   0.000  0.00  0.00    +0.000 F 
ATOM      5  F   UNL     1      -1.238  -1.539   0.000  0.00  0.00    +0.000 F 
ATOM      6  F   UNL     1      -1.238   0.111   0.000  0.00  0.00    +0.000 F 
ENDBRANCH   2   3
ENDBRANCH   1   2
BRANCH   1   7
ATOM      7  C   UNL     1       0.825   0.000   0.000  0.00  0.00    +0.000 C 
BRANCH   7   8
ATOM      8  C   UNL     1       1.238   0.714   0.000  0.00  0.00    +0.000 C 
ATOM      9  F   UNL     1       1.650   1.429   0.000  0.00  0.00    +0.000 F 
ATOM     10  F   UNL     1       1.952   0.302   0.000  0.00  0.00    +0.000 F 
ATOM     11  F   UNL     1       0.523   1.127   0.000  0.00  0.00    +0.000 F 
ENDBRANCH   7   8
ENDBRANCH   1   7
TORSDOF 4
