REMARK  Name = 
REMARK  3 active torsions:
REMARK  status: ('A' for Active; 'I' for Inactive)
REMARK    1  A    between atoms: C_4  and  C_9
REMARK    2  A    between atoms: C_4  and  O_16
REMARK    3  A    between atoms: O_16  and  S_21
REMARK                            x       y       z     vdW  Elec       q    Type
REMARK                         _______ _______ _______ _____ _____    ______ ____
ROOT
ATOM      1  C   UNL     1       0.493   2.659   0.000  0.00  0.00    +0.000 C 
ATOM      2  C   UNL     1      -0.059   1.702   0.000  0.00  0.00    +0.000 C 
ATOM      3  C   UNL     1       2.878   0.167   0.000  0.00  0.00    +0.000 C 
ATOM      4  C   UNL     1       3.291   0.882   0.000  0.00  0.00    +0.000 C 
ATOM      5  C   UNL     1       2.878   1.596   0.000  0.00  0.00    +0.000 C 
ATOM      6  C   UNL     1       2.054   1.596   0.000  0.00  0.00    +0.000 C 
ATOM      7  C   UNL     1       0.748   1.874   0.000  0.00  0.00    +0.000 C 
ATOM      8  C   UNL     1       1.641   0.882   0.000  0.00  0.00    +0.000 C 
ATOM      9  O   UNL     1       4.991   1.702   0.000  0.00  0.00    +0.000 OA
ATOM     10  O   UNL     1       4.439   2.659   0.000  0.00  0.00    +0.000 OA
ATOM     11  O   UNL     1       2.054   0.167   0.000  0.00  0.00    +0.000 OA
ATOM     12  O   UNL     1       1.502   2.209   0.000  0.00  0.00    +0.000 OA
ATOM     13  O   UNL     1       4.098   1.053   0.000  0.00  0.00    +0.000 OA
ATOM     14  O   UNL     1       3.431   2.209   0.000  0.00  0.00    +0.000 OA
ATOM     15  O   UNL     1       0.834   1.053   0.000  0.00  0.00    +0.000 OA
ATOM     16  S   UNL     1       4.184   1.874   0.000  0.00  0.00    +0.000 S 
ENDROOT
BRANCH   8  17
ATOM     17  C   UNL     1       1.156   0.214   0.000  0.00  0.00    +0.000 C 
BRANCH  17  18
ATOM     18  O   UNL     1       0.336   0.301   0.000  0.00  0.00    +0.000 OA
BRANCH  18  22
ATOM     19  N   UNL     1      -0.634  -1.034   0.000  0.00  0.00    +0.000 NA
ATOM     20  O   UNL     1       0.518  -0.852   0.000  0.00  0.00    +0.000 OA
ATOM     21  O   UNL     1      -0.817   0.118   0.000  0.00  0.00    +0.000 OA
ATOM     22  S   UNL     1      -0.149  -0.367   0.000  0.00  0.00    +0.000 S 
ENDBRANCH  18  22
ENDBRANCH  17  18
ENDBRANCH   8  17
TORSDOF 3
