REMARK  Name = 
REMARK  1 active torsions:
REMARK  status: ('A' for Active; 'I' for Inactive)
REMARK    1  A    between atoms: C_2  and  C_7
REMARK                            x       y       z     vdW  Elec       q    Type
REMARK                         _______ _______ _______ _____ _____    ______ ____
ROOT
ATOM      1  N   UNL     1       0.016   1.727   0.000  0.00  0.00    +0.000 NA
ATOM      2  C   UNL     1       0.568   1.114   0.000  0.00  0.00    +0.000 C 
ATOM      3  C   UNL     1       1.235   0.629   0.000  0.00  0.00    +0.000 C 
ATOM      4  C   UNL     1       0.980  -0.155   0.000  0.00  0.00    +0.000 C 
ATOM      5  C   UNL     1       0.155  -0.155   0.000  0.00  0.00    +0.000 C 
ATOM      6  C   UNL     1      -0.100   0.629   0.000  0.00  0.00    +0.000 C 
ENDROOT
BRANCH   2   7
ATOM      7  C   UNL     1       1.120   1.727   0.000  0.00  0.00    +0.000 C 
ATOM      8  O   UNL     1       0.865   2.512   0.000  0.00  0.00    +0.000 OA
ATOM      9  O   UNL     1       1.927   1.556   0.000  0.00  0.00    +0.000 OA
ENDBRANCH   2   7
TORSDOF 1
