REMARK  Name = 
REMARK  3 active torsions:
REMARK  status: ('A' for Active; 'I' for Inactive)
REMARK    1  A    between atoms: C_14  and  N_15
REMARK    2  A    between atoms: N_15  and  C_16
REMARK    3  A    between atoms: C_16  and  C_17
REMARK                            x       y       z     vdW  Elec       q    Type
REMARK                         _______ _______ _______ _____ _____    ______ ____
ROOT
ATOM      1  C   UNL     1       4.287   0.000   0.000  0.00  0.00    +0.000 C 
ATOM      2  C   UNL     1       4.287   0.825   0.000  0.00  0.00    +0.000 C 
ATOM      3  C   UNL     1       3.572   1.238   0.000  0.00  0.00    +0.000 C 
ATOM      4  C   UNL     1       2.858   0.825   0.000  0.00  0.00    +0.000 A 
ATOM      5  C   UNL     1       2.858   0.000   0.000  0.00  0.00    +0.000 A 
ATOM      6  C   UNL     1       3.572  -0.412   0.000  0.00  0.00    +0.000 C 
ATOM      7  N   UNL     1       2.143  -0.412   0.000  0.00  0.00    +0.000 NA
ATOM      8  C   UNL     1       1.429   0.000   0.000  0.00  0.00    +0.000 A 
ATOM      9  C   UNL     1       0.715  -0.412   0.000  0.00  0.00    +0.000 A 
ATOM     10  C   UNL     1       0.000   0.000   0.000  0.00  0.00    +0.000 A 
ATOM     11  C   UNL     1       0.000   0.825   0.000  0.00  0.00    +0.000 A 
ATOM     12  C   UNL     1       0.715   1.238   0.000  0.00  0.00    +0.000 A 
ATOM     13  C   UNL     1       1.429   0.825   0.000  0.00  0.00    +0.000 A 
ATOM     14  C   UNL     1       2.143   1.238   0.000  0.00  0.00    +0.000 A 
ENDROOT
BRANCH  14  15
ATOM     15  N   UNL     1       2.143   2.062   0.000  0.00  0.00    +0.000 NA
BRANCH  15  16
ATOM     16  C   UNL     1       1.429   2.475   0.000  0.00  0.00    +0.000 C 
BRANCH  16  17
ATOM     17  C   UNL     1       1.429   3.300   0.000  0.00  0.00    +0.000 A 
ATOM     18  C   UNL     1       0.715   3.712   0.000  0.00  0.00    +0.000 A 
ATOM     19  C   UNL     1       0.715   4.537   0.000  0.00  0.00    +0.000 A 
ATOM     20  C   UNL     1       1.429   4.950   0.000  0.00  0.00    +0.000 A 
ATOM     21  C   UNL     1       2.143   4.537   0.000  0.00  0.00    +0.000 A 
ATOM     22  C   UNL     1       2.143   3.712   0.000  0.00  0.00    +0.000 A 
ENDBRANCH  16  17
ENDBRANCH  15  16
ENDBRANCH  14  15
TORSDOF 3
