REMARK  Name = 
REMARK  0 active torsions:
REMARK  status: ('A' for Active; 'I' for Inactive)
REMARK                            x       y       z     vdW  Elec       q    Type
REMARK                         _______ _______ _______ _____ _____    ______ ____
ROOT
ATOM      1  C   UNL     1       1.275  -1.139   0.000  0.00  0.00    +0.000 C 
ATOM      2  C   UNL     1       4.323  -0.911   0.000  0.00  0.00    +0.000 C 
ATOM      3  C   UNL     1       1.807  -0.509   0.000  0.00  0.00    +0.000 C 
ATOM      4  C   UNL     1       1.778   1.674   0.000  0.00  0.00    +0.000 C 
ATOM      5  C   UNL     1       2.590   1.529   0.000  0.00  0.00    +0.000 C 
ATOM      6  C   UNL     1       4.334   1.114   0.000  0.00  0.00    +0.000 C 
ATOM      7  C   UNL     1       5.017   0.651   0.000  0.00  0.00    +0.000 C 
ATOM      8  C   UNL     1       2.619  -0.654   0.000  0.00  0.00    +0.000 C 
ATOM      9  C   UNL     1       3.431  -0.799   0.000  0.00  0.00    +0.000 C 
ATOM     10  C   UNL     1       0.183  -0.218   0.000  0.00  0.00    +0.000 C 
ATOM     11  C   UNL     1       0.434   1.188   0.000  0.00  0.00    +0.000 C 
ATOM     12  C   UNL     1       0.995  -0.363   0.000  0.00  0.00    +0.000 C 
ATOM     13  C   UNL     1       1.246   1.043   0.000  0.00  0.00    +0.000 C 
ATOM     14  C   UNL     1      -0.098   0.558   0.000  0.00  0.00    +0.000 C 
ATOM     15  C   UNL     1       2.870   0.753   0.000  0.00  0.00    +0.000 C 
ATOM     16  C   UNL     1       3.683   0.608   0.000  0.00  0.00    +0.000 C 
ATOM     17  C   UNL     1       2.339   0.122   0.000  0.00  0.00    +0.000 C 
ATOM     18  C   UNL     1       4.787  -0.142   0.000  0.00  0.00    +0.000 C 
ATOM     19  C   UNL     1       3.963  -0.168   0.000  0.00  0.00    +0.000 C 
ATOM     20  C   UNL     1       1.527   0.267   0.000  0.00  0.00    +0.000 C 
ATOM     21  O   UNL     1      -0.910   0.703   0.000  0.00  0.00    +0.000 OA
ATOM     22  O   UNL     1       5.294  -0.793   0.000  0.00  0.00    +0.000 OA
ENDROOT
TORSDOF 0
