REMARK  Name = 
REMARK  20 active torsions:
REMARK  status: ('A' for Active; 'I' for Inactive)
REMARK    1  A    between atoms: C_2  and  C_4
REMARK    2  A    between atoms: C_4  and  N_5
REMARK    3  A    between atoms: N_5  and  C_6
REMARK    4  A    between atoms: N_5  and  C_20
REMARK    5  A    between atoms: C_6  and  C_7
REMARK    6  A    between atoms: C_7  and  N_8
REMARK    7  A    between atoms: N_8  and  C_9
REMARK    8  A    between atoms: N_8  and  C_13
REMARK    9  A    between atoms: C_9  and  C_10
REMARK   10  A    between atoms: C_13  and  C_14
REMARK   11  A    between atoms: N_16  and  C_17
REMARK   12  A    between atoms: C_17  and  C_18
REMARK   13  A    between atoms: C_20  and  C_21
REMARK   14  A    between atoms: C_21  and  N_22
REMARK   15  A    between atoms: N_22  and  C_23
REMARK   16  A    between atoms: N_22  and  C_27
REMARK   17  A    between atoms: C_23  and  C_24
REMARK   18  A    between atoms: C_27  and  C_28
REMARK   19  A    between atoms: N_30  and  C_31
REMARK   20  A    between atoms: C_31  and  C_32
REMARK                            x       y       z     vdW  Elec       q    Type
REMARK                         _______ _______ _______ _____ _____    ______ ____
ROOT
ATOM      1  N   UNL     1      15.616   5.716   0.000  0.00  0.00    +0.000 NA
ENDROOT
BRANCH   1   2
ATOM      2  C   UNL     1      14.901   6.128   0.000  0.00  0.00    +0.000 C 
BRANCH   2   3
ATOM      3  C   UNL     1      14.187   5.716   0.000  0.00  0.00    +0.000 C 
BRANCH   3   4
ATOM      4  N   UNL     1      13.472   6.128   0.000  0.00  0.00    +0.000 NA
BRANCH   4   5
ATOM      5  C   UNL     1      12.758   5.716   0.000  0.00  0.00    +0.000 C 
BRANCH   5   6
ATOM      6  C   UNL     1      12.043   6.128   0.000  0.00  0.00    +0.000 C 
ATOM      7  O   UNL     1      12.043   6.953   0.000  0.00  0.00    +0.000 OA
ATOM      8  N   UNL     1      11.329   5.716   0.000  0.00  0.00    +0.000 NA
BRANCH   8   9
ATOM      9  C   UNL     1      10.614   6.128   0.000  0.00  0.00    +0.000 C 
BRANCH   9  10
ATOM     10  C   UNL     1       9.900   5.716   0.000  0.00  0.00    +0.000 C 
ATOM     11  S   UNL     1       9.185   6.128   0.000  0.00  0.00    +0.000 S 
ENDBRANCH   9  10
ENDBRANCH   8   9
ENDBRANCH   5   6
ENDBRANCH   4   5
BRANCH   4  12
ATOM     12  C   UNL     1      13.472   6.953   0.000  0.00  0.00    +0.000 C 
BRANCH  12  13
ATOM     13  C   UNL     1      14.187   7.366   0.000  0.00  0.00    +0.000 C 
ATOM     14  O   UNL     1      14.187   8.191   0.000  0.00  0.00    +0.000 OA
ATOM     15  O   UNL     1      14.901   6.953   0.000  0.00  0.00    +0.000 OA
ENDBRANCH  12  13
ENDBRANCH   4  12
ENDBRANCH   3   4
ENDBRANCH   2   3
ENDBRANCH   1   2
BRANCH   1  16
ATOM     16  C   UNL     1      16.330   6.128   0.000  0.00  0.00    +0.000 C 
BRANCH  16  17
ATOM     17  C   UNL     1      17.045   5.716   0.000  0.00  0.00    +0.000 C 
BRANCH  17  18
ATOM     18  N   UNL     1      17.759   6.128   0.000  0.00  0.00    +0.000 NA
BRANCH  18  19
ATOM     19  C   UNL     1      17.759   6.953   0.000  0.00  0.00    +0.000 C 
BRANCH  19  20
ATOM     20  C   UNL     1      17.045   7.366   0.000  0.00  0.00    +0.000 C 
ATOM     21  O   UNL     1      16.330   6.953   0.000  0.00  0.00    +0.000 OA
ATOM     22  O   UNL     1      17.045   8.191   0.000  0.00  0.00    +0.000 OA
ENDBRANCH  19  20
ENDBRANCH  18  19
BRANCH  18  23
ATOM     23  C   UNL     1      18.474   5.716   0.000  0.00  0.00    +0.000 C 
BRANCH  23  24
ATOM     24  C   UNL     1      19.188   6.128   0.000  0.00  0.00    +0.000 C 
ATOM     25  O   UNL     1      19.188   6.953   0.000  0.00  0.00    +0.000 OA
ATOM     26  N   UNL     1      19.903   5.716   0.000  0.00  0.00    +0.000 NA
BRANCH  26  27
ATOM     27  C   UNL     1      20.617   6.128   0.000  0.00  0.00    +0.000 C 
BRANCH  27  28
ATOM     28  C   UNL     1      21.331   5.716   0.000  0.00  0.00    +0.000 C 
ATOM     29  S   UNL     1      22.046   6.128   0.000  0.00  0.00    +0.000 S 
ENDBRANCH  27  28
ENDBRANCH  26  27
ENDBRANCH  23  24
ENDBRANCH  18  23
ENDBRANCH  17  18
ENDBRANCH  16  17
ENDBRANCH   1  16
BRANCH   1  30
ATOM     30  C   UNL     1      15.616   4.891   0.000  0.00  0.00    +0.000 C 
BRANCH  30  32
ATOM     31  O   UNL     1      14.187   4.891   0.000  0.00  0.00    +0.000 OA
ATOM     32  C   UNL     1      14.901   4.478   0.000  0.00  0.00    +0.000 C 
ATOM     33  O   UNL     1      14.901   3.653   0.000  0.00  0.00    +0.000 OA
ENDBRANCH  30  32
ENDBRANCH   1  30
TORSDOF 20
