REMARK  Name = 
REMARK  5 active torsions:
REMARK  status: ('A' for Active; 'I' for Inactive)
REMARK    1  A    between atoms: C_14  and  C_16
REMARK    2  A    between atoms: C_14  and  N_26
REMARK    3  A    between atoms: C_17  and  C_23
REMARK    4  A    between atoms: C_18  and  C_25
REMARK    5  A    between atoms: C_20  and  N_26
REMARK                            x       y       z     vdW  Elec       q    Type
REMARK                         _______ _______ _______ _____ _____    ______ ____
ROOT
ATOM      1  C   UNL     1       5.779   0.347   0.000  0.00  0.00    +0.000 A 
ATOM      2  C   UNL     1       4.976   0.535   0.000  0.00  0.00    +0.000 A 
ATOM      3  C   UNL     1       5.455  -1.044   0.000  0.00  0.00    +0.000 A 
ATOM      4  C   UNL     1       3.974  -1.329   0.000  0.00  0.00    +0.000 C 
ATOM      5  C   UNL     1       6.019  -0.442   0.000  0.00  0.00    +0.000 A 
ATOM      6  C   UNL     1       4.651  -0.857   0.000  0.00  0.00    +0.000 A 
ATOM      7  C   UNL     1       4.412  -0.068   0.000  0.00  0.00    +0.000 A 
ATOM      8  C   UNL     1       3.317  -0.831   0.000  0.00  0.00    +0.000 A 
ATOM      9  C   UNL     1       2.492  -0.815   0.000  0.00  0.00    +0.000 A 
ATOM     10  C   UNL     1       3.587  -0.051   0.000  0.00  0.00    +0.000 A 
ATOM     11  N   UNL     1       2.252  -0.025   0.000  0.00  0.00    +0.000 NA
ATOM     12  N   UNL     1       2.929   0.447   0.000  0.00  0.00    +0.000 NA
ENDROOT
BRANCH   9  17
ATOM     13  C   UNL     1       1.175  -1.370   0.000  0.00  0.00    +0.000 A 
ATOM     14  C   UNL     1       2.314  -2.232   0.000  0.00  0.00    +0.000 A 
ATOM     15  C   UNL     1       0.677  -2.028   0.000  0.00  0.00    +0.000 A 
ATOM     16  C   UNL     1       1.816  -2.890   0.000  0.00  0.00    +0.000 A 
ATOM     17  C   UNL     1       1.994  -1.472   0.000  0.00  0.00    +0.000 A 
ATOM     18  C   UNL     1       0.998  -2.788   0.000  0.00  0.00    +0.000 A 
BRANCH  18  19
ATOM     19  C   UNL     1       0.500  -3.446   0.000  0.00  0.00    +0.000 C 
ATOM     20  O   UNL     1       0.820  -4.206   0.000  0.00  0.00    +0.000 OA
ATOM     21  O   UNL     1      -0.319  -3.343   0.000  0.00  0.00    +0.000 OA
ENDBRANCH  18  19
ENDBRANCH   9  17
BRANCH   5  22
ATOM     22  C   UNL     1       6.822  -0.630   0.000  0.00  0.00    +0.000 C 
BRANCH  22  23
ATOM     23  N   UNL     1       7.386  -0.028   0.000  0.00  0.00    +0.000 NA
BRANCH  23  30
ATOM     24  C   UNL     1      10.600  -0.777   0.000  0.00  0.00    +0.000 C 
ATOM     25  C   UNL     1       9.557   0.200   0.000  0.00  0.00    +0.000 C 
ATOM     26  C   UNL     1       9.232  -1.192   0.000  0.00  0.00    +0.000 C 
ATOM     27  C   UNL     1       8.754   0.387   0.000  0.00  0.00    +0.000 C 
ATOM     28  C   UNL     1       8.429  -1.004   0.000  0.00  0.00    +0.000 C 
ATOM     29  C   UNL     1       9.796  -0.590   0.000  0.00  0.00    +0.000 C 
ATOM     30  C   UNL     1       8.190  -0.215   0.000  0.00  0.00    +0.000 C 
ENDBRANCH  23  30
ENDBRANCH  22  23
ENDBRANCH   5  22
TORSDOF 5
