REMARK  Name = 
REMARK  8 active torsions:
REMARK  status: ('A' for Active; 'I' for Inactive)
REMARK    1  A    between atoms: CA_2  and  N_3
REMARK    2  A    between atoms: CA_2  and  C_13
REMARK    3  A    between atoms: N_3  and  CE_4
REMARK    4  A    between atoms: CE_4  and  CD_5
REMARK    5  A    between atoms: CD_5  and  CG_6
REMARK    6  A    between atoms: CG_6  and  CB_7
REMARK    7  A    between atoms: CB_7  and  CA_8
REMARK    8  A    between atoms: CA_8  and  C_10
REMARK                            x       y       z     vdW  Elec       q    Type
REMARK                         _______ _______ _______ _____ _____    ______ ____
ROOT
ATOM      1  CD  LYS A   1       7.808   2.858   0.000  0.00  0.00    +0.000 C 
ENDROOT
BRANCH   1   2
ATOM      2  CE  LYS A   1       8.522   3.270   0.000  0.00  0.00    +0.000 C 
BRANCH   2   3
ATOM      3  N   LYS A   1       9.237   2.858   0.000  0.00  0.00    +0.000 NA
BRANCH   3   5
ATOM      4  CB  LYS A   1       9.951   4.095   0.000  0.00  0.00    +0.000 C 
ATOM      5  CA  LYS A   1       9.951   3.270   0.000  0.00  0.00    +0.000 C 
BRANCH   5   6
ATOM      6  C   LYS A   1      10.666   2.858   0.000  0.00  0.00    +0.000 C 
ATOM      7  O   LYS A   1      11.380   3.270   0.000  0.00  0.00    +0.000 OA
ATOM      8  OXT LYS A   1      10.666   2.033   0.000  0.00  0.00    +0.000 OA
ENDBRANCH   5   6
ENDBRANCH   3   5
ENDBRANCH   2   3
ENDBRANCH   1   2
BRANCH   1   9
ATOM      9  CG  LYS A   1       7.093   3.270   0.000  0.00  0.00    +0.000 C 
BRANCH   9  10
ATOM     10  CB  LYS A   1       6.379   2.858   0.000  0.00  0.00    +0.000 C 
BRANCH  10  11
ATOM     11  CA  LYS A   1       5.665   3.270   0.000  0.00  0.00    +0.000 C 
ATOM     12  N   LYS A   1       5.665   4.095   0.000  0.00  0.00    +0.000 NA
BRANCH  11  13
ATOM     13  C   LYS A   1       4.950   2.858   0.000  0.00  0.00    +0.000 C 
ATOM     14  O   LYS A   1       4.236   3.270   0.000  0.00  0.00    +0.000 OA
ATOM     15  OXT LYS A   1       4.950   2.033   0.000  0.00  0.00    +0.000 OA
ENDBRANCH  11  13
ENDBRANCH  10  11
ENDBRANCH   9  10
ENDBRANCH   1   9
TORSDOF 8
