REMARK  Name = 
REMARK  1 active torsions:
REMARK  status: ('A' for Active; 'I' for Inactive)
REMARK    1  A    between atoms: C_14  and  O_20
REMARK                            x       y       z     vdW  Elec       q    Type
REMARK                         _______ _______ _______ _____ _____    ______ ____
ROOT
ATOM      1  C   UNL     1      16.496 -10.523   0.000  0.00  0.00    +0.000 C 
ATOM      2  C   UNL     1      15.781 -10.934   0.000  0.00  0.00    +0.000 C 
ATOM      3  C   UNL     1      17.217 -10.941   0.000  0.00  0.00    +0.000 C 
ATOM      4  C   UNL     1      16.499  -9.702   0.000  0.00  0.00    +0.000 C 
ATOM      5  O   UNL     1      15.553 -10.447   0.000  0.00  0.00    +0.000 OA
ATOM      6  O   UNL     1      15.008 -10.630   0.000  0.00  0.00    +0.000 OA
ATOM      7  O   UNL     1      15.785 -11.770   0.000  0.00  0.00    +0.000 OA
ATOM      8  C   UNL     1      17.217 -11.770   0.000  0.00  0.00    +0.000 C 
ATOM      9  C   UNL     1      17.928 -10.527   0.000  0.00  0.00    +0.000 C 
ATOM     10  C   UNL     1      17.217  -9.287   0.000  0.00  0.00    +0.000 C 
ATOM     11  C   UNL     1      16.057  -9.094   0.000  0.00  0.00    +0.000 C 
ATOM     12  O   UNL     1      15.557  -9.622   0.000  0.00  0.00    +0.000 OA
ATOM     13  C   UNL     1      14.763  -9.840   0.000  0.00  0.00    +0.000 C 
ATOM     14  C   UNL     1      16.499 -12.184   0.000  0.00  0.00    +0.000 C 
ATOM     15  C   UNL     1      17.932 -12.180   0.000  0.00  0.00    +0.000 C 
ATOM     16  C   UNL     1      17.928  -9.702   0.000  0.00  0.00    +0.000 C 
ATOM     17  C   UNL     1      17.217  -8.463   0.000  0.00  0.00    +0.000 C 
ATOM     18  C   UNL     1      15.229  -9.077   0.000  0.00  0.00    +0.000 C 
ATOM     19  C   UNL     1      13.945  -9.840   0.000  0.00  0.00    +0.000 C 
ENDROOT
BRANCH  14  20
ATOM     20  O   UNL     1      16.503 -13.009   0.000  0.00  0.00    +0.000 OA
ATOM     21  C   UNL     1      15.781 -13.429   0.000  0.00  0.00    +0.000 C 
ENDBRANCH  14  20
TORSDOF 1
