REMARK  Name = 
REMARK  8 active torsions:
REMARK  status: ('A' for Active; 'I' for Inactive)
REMARK    1  A    between atoms: C_5  and  C_22
REMARK    2  A    between atoms: C_6  and  C_23
REMARK    3  A    between atoms: C_11  and  C_12
REMARK    4  A    between atoms: C_11  and  C_20
REMARK    5  A    between atoms: C_12  and  C_29
REMARK    6  A    between atoms: C_16  and  C_24
REMARK    7  A    between atoms: C_16  and  C_26
REMARK    8  A    between atoms: C_21  and  C_29
REMARK                            x       y       z     vdW  Elec       q    Type
REMARK                         _______ _______ _______ _____ _____    ______ ____
ROOT
ATOM      1  C   UNL     1      -0.584  -0.621   0.000  0.00  0.00    +0.000 C 
ATOM      2  C   UNL     1      -0.584   0.808   0.000  0.00  0.00    +0.000 C 
ATOM      3  C   UNL     1      -0.171   0.094   0.000  0.00  0.00    +0.000 C 
ATOM      4  C   UNL     1      -1.409   0.808   0.000  0.00  0.00    +0.000 C 
ATOM      5  C   UNL     1      -1.409  -0.621   0.000  0.00  0.00    +0.000 C 
ATOM      6  O   UNL     1       0.654   0.094   0.000  0.00  0.00    +0.000 OA
ATOM      7  O   UNL     1      -1.821   1.523   0.000  0.00  0.00    +0.000 OA
ATOM      8  O   UNL     1      -1.821   0.094   0.000  0.00  0.00    +0.000 OA
ENDROOT
BRANCH   5  13
ATOM      9  C   UNL     1      -1.451  -2.755   0.000  0.00  0.00    +0.000 C 
ATOM     10  C   UNL     1      -0.639  -2.612   0.000  0.00  0.00    +0.000 C 
ATOM     11  C   UNL     1      -1.839  -2.026   0.000  0.00  0.00    +0.000 C 
ATOM     12  C   UNL     1      -0.524  -1.795   0.000  0.00  0.00    +0.000 C 
ATOM     13  C   UNL     1      -1.265  -1.433   0.000  0.00  0.00    +0.000 C 
ENDBRANCH   5  13
BRANCH   5  14
ATOM     14  C   UNL     1      -2.184  -0.903   0.000  0.00  0.00    +0.000 C 
BRANCH  14  15
ATOM     15  C   UNL     1      -2.327  -1.715   0.000  0.00  0.00    +0.000 C 
BRANCH  15  18
ATOM     16  C   UNL     1      -3.246  -2.810   0.000  0.00  0.00    +0.000 A 
ATOM     17  C   UNL     1      -3.734  -1.467   0.000  0.00  0.00    +0.000 A 
ATOM     18  C   UNL     1      -3.103  -1.997   0.000  0.00  0.00    +0.000 A 
ATOM     19  C   UNL     1      -4.021  -3.092   0.000  0.00  0.00    +0.000 A 
ATOM     20  C   UNL     1      -4.510  -1.749   0.000  0.00  0.00    +0.000 A 
ATOM     21  N   UNL     1      -4.653  -2.562   0.000  0.00  0.00    +0.000 NA
BRANCH  19  23
ATOM     22  C   UNL     1      -4.939  -4.186   0.000  0.00  0.00    +0.000 C 
ATOM     23  C   UNL     1      -4.164  -3.904   0.000  0.00  0.00    +0.000 C 
ENDBRANCH  19  23
BRANCH  20  25
ATOM     24  C   UNL     1      -5.917  -1.501   0.000  0.00  0.00    +0.000 C 
ATOM     25  C   UNL     1      -5.142  -1.219   0.000  0.00  0.00    +0.000 C 
ENDBRANCH  20  25
ENDBRANCH  15  18
ENDBRANCH  14  15
ENDBRANCH   5  14
BRANCH   2  26
ATOM     26  C   UNL     1      -0.171   1.523   0.000  0.00  0.00    +0.000 C 
BRANCH  26  32
ATOM     27  C   UNL     1       4.067   2.348   0.000  0.00  0.00    +0.000 C 
ATOM     28  C   UNL     1       2.638  -0.127   0.000  0.00  0.00    +0.000 C 
ATOM     29  C   UNL     1       3.352   1.110   0.000  0.00  0.00    +0.000 A 
ATOM     30  C   UNL     1       3.352   1.935   0.000  0.00  0.00    +0.000 A 
ATOM     31  C   UNL     1       2.638   0.698   0.000  0.00  0.00    +0.000 A 
ATOM     32  C   UNL     1       0.654   1.523   0.000  0.00  0.00    +0.000 A 
ATOM     33  C   UNL     1       1.923   1.935   0.000  0.00  0.00    +0.000 A 
ATOM     34  N   UNL     1       2.638   2.348   0.000  0.00  0.00    +0.000 NA
ATOM     35  N   UNL     1       1.139   2.190   0.000  0.00  0.00    +0.000 NA
ATOM     36  N   UNL     1       1.139   0.856   0.000  0.00  0.00    +0.000 NA
ATOM     37  N   UNL     1       1.923   1.110   0.000  0.00  0.00    +0.000 N 
ENDBRANCH  26  32
ENDBRANCH   2  26
TORSDOF 8
