REMARK  Name = 
REMARK  4 active torsions:
REMARK  status: ('A' for Active; 'I' for Inactive)
REMARK    1  A    between atoms: C_1  and  C_4
REMARK    2  A    between atoms: C_1  and  N_14
REMARK    3  A    between atoms: C_4  and  C_6
REMARK    4  A    between atoms: C_6  and  C_9
REMARK                            x       y       z     vdW  Elec       q    Type
REMARK                         _______ _______ _______ _____ _____    ______ ____
ROOT
ATOM      1  C   UNL     1      -2.656   4.734   0.000  0.00  0.00    +0.000 A 
ATOM      2  C   UNL     1      -0.926   2.622   0.000  0.00  0.00    +0.000 A 
ATOM      3  C   UNL     1      -2.146   3.165   0.000  0.00  0.00    +0.000 A 
ATOM      4  C   UNL     1      -2.953   3.336   0.000  0.00  0.00    +0.000 A 
ATOM      5  C   UNL     1      -1.594   3.778   0.000  0.00  0.00    +0.000 A 
ATOM      6  N   UNL     1      -3.505   2.723   0.000  0.00  0.00    +0.000 NA
ATOM      7  N   UNL     1      -3.208   4.121   0.000  0.00  0.00    +0.000 NA
ATOM      8  N   UNL     1      -1.849   4.562   0.000  0.00  0.00    +0.000 NA
ATOM      9  N   UNL     1      -1.733   2.450   0.000  0.00  0.00    +0.000 NA
ATOM     10  N   UNL     1      -0.840   3.442   0.000  0.00  0.00    +0.000 N 
ENDROOT
BRANCH  10  11
ATOM     11  C   UNL     1      -0.126   3.855   0.000  0.00  0.00    +0.000 C 
BRANCH  11  12
ATOM     12  C   UNL     1       0.589   3.442   0.000  0.00  0.00    +0.000 C 
ATOM     13  O   UNL     1       0.589   2.617   0.000  0.00  0.00    +0.000 OA
BRANCH  12  14
ATOM     14  C   UNL     1       1.303   3.855   0.000  0.00  0.00    +0.000 C 
ATOM     15  O   UNL     1       1.303   4.680   0.000  0.00  0.00    +0.000 OA
BRANCH  14  16
ATOM     16  C   UNL     1       2.018   3.442   0.000  0.00  0.00    +0.000 C 
ATOM     17  O   UNL     1       2.732   3.855   0.000  0.00  0.00    +0.000 OA
ATOM     18  O   UNL     1       2.018   2.617   0.000  0.00  0.00    +0.000 OA
ENDBRANCH  14  16
ENDBRANCH  12  14
ENDBRANCH  11  12
ENDBRANCH  10  11
TORSDOF 4
