REMARK  Name = 
REMARK  11 active torsions:
REMARK  status: ('A' for Active; 'I' for Inactive)
REMARK    1  A    between atoms: S_1  and  C_14
REMARK    2  A    between atoms: S_1  and  C_15
REMARK    3  A    between atoms: N_9  and  C_13
REMARK    4  A    between atoms: N_10  and  CA_17
REMARK    5  A    between atoms: C_12  and  C_16
REMARK    6  A    between atoms: C_12  and  C_19
REMARK    7  A    between atoms: C_13  and  C_15
REMARK    8  A    between atoms: C_13  and  C_21
REMARK    9  A    between atoms: C_16  and  C_18
REMARK   10  A    between atoms: CA_17  and  C_20
REMARK   11  A    between atoms: C_18  and  C_22
REMARK                            x       y       z     vdW  Elec       q    Type
REMARK                         _______ _______ _______ _____ _____    ______ ____
ROOT
ATOM      1  C   UNK A   1      25.376 -18.121   0.000  0.00  0.00    +0.000 C 
ENDROOT
BRANCH   1   4
ATOM      2  O   UNK A   1      26.090 -16.884   0.000  0.00  0.00    +0.000 OA
ATOM      3  N   GLY A   2      26.805 -18.121   0.000  0.00  0.00    +0.000 NA
ATOM      4  C   UNK A   1      26.090 -17.709   0.000  0.00  0.00    +0.000 C 
BRANCH   3   5
ATOM      5  CA  GLY A   2      27.519 -17.709   0.000  0.00  0.00    +0.000 C 
BRANCH   5   8
ATOM      6  O   GLY A   2      28.948 -17.709   0.000  0.00  0.00    +0.000 OA
ATOM      7  OXT GLY A   2      28.234 -18.946   0.000  0.00  0.00    +0.000 OA
ATOM      8  C   GLY A   2      28.234 -18.121   0.000  0.00  0.00    +0.000 C 
ENDBRANCH   5   8
ENDBRANCH   3   5
ENDBRANCH   1   4
BRANCH   1  10
ATOM      9  O   UNK A   1      23.947 -18.946   0.000  0.00  0.00    +0.000 OA
ATOM     10  N   UNK A   1      24.661 -17.709   0.000  0.00  0.00    +0.000 NA
ATOM     11  C   UNK A   1      23.947 -18.121   0.000  0.00  0.00    +0.000 C 
BRANCH  11  12
ATOM     12  C   UNK A   1      23.232 -17.709   0.000  0.00  0.00    +0.000 C 
BRANCH  12  13
ATOM     13  C   UNK A   1      22.518 -18.121   0.000  0.00  0.00    +0.000 C 
BRANCH  13  15
ATOM     14  N   UNK A   1      21.803 -16.884   0.000  0.00  0.00    +0.000 NA
ATOM     15  C   UNK A   1      21.803 -17.709   0.000  0.00  0.00    +0.000 C 
BRANCH  15  18
ATOM     16  O   UNK A   1      20.375 -17.709   0.000  0.00  0.00    +0.000 OA
ATOM     17  O   UNK A   1      21.089 -18.946   0.000  0.00  0.00    +0.000 OA
ATOM     18  C   UNK A   1      21.089 -18.121   0.000  0.00  0.00    +0.000 C 
ENDBRANCH  15  18
ENDBRANCH  13  15
ENDBRANCH  12  13
ENDBRANCH  11  12
ENDBRANCH   1  10
BRANCH   1  19
ATOM     19  C   UNK A   1      25.376 -18.946   0.000  0.00  0.00    +0.000 C 
BRANCH  19  20
ATOM     20  S   UNK A   1      24.661 -19.358   0.000  0.00  0.00    +0.000 S 
BRANCH  20  22
ATOM     21  O   UNK A   1      23.947 -20.596   0.000  0.00  0.00    +0.000 OA
ATOM     22  C   UNK A   1      24.661 -20.184   0.000  0.00  0.00    +0.000 C 
ENDBRANCH  20  22
ENDBRANCH  19  20
ENDBRANCH   1  19
TORSDOF 11
