REMARK  Name = 
REMARK  7 active torsions:
REMARK  status: ('A' for Active; 'I' for Inactive)
REMARK    1  A    between atoms: C_10  and  C_12
REMARK    2  A    between atoms: C_10  and  C_16
REMARK    3  A    between atoms: C_12  and  C_23
REMARK    4  A    between atoms: C_14  and  C_17
REMARK    5  A    between atoms: C_15  and  C_18
REMARK    6  A    between atoms: C_19  and  N_24
REMARK    7  A    between atoms: C_20  and  N_25
REMARK                            x       y       z     vdW  Elec       q    Type
REMARK                         _______ _______ _______ _____ _____    ______ ____
ROOT
ATOM      1  C   UNL     1      -1.613   1.224   0.000  0.00  0.00    +0.000 A 
ATOM      2  C   UNL     1      -1.613   0.399   0.000  0.00  0.00    +0.000 A 
ATOM      3  C   UNL     1      -0.184   1.224   0.000  0.00  0.00    +0.000 A 
ATOM      4  C   UNL     1      -0.899   1.637   0.000  0.00  0.00    +0.000 A 
ATOM      5  C   UNL     1      -0.899  -0.013   0.000  0.00  0.00    +0.000 A 
ATOM      6  C   UNL     1      -0.184   0.399   0.000  0.00  0.00    +0.000 A 
ENDROOT
BRANCH   5   8
ATOM      7  C   UNL     1      -1.613  -1.251   0.000  0.00  0.00    +0.000 C 
ATOM      8  N   UNL     1      -0.899  -0.838   0.000  0.00  0.00    +0.000 NA
BRANCH   7  13
ATOM      9  C   UNL     1      -2.328  -3.313   0.000  0.00  0.00    +0.000 A 
ATOM     10  C   UNL     1      -1.613  -3.726   0.000  0.00  0.00    +0.000 A 
ATOM     11  C   UNL     1      -2.328  -2.488   0.000  0.00  0.00    +0.000 A 
ATOM     12  C   UNL     1      -0.899  -3.313   0.000  0.00  0.00    +0.000 A 
ATOM     13  C   UNL     1      -1.613  -2.076   0.000  0.00  0.00    +0.000 A 
ATOM     14  C   UNL     1      -0.899  -2.488   0.000  0.00  0.00    +0.000 A 
ATOM     15  O   UNL     1      -0.184  -2.076   0.000  0.00  0.00    +0.000 OA
ENDBRANCH   7  13
ENDBRANCH   5   8
BRANCH   6  17
ATOM     16  C   UNL     1       1.245   0.399   0.000  0.00  0.00    +0.000 C 
ATOM     17  N   UNL     1       0.530  -0.013   0.000  0.00  0.00    +0.000 NA
BRANCH  16  22
ATOM     18  C   UNL     1       2.674  -1.251   0.000  0.00  0.00    +0.000 A 
ATOM     19  C   UNL     1       3.388  -0.838   0.000  0.00  0.00    +0.000 A 
ATOM     20  C   UNL     1       1.959  -0.838   0.000  0.00  0.00    +0.000 A 
ATOM     21  C   UNL     1       3.388  -0.013   0.000  0.00  0.00    +0.000 A 
ATOM     22  C   UNL     1       1.959  -0.013   0.000  0.00  0.00    +0.000 A 
ATOM     23  C   UNL     1       2.674   0.399   0.000  0.00  0.00    +0.000 A 
ATOM     24  O   UNL     1       2.674   1.224   0.000  0.00  0.00    +0.000 OA
ENDBRANCH  16  22
ENDBRANCH   6  17
BRANCH   4  25
ATOM     25  C   UNL     1      -0.899   2.462   0.000  0.00  0.00    +0.000 C 
BRANCH  25  26
ATOM     26  C   UNL     1      -0.184   2.874   0.000  0.00  0.00    +0.000 C 
BRANCH  26  27
ATOM     27  C   UNL     1      -0.184   3.699   0.000  0.00  0.00    +0.000 C 
ATOM     28  O   UNL     1      -0.899   4.112   0.000  0.00  0.00    +0.000 OA
ATOM     29  O   UNL     1       0.530   4.112   0.000  0.00  0.00    +0.000 OA
ENDBRANCH  26  27
ENDBRANCH  25  26
ENDBRANCH   4  25
TORSDOF 7
REMARK  Name = 
REMARK  7 active torsions:
REMARK  status: ('A' for Active; 'I' for Inactive)
REMARK    1  A    between atoms: C_10  and  C_12
REMARK    2  A    between atoms: C_10  and  C_16
REMARK    3  A    between atoms: C_12  and  C_23
REMARK    4  A    between atoms: C_14  and  C_17
REMARK    5  A    between atoms: C_15  and  C_18
REMARK    6  A    between atoms: C_19  and  N_24
REMARK    7  A    between atoms: C_20  and  N_25
REMARK                            x       y       z     vdW  Elec       q    Type
REMARK                         _______ _______ _______ _____ _____    ______ ____
ROOT
ATOM      1 FE   UNL     1       5.745   0.000   0.000  0.00  0.00    +0.000 Fe
ENDROOT
TORSDOF 0
