REMARK  Name = 
REMARK  6 active torsions:
REMARK  status: ('A' for Active; 'I' for Inactive)
REMARK    1  A    between atoms: C_3  and  O_33
REMARK    2  A    between atoms: C_19  and  C_20
REMARK    3  A    between atoms: C_21  and  N_29
REMARK    4  A    between atoms: C_22  and  O_33
REMARK    5  A    between atoms: C_23  and  S_34
REMARK    6  A    between atoms: C_24  and  S_34
REMARK                            x       y       z     vdW  Elec       q    Type
REMARK                         _______ _______ _______ _____ _____    ______ ____
ROOT
ATOM      1  C   UNL     1      -0.715  -3.712   0.000  0.00  0.00    +0.000 A 
ATOM      2  C   UNL     1       0.000  -4.125   0.000  0.00  0.00    +0.000 A 
ATOM      3  C   UNL     1       0.000  -2.475   0.000  0.00  0.00    +0.000 A 
ATOM      4  C   UNL     1      -0.715  -2.888   0.000  0.00  0.00    +0.000 A 
ATOM      5  C   UNL     1       0.715  -2.888   0.000  0.00  0.00    +0.000 A 
ATOM      6  C   UNL     1       0.715  -3.712   0.000  0.00  0.00    +0.000 A 
ENDROOT
BRANCH   4  16
ATOM      7  C   UNL     1      -5.716  -4.950   0.000  0.00  0.00    +0.000 C 
ATOM      8  C   UNL     1      -1.429  -1.650   0.000  0.00  0.00    +0.000 A 
ATOM      9  C   UNL     1      -2.143  -1.238   0.000  0.00  0.00    +0.000 A 
ATOM     10  C   UNL     1      -4.287  -4.125   0.000  0.00  0.00    +0.000 C 
ATOM     11  C   UNL     1      -5.001  -2.888   0.000  0.00  0.00    +0.000 C 
ATOM     12  C   UNL     1      -3.572  -3.712   0.000  0.00  0.00    +0.000 C 
ATOM     13  C   UNL     1      -4.287  -2.475   0.000  0.00  0.00    +0.000 C 
ATOM     14  C   UNL     1      -2.143  -2.888   0.000  0.00  0.00    +0.000 A 
ATOM     15  C   UNL     1      -5.716  -4.125   0.000  0.00  0.00    +0.000 C 
ATOM     16  C   UNL     1      -1.429  -2.475   0.000  0.00  0.00    +0.000 A 
ATOM     17  C   UNL     1      -2.858  -2.475   0.000  0.00  0.00    +0.000 A 
ATOM     18  N   UNL     1      -2.858  -1.650   0.000  0.00  0.00    +0.000 NA
ATOM     19  N   UNL     1      -5.001  -3.712   0.000  0.00  0.00    +0.000 N 
ATOM     20  N   UNL     1      -3.572  -2.888   0.000  0.00  0.00    +0.000 N 
ATOM     21  O   UNL     1      -6.430  -3.712   0.000  0.00  0.00    +0.000 OA
ENDBRANCH   4  16
BRANCH   5  22
ATOM     22  N   UNL     1       1.429  -2.475   0.000  0.00  0.00    +0.000 N 
ATOM     23  O   UNL     1       2.143  -2.888   0.000  0.00  0.00    +0.000 OA
ATOM     24  O   UNL     1       1.429  -1.650   0.000  0.00  0.00    +0.000 OA
ENDBRANCH   5  22
BRANCH   6  25
ATOM     25  S   UNL     1       1.429  -4.125   0.000  0.00  0.00    +0.000 S 
BRANCH  25  31
ATOM     26  C   UNL     1       1.429  -6.600   0.000  0.00  0.00    +0.000 A 
ATOM     27  C   UNL     1       0.715  -6.188   0.000  0.00  0.00    +0.000 A 
ATOM     28  C   UNL     1       2.143  -6.188   0.000  0.00  0.00    +0.000 A 
ATOM     29  C   UNL     1       0.715  -5.362   0.000  0.00  0.00    +0.000 A 
ATOM     30  C   UNL     1       2.143  -5.362   0.000  0.00  0.00    +0.000 A 
ATOM     31  C   UNL     1       1.429  -4.950   0.000  0.00  0.00    +0.000 A 
BRANCH  30  32
ATOM     32  O   UNL     1       2.858  -4.950   0.000  0.00  0.00    +0.000 OA
BRANCH  32  34
ATOM     33  C   UNL     1       4.287  -4.950   0.000  0.00  0.00    +0.000 C 
ATOM     34  C   UNL     1       3.572  -5.362   0.000  0.00  0.00    +0.000 C 
ENDBRANCH  32  34
ENDBRANCH  30  32
ENDBRANCH  25  31
ENDBRANCH   6  25
TORSDOF 6
