REMARK  Name = 
REMARK  39 active torsions:
REMARK  status: ('A' for Active; 'I' for Inactive)
REMARK    1  A    between atoms: C_3  and  C_5
REMARK    2  A    between atoms: C_4  and  C_6
REMARK    3  A    between atoms: C_5  and  C_7
REMARK    4  A    between atoms: C_6  and  C_8
REMARK    5  A    between atoms: C_7  and  C_9
REMARK    6  A    between atoms: C_8  and  C_10
REMARK    7  A    between atoms: C_9  and  C_11
REMARK    8  A    between atoms: C_10  and  C_12
REMARK    9  A    between atoms: C_11  and  C_13
REMARK   10  A    between atoms: C_12  and  C_14
REMARK   11  A    between atoms: C_13  and  C_15
REMARK   12  A    between atoms: C_14  and  C_16
REMARK   13  A    between atoms: C_15  and  C_17
REMARK   14  A    between atoms: C_16  and  C_19
REMARK   15  A    between atoms: C_18  and  C_20
REMARK   16  A    between atoms: C_19  and  C_21
REMARK   17  A    between atoms: C_20  and  C_22
REMARK   18  A    between atoms: C_21  and  C_23
REMARK   19  A    between atoms: C_22  and  C_24
REMARK   20  A    between atoms: C_23  and  C_25
REMARK   21  A    between atoms: C_24  and  C_26
REMARK   22  A    between atoms: C_25  and  C_27
REMARK   23  A    between atoms: C_26  and  C_28
REMARK   24  A    between atoms: C_27  and  C_29
REMARK   25  A    between atoms: C_28  and  C_30
REMARK   26  A    between atoms: C_29  and  C_31
REMARK   27  A    between atoms: C_30  and  C_32
REMARK   28  A    between atoms: C_31  and  C_36
REMARK   29  A    between atoms: C_32  and  C_37
REMARK   30  A    between atoms: C_33  and  C_35
REMARK   31  A    between atoms: C_33  and  O_53
REMARK   32  A    between atoms: C_34  and  C_35
REMARK   33  A    between atoms: C_34  and  O_54
REMARK   34  A    between atoms: C_35  and  O_55
REMARK   35  A    between atoms: C_36  and  O_53
REMARK   36  A    between atoms: C_37  and  O_55
REMARK   37  A    between atoms: C_43  and  O_56
REMARK   38  A    between atoms: O_54  and  P_57
REMARK   39  A    between atoms: O_56  and  P_57
REMARK                            x       y       z     vdW  Elec       q    Type
REMARK                         _______ _______ _______ _____ _____    ______ ____
ROOT
ATOM      1  C   UNL     1      22.381  15.598   0.000  0.00  0.00    +0.000 C 
ENDROOT
BRANCH   1   2
ATOM      2  C   UNL     1      21.557  15.545   0.000  0.00  0.00    +0.000 C 
BRANCH   2   3
ATOM      3  O   UNL     1      21.191  14.806   0.000  0.00  0.00    +0.000 OA
BRANCH   3   4
ATOM      4  C   UNL     1      20.368  14.753   0.000  0.00  0.00    +0.000 C 
ATOM      5  O   UNL     1      19.911  15.439   0.000  0.00  0.00    +0.000 OA
BRANCH   4   6
ATOM      6  C   UNL     1      20.002  14.013   0.000  0.00  0.00    +0.000 C 
BRANCH   6   7
ATOM      7  C   UNL     1      19.179  13.961   0.000  0.00  0.00    +0.000 C 
BRANCH   7   8
ATOM      8  C   UNL     1      18.813  13.221   0.000  0.00  0.00    +0.000 C 
BRANCH   8   9
ATOM      9  C   UNL     1      17.989  13.168   0.000  0.00  0.00    +0.000 C 
BRANCH   9  10
ATOM     10  C   UNL     1      17.624  12.429   0.000  0.00  0.00    +0.000 C 
BRANCH  10  11
ATOM     11  C   UNL     1      16.800  12.376   0.000  0.00  0.00    +0.000 C 
BRANCH  11  12
ATOM     12  C   UNL     1      16.434  11.637   0.000  0.00  0.00    +0.000 C 
BRANCH  12  13
ATOM     13  C   UNL     1      15.611  11.584   0.000  0.00  0.00    +0.000 C 
BRANCH  13  14
ATOM     14  C   UNL     1      15.245  10.845   0.000  0.00  0.00    +0.000 C 
BRANCH  14  15
ATOM     15  C   UNL     1      14.422  10.792   0.000  0.00  0.00    +0.000 C 
BRANCH  15  16
ATOM     16  C   UNL     1      14.056  10.052   0.000  0.00  0.00    +0.000 C 
BRANCH  16  17
ATOM     17  C   UNL     1      13.233   9.999   0.000  0.00  0.00    +0.000 C 
BRANCH  17  18
ATOM     18  C   UNL     1      12.867   9.260   0.000  0.00  0.00    +0.000 C 
BRANCH  18  20
ATOM     19  C   UNL     1      11.678   8.468   0.000  0.00  0.00    +0.000 C 
ATOM     20  C   UNL     1      12.043   9.207   0.000  0.00  0.00    +0.000 C 
ENDBRANCH  18  20
ENDBRANCH  17  18
ENDBRANCH  16  17
ENDBRANCH  15  16
ENDBRANCH  14  15
ENDBRANCH  13  14
ENDBRANCH  12  13
ENDBRANCH  11  12
ENDBRANCH  10  11
ENDBRANCH   9  10
ENDBRANCH   8   9
ENDBRANCH   7   8
ENDBRANCH   6   7
ENDBRANCH   4   6
ENDBRANCH   3   4
ENDBRANCH   2   3
ENDBRANCH   1   2
BRANCH   1  21
ATOM     21  C   UNL     1      22.746  16.337   0.000  0.00  0.00    +0.000 C 
BRANCH  21  22
ATOM     22  O   UNL     1      22.289  17.024   0.000  0.00  0.00    +0.000 OA
BRANCH  22  25
ATOM     23  O   UNL     1      20.642  16.918   0.000  0.00  0.00    +0.000 OA
ATOM     24  O   UNL     1      21.518  16.148   0.000  0.00  0.00    +0.000 OA
ATOM     25  P   UNL     1      21.466  16.971   0.000  0.00  0.00    +0.000 P 
BRANCH  25  26
ATOM     26  O   UNL     1      21.413  17.794   0.000  0.00  0.00    +0.000 OA
BRANCH  26  32
ATOM     27  C   UNL     1      23.473  19.166   0.000  0.00  0.00    +0.000 C 
ATOM     28  C   UNL     1      22.733  19.532   0.000  0.00  0.00    +0.000 C 
ATOM     29  C   UNL     1      23.526  18.343   0.000  0.00  0.00    +0.000 C 
ATOM     30  C   UNL     1      22.047  19.075   0.000  0.00  0.00    +0.000 C 
ATOM     31  C   UNL     1      22.839  17.886   0.000  0.00  0.00    +0.000 C 
ATOM     32  C   UNL     1      22.099  18.252   0.000  0.00  0.00    +0.000 C 
ATOM     33  O   UNL     1      24.159  19.624   0.000  0.00  0.00    +0.000 OA
ATOM     34  O   UNL     1      22.680  20.356   0.000  0.00  0.00    +0.000 OA
ATOM     35  O   UNL     1      24.265  17.977   0.000  0.00  0.00    +0.000 OA
ATOM     36  O   UNL     1      21.307  19.441   0.000  0.00  0.00    +0.000 OA
ATOM     37  O   UNL     1      22.892  17.062   0.000  0.00  0.00    +0.000 OA
ENDBRANCH  26  32
ENDBRANCH  25  26
ENDBRANCH  22  25
ENDBRANCH  21  22
ENDBRANCH   1  21
BRANCH   1  38
ATOM     38  O   UNL     1      22.838  14.911   0.000  0.00  0.00    +0.000 OA
BRANCH  38  39
ATOM     39  C   UNL     1      22.472  14.172   0.000  0.00  0.00    +0.000 C 
ATOM     40  O   UNL     1      21.649  14.119   0.000  0.00  0.00    +0.000 OA
BRANCH  39  41
ATOM     41  C   UNL     1      22.929  13.485   0.000  0.00  0.00    +0.000 C 
BRANCH  41  42
ATOM     42  C   UNL     1      22.564  12.746   0.000  0.00  0.00    +0.000 C 
BRANCH  42  43
ATOM     43  C   UNL     1      23.021  12.059   0.000  0.00  0.00    +0.000 C 
BRANCH  43  44
ATOM     44  C   UNL     1      22.655  11.320   0.000  0.00  0.00    +0.000 C 
BRANCH  44  45
ATOM     45  C   UNL     1      23.112  10.633   0.000  0.00  0.00    +0.000 C 
BRANCH  45  46
ATOM     46  C   UNL     1      22.746   9.894   0.000  0.00  0.00    +0.000 C 
BRANCH  46  47
ATOM     47  C   UNL     1      23.204   9.207   0.000  0.00  0.00    +0.000 C 
BRANCH  47  49
ATOM     48  C   UNL     1      22.015   8.415   0.000  0.00  0.00    +0.000 C 
ATOM     49  C   UNL     1      22.838   8.468   0.000  0.00  0.00    +0.000 C 
BRANCH  48  50
ATOM     50  C   UNL     1      21.649   7.676   0.000  0.00  0.00    +0.000 C 
BRANCH  50  51
ATOM     51  C   UNL     1      20.825   7.623   0.000  0.00  0.00    +0.000 C 
BRANCH  51  52
ATOM     52  C   UNL     1      20.459   6.883   0.000  0.00  0.00    +0.000 C 
BRANCH  52  53
ATOM     53  C   UNL     1      19.636   6.830   0.000  0.00  0.00    +0.000 C 
BRANCH  53  54
ATOM     54  C   UNL     1      19.270   6.091   0.000  0.00  0.00    +0.000 C 
BRANCH  54  55
ATOM     55  C   UNL     1      18.447   6.038   0.000  0.00  0.00    +0.000 C 
BRANCH  55  57
ATOM     56  C   UNL     1      17.258   5.246   0.000  0.00  0.00    +0.000 C 
ATOM     57  C   UNL     1      18.081   5.299   0.000  0.00  0.00    +0.000 C 
ENDBRANCH  55  57
ENDBRANCH  54  55
ENDBRANCH  53  54
ENDBRANCH  52  53
ENDBRANCH  51  52
ENDBRANCH  50  51
ENDBRANCH  48  50
ENDBRANCH  47  49
ENDBRANCH  46  47
ENDBRANCH  45  46
ENDBRANCH  44  45
ENDBRANCH  43  44
ENDBRANCH  42  43
ENDBRANCH  41  42
ENDBRANCH  39  41
ENDBRANCH  38  39
ENDBRANCH   1  38
TORSDOF 39
