REMARK  Name = 
REMARK  5 active torsions:
REMARK  status: ('A' for Active; 'I' for Inactive)
REMARK    1  A    between atoms: C_3  and  C_15
REMARK    2  A    between atoms: C_13  and  C_14
REMARK    3  A    between atoms: C_13  and  N_18
REMARK    4  A    between atoms: C_14  and  C_17
REMARK    5  A    between atoms: C_16  and  C_17
REMARK                            x       y       z     vdW  Elec       q    Type
REMARK                         _______ _______ _______ _____ _____    ______ ____
ROOT
ATOM      1  C   UNL     1       2.143  -0.412   0.000  0.00  0.00    +0.000 C 
ATOM      2  O   UNL     1       2.858   0.000   0.000  0.00  0.00    +0.000 OA
ENDROOT
BRANCH   1   8
ATOM      3  C   UNL     1       0.000   0.000   0.000  0.00  0.00    +0.000 A 
ATOM      4  C   UNL     1       0.714   1.238   0.000  0.00  0.00    +0.000 A 
ATOM      5  C   UNL     1       0.714  -0.412   0.000  0.00  0.00    +0.000 A 
ATOM      6  C   UNL     1       1.429   0.825   0.000  0.00  0.00    +0.000 A 
ATOM      7  C   UNL     1       0.000   0.825   0.000  0.00  0.00    +0.000 A 
ATOM      8  C   UNL     1       1.429   0.000   0.000  0.00  0.00    +0.000 A 
BRANCH   7  10
ATOM      9  C   UNL     1      -0.714   2.062   0.000  0.00  0.00    +0.000 C 
ATOM     10  C   UNL     1      -0.714   1.238   0.000  0.00  0.00    +0.000 C 
ENDBRANCH   7  10
ENDBRANCH   1   8
BRANCH   1  12
ATOM     11  C   UNL     1       1.429  -1.650   0.000  0.00  0.00    +0.000 C 
ATOM     12  C   UNL     1       2.143  -1.238   0.000  0.00  0.00    +0.000 C 
BRANCH  12  13
ATOM     13  C   UNL     1       2.858  -1.650   0.000  0.00  0.00    +0.000 C 
BRANCH  13  19
ATOM     14  C   UNL     1       2.858  -4.125   0.000  0.00  0.00    +0.000 C 
ATOM     15  C   UNL     1       3.572  -3.712   0.000  0.00  0.00    +0.000 C 
ATOM     16  C   UNL     1       2.143  -3.712   0.000  0.00  0.00    +0.000 C 
ATOM     17  C   UNL     1       3.572  -2.888   0.000  0.00  0.00    +0.000 C 
ATOM     18  C   UNL     1       2.143  -2.888   0.000  0.00  0.00    +0.000 C 
ATOM     19  N   UNL     1       2.858  -2.475   0.000  0.00  0.00    +0.000 NA
ENDBRANCH  13  19
ENDBRANCH  12  13
ENDBRANCH   1  12
TORSDOF 5
