REMARK  Name = 
REMARK  8 active torsions:
REMARK  status: ('A' for Active; 'I' for Inactive)
REMARK    1  A    between atoms: C_1  and  O_14
REMARK    2  A    between atoms: C_2  and  C_20
REMARK    3  A    between atoms: C_3  and  C_13
REMARK    4  A    between atoms: C_5  and  C_10
REMARK    5  A    between atoms: C_7  and  C_9
REMARK    6  A    between atoms: C_13  and  O_14
REMARK    7  A    between atoms: N_19  and  C_27
REMARK    8  A    between atoms: C_27  and  C_28
REMARK                            x       y       z     vdW  Elec       q    Type
REMARK                         _______ _______ _______ _____ _____    ______ ____
ROOT
ATOM      1  C   UNL     1      10.396  -4.569   0.000  0.00  0.00    +0.000 C 
ATOM      2  C   UNL     1      10.396  -5.380   0.000  0.00  0.00    +0.000 C 
ATOM      3  O   UNL     1       9.681  -4.157   0.000  0.00  0.00    +0.000 OA
ATOM      4  C   UNL     1       8.967  -4.569   0.000  0.00  0.00    +0.000 C 
ATOM      5  C   UNL     1       8.967  -5.380   0.000  0.00  0.00    +0.000 C 
ATOM      6  N   UNL     1       9.681  -5.792   0.000  0.00  0.00    +0.000 NA
ENDROOT
BRANCH   2   7
ATOM      7  C   UNL     1      11.113  -5.795   0.000  0.00  0.00    +0.000 A 
ATOM      8  C   UNL     1      11.113  -6.606   0.000  0.00  0.00    +0.000 A 
ATOM      9  C   UNL     1      11.828  -7.019   0.000  0.00  0.00    +0.000 A 
ATOM     10  C   UNL     1      12.542  -6.606   0.000  0.00  0.00    +0.000 A 
ATOM     11  C   UNL     1      12.542  -5.795   0.000  0.00  0.00    +0.000 A 
ATOM     12  C   UNL     1      11.828  -5.382   0.000  0.00  0.00    +0.000 A 
ATOM     13  F   UNL     1      13.263  -7.022   0.000  0.00  0.00    +0.000 F 
ENDBRANCH   2   7
BRANCH   6  14
ATOM     14  C   UNL     1       9.678  -6.630   0.000  0.00  0.00    +0.000 C 
BRANCH  14  15
ATOM     15  C   UNL     1       8.963  -7.042   0.000  0.00  0.00    +0.000 A 
ATOM     16  N   UNL     1       8.237  -6.623   0.000  0.00  0.00    +0.000 NA
ATOM     17  C   UNL     1       7.614  -7.184   0.000  0.00  0.00    +0.000 A 
ATOM     18  N   UNL     1       7.955  -7.950   0.000  0.00  0.00    +0.000 NA
ATOM     19  N   UNL     1       8.789  -7.862   0.000  0.00  0.00    +0.000 NA
ATOM     20  O   UNL     1       6.814  -7.014   0.000  0.00  0.00    +0.000 OA
ENDBRANCH  14  15
ENDBRANCH   6  14
BRANCH   1  21
ATOM     21  O   UNL     1      11.095  -4.165   0.000  0.00  0.00    +0.000 OA
BRANCH  21  22
ATOM     22  C   UNL     1      11.095  -3.352   0.000  0.00  0.00    +0.000 C 
ATOM     23  C   UNL     1      10.381  -2.939   0.000  0.00  0.00    +0.000 C 
BRANCH  22  24
ATOM     24  C   UNL     1      11.810  -2.940   0.000  0.00  0.00    +0.000 A 
ATOM     25  C   UNL     1      12.524  -3.352   0.000  0.00  0.00    +0.000 A 
ATOM     26  C   UNL     1      13.239  -2.940   0.000  0.00  0.00    +0.000 A 
ATOM     27  C   UNL     1      13.239  -2.115   0.000  0.00  0.00    +0.000 A 
ATOM     28  C   UNL     1      12.525  -1.702   0.000  0.00  0.00    +0.000 A 
ATOM     29  C   UNL     1      11.810  -2.115   0.000  0.00  0.00    +0.000 A 
BRANCH  28  30
ATOM     30  C   UNL     1      12.525  -0.864   0.000  0.00  0.00    +0.000 C 
ATOM     31  F   UNL     1      12.525  -0.040   0.000  0.00  0.00    +0.000 F 
ATOM     32  F   UNL     1      11.811  -0.452   0.000  0.00  0.00    +0.000 F 
ATOM     33  F   UNL     1      13.240  -0.452   0.000  0.00  0.00    +0.000 F 
ENDBRANCH  28  30
BRANCH  26  34
ATOM     34  C   UNL     1      13.953  -3.353   0.000  0.00  0.00    +0.000 C 
ATOM     35  F   UNL     1      14.668  -3.765   0.000  0.00  0.00    +0.000 F 
ATOM     36  F   UNL     1      13.953  -4.178   0.000  0.00  0.00    +0.000 F 
ATOM     37  F   UNL     1      14.668  -2.940   0.000  0.00  0.00    +0.000 F 
ENDBRANCH  26  34
ENDBRANCH  22  24
ENDBRANCH  21  22
ENDBRANCH   1  21
TORSDOF 8
