REMARK  Name = 
REMARK  6 active torsions:
REMARK  status: ('A' for Active; 'I' for Inactive)
REMARK    1  A    between atoms: C_2  and  C_4
REMARK    2  A    between atoms: C_9  and  C_11
REMARK    3  A    between atoms: C_11  and  C_12
REMARK    4  A    between atoms: C_11  and  N_18
REMARK    5  A    between atoms: C_12  and  C_13
REMARK    6  A    between atoms: C_19  and  C_21
REMARK                            x       y       z     vdW  Elec       q    Type
REMARK                         _______ _______ _______ _____ _____    ______ ____
ROOT
ATOM      1  C   UNL     1       0.743  -2.437   0.000  0.00  0.00    +0.000 C 
ENDROOT
BRANCH   1   7
ATOM      2  C   UNL     1      -0.639  -0.715   0.000  0.00  0.00    +0.000 C 
ATOM      3  C   UNL     1      -0.385   0.070   0.000  0.00  0.00    +0.000 C 
ATOM      4  C   UNL     1       0.441   0.070   0.000  0.00  0.00    +0.000 C 
ATOM      5  C   UNL     1       0.695  -0.715   0.000  0.00  0.00    +0.000 C 
ATOM      6  N   UNL     1       0.028  -1.200   0.000  0.00  0.00    +0.000 N 
ATOM      7  C   UNL     1       0.028  -2.025   0.000  0.00  0.00    +0.000 C 
ATOM      8  O   UNL     1      -0.686  -2.437   0.000  0.00  0.00    +0.000 OA
BRANCH   2  10
ATOM      9  N   UNL     1      -1.596  -1.777   0.000  0.00  0.00    +0.000 NA
ATOM     10  C   UNL     1      -1.424  -0.970   0.000  0.00  0.00    +0.000 C 
ATOM     11  O   UNL     1      -2.037  -0.418   0.000  0.00  0.00    +0.000 OA
ENDBRANCH   2  10
ENDBRANCH   1   7
BRANCH   1  12
ATOM     12  N   UNL     1       1.457  -2.025   0.000  0.00  0.00    +0.000 NA
ATOM     13  C   UNL     1       2.171  -2.437   0.000  0.00  0.00    +0.000 C 
ATOM     14  O   UNL     1       2.171  -3.262   0.000  0.00  0.00    +0.000 OA
BRANCH  13  15
ATOM     15  C   UNL     1       2.886  -2.025   0.000  0.00  0.00    +0.000 C 
ATOM     16  C   UNL     1       2.972  -1.204   0.000  0.00  0.00    +0.000 C 
ATOM     17  C   UNL     1       3.779  -1.033   0.000  0.00  0.00    +0.000 C 
ATOM     18  C   UNL     1       4.192  -1.747   0.000  0.00  0.00    +0.000 C 
ATOM     19  O   UNL     1       5.012  -1.833   0.000  0.00  0.00    +0.000 OA
ATOM     20  N   UNL     1       3.640  -2.360   0.000  0.00  0.00    +0.000 NA
ENDBRANCH  13  15
ENDBRANCH   1  12
BRANCH   1  21
ATOM     21  C   UNL     1       0.743  -3.262   0.000  0.00  0.00    +0.000 C 
BRANCH  21  22
ATOM     22  C   UNL     1       0.028  -3.675   0.000  0.00  0.00    +0.000 A 
ATOM     23  C   UNL     1      -0.058  -4.495   0.000  0.00  0.00    +0.000 A 
ATOM     24  N   UNL     1      -0.865  -4.667   0.000  0.00  0.00    +0.000 NA
ATOM     25  C   UNL     1      -1.278  -3.952   0.000  0.00  0.00    +0.000 A 
ATOM     26  N   UNL     1      -0.726  -3.339   0.000  0.00  0.00    +0.000 NA
ENDBRANCH  21  22
ENDBRANCH   1  21
TORSDOF 6
