REMARK  Name = 
REMARK  1 active torsions:
REMARK  status: ('A' for Active; 'I' for Inactive)
REMARK    1  A    between atoms: C_5  and  C_7
REMARK                            x       y       z     vdW  Elec       q    Type
REMARK                         _______ _______ _______ _____ _____    ______ ____
ROOT
ATOM      1  N   UNL     1      -2.387   3.123   0.000  0.00  0.00    +0.000 NA
ATOM      2  C   UNL     1      -3.101   2.711   0.000  0.00  0.00    +0.000 C 
ATOM      3  C   UNL     1      -3.101   1.886   0.000  0.00  0.00    +0.000 C 
ATOM      4  C   UNL     1      -2.387   1.473   0.000  0.00  0.00    +0.000 C 
ATOM      5  C   UNL     1      -1.672   1.886   0.000  0.00  0.00    +0.000 C 
ATOM      6  C   UNL     1      -1.672   2.711   0.000  0.00  0.00    +0.000 C 
ENDROOT
BRANCH   5   7
ATOM      7  C   UNL     1      -0.958   1.473   0.000  0.00  0.00    +0.000 C 
ATOM      8  O   UNL     1      -0.243   1.886   0.000  0.00  0.00    +0.000 OA
ATOM      9  O   UNL     1      -0.958   0.648   0.000  0.00  0.00    +0.000 OA
ENDBRANCH   5   7
TORSDOF 1
