REMARK  Name = 
REMARK  12 active torsions:
REMARK  status: ('A' for Active; 'I' for Inactive)
REMARK    1  A    between atoms: O_1  and  C_18
REMARK    2  A    between atoms: O_1  and  C_19
REMARK    3  A    between atoms: C_6  and  C_8
REMARK    4  A    between atoms: C_6  and  C_20
REMARK    5  A    between atoms: C_7  and  C_9
REMARK    6  A    between atoms: C_7  and  C_21
REMARK    7  A    between atoms: C_8  and  C_10
REMARK    8  A    between atoms: C_9  and  C_11
REMARK    9  A    between atoms: C_10  and  C_12
REMARK   10  A    between atoms: C_11  and  C_13
REMARK   11  A    between atoms: C_12  and  C_18
REMARK   12  A    between atoms: C_13  and  C_19
REMARK                            x       y       z     vdW  Elec       q    Type
REMARK                         _______ _______ _______ _____ _____    ______ ____
ROOT
ATOM      1  O   UNL     1       7.094  -0.674   0.000  0.00  0.00    +0.000 OA
ENDROOT
BRANCH   1   2
ATOM      2  C   UNL     1       7.809  -0.262   0.000  0.00  0.00    +0.000 C 
BRANCH   2   3
ATOM      3  C   UNL     1       8.523  -0.674   0.000  0.00  0.00    +0.000 C 
BRANCH   3   4
ATOM      4  C   UNL     1       9.238  -0.262   0.000  0.00  0.00    +0.000 C 
BRANCH   4   5
ATOM      5  C   UNL     1       9.952  -0.674   0.000  0.00  0.00    +0.000 C 
BRANCH   5   6
ATOM      6  C   UNL     1      10.667  -0.262   0.000  0.00  0.00    +0.000 C 
ATOM      7  C   UNL     1      11.079  -0.976   0.000  0.00  0.00    +0.000 C 
ATOM      8  C   UNL     1      10.254   0.453   0.000  0.00  0.00    +0.000 C 
BRANCH   6  11
ATOM      9  O   UNL     1      12.096  -0.262   0.000  0.00  0.00    +0.000 OA
ATOM     10  O   UNL     1      11.381   0.976   0.000  0.00  0.00    +0.000 OA
ATOM     11  C   UNL     1      11.381   0.151   0.000  0.00  0.00    +0.000 C 
ENDBRANCH   6  11
ENDBRANCH   5   6
ENDBRANCH   4   5
ENDBRANCH   3   4
ENDBRANCH   2   3
ENDBRANCH   1   2
BRANCH   1  12
ATOM     12  C   UNL     1       6.380  -0.262   0.000  0.00  0.00    +0.000 C 
BRANCH  12  13
ATOM     13  C   UNL     1       5.665  -0.674   0.000  0.00  0.00    +0.000 C 
BRANCH  13  14
ATOM     14  C   UNL     1       4.951  -0.262   0.000  0.00  0.00    +0.000 C 
BRANCH  14  15
ATOM     15  C   UNL     1       4.237  -0.674   0.000  0.00  0.00    +0.000 C 
BRANCH  15  16
ATOM     16  C   UNL     1       3.522  -0.262   0.000  0.00  0.00    +0.000 C 
ATOM     17  C   UNL     1       3.110  -0.976   0.000  0.00  0.00    +0.000 C 
ATOM     18  C   UNL     1       3.934   0.453   0.000  0.00  0.00    +0.000 C 
BRANCH  16  21
ATOM     19  O   UNL     1       2.093  -0.262   0.000  0.00  0.00    +0.000 OA
ATOM     20  O   UNL     1       2.808   0.976   0.000  0.00  0.00    +0.000 OA
ATOM     21  C   UNL     1       2.808   0.151   0.000  0.00  0.00    +0.000 C 
ENDBRANCH  16  21
ENDBRANCH  15  16
ENDBRANCH  14  15
ENDBRANCH  13  14
ENDBRANCH  12  13
ENDBRANCH   1  12
TORSDOF 12
