REMARK  Name = 
REMARK  2 active torsions:
REMARK  status: ('A' for Active; 'I' for Inactive)
REMARK    1  A    between atoms: C_2  and  C_4
REMARK    2  A    between atoms: C_6  and  C_10
REMARK                            x       y       z     vdW  Elec       q    Type
REMARK                         _______ _______ _______ _____ _____    ______ ____
ROOT
ATOM      1  C   UNL     1       3.993  -1.650   0.000  0.00  0.00    +0.000 C 
ATOM      2  C   UNL     1       3.993   0.825   0.000  0.00  0.00    +0.000 A 
ATOM      3  C   UNL     1       2.564   0.825   0.000  0.00  0.00    +0.000 A 
ATOM      4  C   UNL     1       1.780   1.080   0.000  0.00  0.00    +0.000 A 
ATOM      5  C   UNL     1       2.564   0.000   0.000  0.00  0.00    +0.000 A 
ATOM      6  C   UNL     1       3.279  -0.412   0.000  0.00  0.00    +0.000 A 
ATOM      7  N   UNL     1       3.279  -1.238   0.000  0.00  0.00    +0.000 NA
ATOM      8  N   UNL     1       3.279   1.238   0.000  0.00  0.00    +0.000 NA
ATOM      9  N   UNL     1       3.993   0.000   0.000  0.00  0.00    +0.000 NA
ATOM     10  N   UNL     1       1.295   0.412   0.000  0.00  0.00    +0.000 NA
ATOM     11  N   UNL     1       1.780  -0.255   0.000  0.00  0.00    +0.000 NA
ENDROOT
BRANCH   4  15
ATOM     12  C   UNL     1       1.525   3.199   0.000  0.00  0.00    +0.000 C 
ATOM     13  C   UNL     1       0.740   2.945   0.000  0.00  0.00    +0.000 C 
ATOM     14  C   UNL     1       0.740   2.119   0.000  0.00  0.00    +0.000 C 
ATOM     15  C   UNL     1       1.525   1.865   0.000  0.00  0.00    +0.000 C 
ATOM     16  O   UNL     1       0.073   3.429   0.000  0.00  0.00    +0.000 OA
ATOM     17  O   UNL     1       0.073   1.635   0.000  0.00  0.00    +0.000 OA
ATOM     18  O   UNL     1       2.010   2.532   0.000  0.00  0.00    +0.000 OA
BRANCH  12  19
ATOM     19  C   UNL     1       1.780   3.984   0.000  0.00  0.00    +0.000 C 
ATOM     20  O   UNL     1       1.228   4.597   0.000  0.00  0.00    +0.000 OA
ENDBRANCH  12  19
ENDBRANCH   4  15
TORSDOF 2
