REMARK  Name = 
REMARK  7 active torsions:
REMARK  status: ('A' for Active; 'I' for Inactive)
REMARK    1  A    between atoms: C_2  and  C_3
REMARK    2  A    between atoms: C_3  and  C_4
REMARK    3  A    between atoms: C_4  and  C_5
REMARK    4  A    between atoms: C_5  and  C_6
REMARK    5  A    between atoms: C_6  and  C_7
REMARK    6  A    between atoms: C_7  and  C_8
REMARK    7  A    between atoms: C_8  and  N_16
REMARK                            x       y       z     vdW  Elec       q    Type
REMARK                         _______ _______ _______ _____ _____    ______ ____
ROOT
ATOM      1  C   UNL     1      -2.082   8.170   0.000  0.00  0.00    +0.000 C 
ATOM      2  C   UNL     1      -2.836   7.834   0.000  0.00  0.00    +0.000 C 
ATOM      3  C   UNL     1      -3.589   8.170   0.000  0.00  0.00    +0.000 C 
ATOM      4  C   UNL     1      -4.257   7.685   0.000  0.00  0.00    +0.000 C 
ATOM      5  C   UNL     1      -4.171   6.864   0.000  0.00  0.00    +0.000 C 
ATOM      6  C   UNL     1      -3.417   6.529   0.000  0.00  0.00    +0.000 C 
ATOM      7  C   UNL     1      -1.942   6.842   0.000  0.00  0.00    +0.000 C 
ATOM      8  N   UNL     1      -1.607   6.088   0.000  0.00  0.00    +0.000 NA
ATOM      9  N   UNL     1      -2.749   7.014   0.000  0.00  0.00    +0.000 N 
ATOM     10  O   UNL     1      -3.676   8.990   0.000  0.00  0.00    +0.000 OA
ATOM     11  O   UNL     1      -5.011   8.020   0.000  0.00  0.00    +0.000 OA
ATOM     12  O   UNL     1      -4.838   6.379   0.000  0.00  0.00    +0.000 OA
ATOM     13  O   UNL     1      -3.331   5.708   0.000  0.00  0.00    +0.000 OA
ATOM     14  S   UNL     1      -1.530   7.556   0.000  0.00  0.00    +0.000 S 
ENDROOT
BRANCH   8  15
ATOM     15  C   UNL     1      -0.786   6.002   0.000  0.00  0.00    +0.000 C 
BRANCH  15  16
ATOM     16  C   UNL     1      -0.451   5.248   0.000  0.00  0.00    +0.000 C 
BRANCH  16  17
ATOM     17  C   UNL     1       0.369   5.162   0.000  0.00  0.00    +0.000 C 
BRANCH  17  18
ATOM     18  C   UNL     1       0.705   4.409   0.000  0.00  0.00    +0.000 C 
BRANCH  18  19
ATOM     19  C   UNL     1       1.526   4.322   0.000  0.00  0.00    +0.000 C 
BRANCH  19  20
ATOM     20  C   UNL     1       1.861   3.569   0.000  0.00  0.00    +0.000 C 
BRANCH  20  22
ATOM     21  C   UNL     1       3.017   2.729   0.000  0.00  0.00    +0.000 C 
ATOM     22  C   UNL     1       2.682   3.482   0.000  0.00  0.00    +0.000 C 
ENDBRANCH  20  22
ENDBRANCH  19  20
ENDBRANCH  18  19
ENDBRANCH  17  18
ENDBRANCH  16  17
ENDBRANCH  15  16
ENDBRANCH   8  15
TORSDOF 7
