REMARK  Name = 
REMARK  2 active torsions:
REMARK  status: ('A' for Active; 'I' for Inactive)
REMARK    1  A    between atoms: C_5  and  C_9
REMARK    2  A    between atoms: C_18  and  C_22
REMARK                            x       y       z     vdW  Elec       q    Type
REMARK                         _______ _______ _______ _____ _____    ______ ____
ROOT
ATOM      1  C   UNL     1       0.000   0.000   0.000  0.00  0.00    +0.000 A 
ATOM      2  C   UNL     1      -0.715  -0.412   0.000  0.00  0.00    +0.000 A 
ATOM      3  O   UNL     1      -1.429   0.000   0.000  0.00  0.00    +0.000 OA
ATOM      4  C   UNL     1      -0.715  -1.238   0.000  0.00  0.00    +0.000 A 
ATOM      5  C   UNL     1       0.000  -1.650   0.000  0.00  0.00    +0.000 A 
ATOM      6  O   UNL     1       0.000  -2.475   0.000  0.00  0.00    +0.000 OA
ATOM      7  C   UNL     1       0.715  -1.238   0.000  0.00  0.00    +0.000 A 
ATOM      8  C   UNL     1       0.715  -0.412   0.000  0.00  0.00    +0.000 A 
ATOM      9  O   UNL     1       1.429   0.000   0.000  0.00  0.00    +0.000 OA
ATOM     10  C   UNL     1       2.143  -0.412   0.000  0.00  0.00    +0.000 A 
ATOM     11  C   UNL     1       2.143  -1.238   0.000  0.00  0.00    +0.000 A 
ATOM     12  C   UNL     1       1.429  -1.650   0.000  0.00  0.00    +0.000 A 
ATOM     13  O   UNL     1       1.429  -2.475   0.000  0.00  0.00    +0.000 OA
ENDROOT
BRANCH   1  18
ATOM     14  C   UNL     1       0.000   3.300   0.000  0.00  0.00    +0.000 C 
ATOM     15  N   UNL     1       0.000   2.475   0.000  0.00  0.00    +0.000 NA
ATOM     16  C   UNL     1       0.715   2.062   0.000  0.00  0.00    +0.000 C 
ATOM     17  C   UNL     1       0.715   1.238   0.000  0.00  0.00    +0.000 C 
ATOM     18  C   UNL     1       0.000   0.825   0.000  0.00  0.00    +0.000 C 
ATOM     19  C   UNL     1      -0.715   1.238   0.000  0.00  0.00    +0.000 C 
ATOM     20  O   UNL     1      -1.429   0.825   0.000  0.00  0.00    +0.000 OA
ATOM     21  C   UNL     1      -0.715   2.062   0.000  0.00  0.00    +0.000 C 
ENDBRANCH   1  18
BRANCH  10  22
ATOM     22  C   UNL     1       2.858   0.000   0.000  0.00  0.00    +0.000 A 
ATOM     23  C   UNL     1       2.858   0.825   0.000  0.00  0.00    +0.000 A 
ATOM     24  C   UNL     1       3.572   1.238   0.000  0.00  0.00    +0.000 A 
ATOM     25  C   UNL     1       4.287   0.825   0.000  0.00  0.00    +0.000 A 
ATOM     26  C   UNL     1       4.287   0.000   0.000  0.00  0.00    +0.000 A 
ATOM     27  C   UNL     1       3.572  -0.412   0.000  0.00  0.00    +0.000 A 
ATOM     28 CL   UNL     1       3.572  -1.238   0.000  0.00  0.00    +0.000 Cl
ENDBRANCH  10  22
TORSDOF 2
