REMARK  Name = 
REMARK  5 active torsions:
REMARK  status: ('A' for Active; 'I' for Inactive)
REMARK    1  A    between atoms: C_8  and  C_10
REMARK    2  A    between atoms: C_9  and  C_15
REMARK    3  A    between atoms: C_10  and  C_11
REMARK    4  A    between atoms: C_11  and  N_12
REMARK    5  A    between atoms: C_15  and  C_16
REMARK                            x       y       z     vdW  Elec       q    Type
REMARK                         _______ _______ _______ _____ _____    ______ ____
ROOT
ATOM      1  C   UNL     1      11.674 -11.014   0.000  0.00  0.00    +0.000 A 
ATOM      2  C   UNL     1      11.674 -11.839   0.000  0.00  0.00    +0.000 A 
ATOM      3  C   UNL     1      12.375 -12.251   0.000  0.00  0.00    +0.000 A 
ATOM      4  C   UNL     1      12.375 -10.601   0.000  0.00  0.00    +0.000 A 
ATOM      5  C   UNL     1      13.117 -11.014   0.000  0.00  0.00    +0.000 A 
ATOM      6  C   UNL     1      13.117 -11.839   0.000  0.00  0.00    +0.000 A 
ATOM      7  C   UNL     1      13.901 -12.127   0.000  0.00  0.00    +0.000 C 
ATOM      8  C   UNL     1      14.355 -11.426   0.000  0.00  0.00    +0.000 C 
ATOM      9  C   UNL     1      13.901 -10.766   0.000  0.00  0.00    +0.000 C 
ENDROOT
BRANCH   9  10
ATOM     10  C   UNL     1      13.901  -9.941   0.000  0.00  0.00    +0.000 C 
ATOM     11  C   UNL     1      13.159  -9.529   0.000  0.00  0.00    +0.000 C 
BRANCH  10  12
ATOM     12  C   UNL     1      14.602  -9.529   0.000  0.00  0.00    +0.000 A 
ATOM     13  C   UNL     1      15.304  -9.941   0.000  0.00  0.00    +0.000 A 
ATOM     14  C   UNL     1      16.005  -9.529   0.000  0.00  0.00    +0.000 A 
ATOM     15  C   UNL     1      16.005  -8.704   0.000  0.00  0.00    +0.000 A 
ATOM     16  C   UNL     1      15.304  -8.291   0.000  0.00  0.00    +0.000 A 
ATOM     17  N   UNL     1      14.602  -8.704   0.000  0.00  0.00    +0.000 NA
ENDBRANCH  10  12
ENDBRANCH   9  10
BRANCH   8  18
ATOM     18  C   UNL     1      15.180 -11.426   0.000  0.00  0.00    +0.000 C 
BRANCH  18  19
ATOM     19  C   UNL     1      15.592 -12.169   0.000  0.00  0.00    +0.000 C 
BRANCH  19  20
ATOM     20  N   UNL     1      16.418 -12.169   0.000  0.00  0.00    +0.000 NA
ATOM     21  C   UNL     1      16.830 -12.870   0.000  0.00  0.00    +0.000 C 
ATOM     22  C   UNL     1      16.830 -11.467   0.000  0.00  0.00    +0.000 C 
ENDBRANCH  19  20
ENDBRANCH  18  19
ENDBRANCH   8  18
TORSDOF 5
