REMARK  Name = 
REMARK  12 active torsions:
REMARK  status: ('A' for Active; 'I' for Inactive)
REMARK    1  A    between atoms: O_1  and  C_22
REMARK    2  A    between atoms: O_3  and  C_26
REMARK    3  A    between atoms: O_5  and  C_49
REMARK    4  A    between atoms: C_14  and  C_22
REMARK    5  A    between atoms: C_18  and  C_26
REMARK    6  A    between atoms: C_29  and  C_32
REMARK    7  A    between atoms: C_32  and  C_40
REMARK    8  A    between atoms: C_35  and  C_47
REMARK    9  A    between atoms: C_39  and  C_45
REMARK   10  A    between atoms: C_40  and  C_49
REMARK   11  A    between atoms: C_45  and  C_50
REMARK   12  A    between atoms: C_50  and  C_52
REMARK                            x       y       z     vdW  Elec       q    Type
REMARK                         _______ _______ _______ _____ _____    ______ ____
ROOT
ATOM      1  N   UNL     1       7.701   0.888   0.000  0.00  0.00    +0.000 NA
ATOM      2  N   UNL     1       6.488  -0.241   0.000  0.00  0.00    +0.000 NA
ATOM      3  N   UNL     1       8.967  -0.241   0.000  0.00  0.00    +0.000 NA
ATOM      4  N   UNL     1       7.728  -1.371   0.000  0.00  0.00    +0.000 NA
ATOM      5  C   UNL     1       7.288   2.210   0.000  0.00  0.00    +0.000 C 
ATOM      6  C   UNL     1       6.846   2.948   0.000  0.00  0.00    +0.000 C 
ATOM      7  C   UNL     1       8.114   2.210   0.000  0.00  0.00    +0.000 C 
ATOM      8  C   UNL     1       7.039   1.412   0.000  0.00  0.00    +0.000 C 
ATOM      9  C   UNL     1       6.463   2.210   0.000  0.00  0.00    +0.000 C 
ATOM     10  C   UNL     1       7.271   3.697   0.000  0.00  0.00    +0.000 C 
ATOM     11  C   UNL     1       8.390   1.439   0.000  0.00  0.00    +0.000 C 
ATOM     12  C   UNL     1       8.555   2.948   0.000  0.00  0.00    +0.000 C 
ATOM     13  C   UNL     1       8.131   3.697   0.000  0.00  0.00    +0.000 C 
ATOM     14  C   UNL     1       6.241   1.191   0.000  0.00  0.00    +0.000 C 
ATOM     15  C   UNL     1       9.188   1.191   0.000  0.00  0.00    +0.000 C 
ATOM     16  C   UNL     1       6.020   0.393   0.000  0.00  0.00    +0.000 A 
ATOM     17  C   UNL     1       5.222   0.172   0.000  0.00  0.00    +0.000 A 
ATOM     18  C   UNL     1       9.435   0.420   0.000  0.00  0.00    +0.000 A 
ATOM     19  C   UNL     1       5.222  -0.654   0.000  0.00  0.00    +0.000 A 
ATOM     20  C   UNL     1       6.020  -0.875   0.000  0.00  0.00    +0.000 A 
ATOM     21  C   UNL     1      10.235   0.199   0.000  0.00  0.00    +0.000 A 
ATOM     22  C   UNL     1       4.565   0.671   0.000  0.00  0.00    +0.000 C 
ATOM     23  C   UNL     1       9.463  -0.848   0.000  0.00  0.00    +0.000 A 
ATOM     24  C   UNL     1      10.235  -0.627   0.000  0.00  0.00    +0.000 A 
ATOM     25  C   UNL     1       6.269  -1.646   0.000  0.00  0.00    +0.000 C 
ATOM     26  C   UNL     1       7.067  -1.894   0.000  0.00  0.00    +0.000 C 
ATOM     27  C   UNL     1       7.315  -2.665   0.000  0.00  0.00    +0.000 C 
ATOM     28  C   UNL     1       9.216  -1.646   0.000  0.00  0.00    +0.000 C 
ATOM     29  C   UNL     1       8.390  -1.867   0.000  0.00  0.00    +0.000 C 
ATOM     30  C   UNL     1      10.891   0.699   0.000  0.00  0.00    +0.000 C 
ATOM     31  C   UNL     1       8.141  -2.665   0.000  0.00  0.00    +0.000 C 
ATOM     32  C   UNL     1       8.630  -3.329   0.000  0.00  0.00    +0.000 C 
ENDROOT
BRANCH  10  34
ATOM     33  O   UNL     1       6.030   4.406   0.000  0.00  0.00    +0.000 OA
ATOM     34  C   UNL     1       6.855   4.409   0.000  0.00  0.00    +0.000 C 
BRANCH  34  35
ATOM     35  O   UNL     1       7.265   5.125   0.000  0.00  0.00    +0.000 OA
ATOM     36  C   UNL     1       6.850   5.838   0.000  0.00  0.00    +0.000 C 
ENDBRANCH  34  35
ENDBRANCH  10  34
BRANCH   6  38
ATOM     37  O   UNL     1       5.617   2.220   0.000  0.00  0.00    +0.000 OA
ATOM     38  C   UNL     1       6.021   2.939   0.000  0.00  0.00    +0.000 C 
BRANCH  38  39
ATOM     39  O   UNL     1       5.601   3.648   0.000  0.00  0.00    +0.000 OA
ATOM     40  C   UNL     1       4.776   3.639   0.000  0.00  0.00    +0.000 C 
ENDBRANCH  38  39
ENDBRANCH   6  38
BRANCH  24  41
ATOM     41  C   UNL     1      10.893  -1.123   0.000  0.00  0.00    +0.000 C 
ATOM     42  C   UNL     1      11.653  -0.801   0.000  0.00  0.00    +0.000 C 
ENDBRANCH  24  41
BRANCH  27  43
ATOM     43  C   UNL     1       6.762  -3.277   0.000  0.00  0.00    +0.000 C 
BRANCH  43  44
ATOM     44  C   UNL     1       7.015  -4.062   0.000  0.00  0.00    +0.000 C 
BRANCH  44  47
ATOM     45  O   UNL     1       6.715  -5.459   0.000  0.00  0.00    +0.000 OA
ATOM     46  O   UNL     1       5.655  -4.500   0.000  0.00  0.00    +0.000 OA
ATOM     47  C   UNL     1       6.462  -4.674   0.000  0.00  0.00    +0.000 C 
ENDBRANCH  44  47
ENDBRANCH  43  44
ENDBRANCH  27  43
BRANCH  19  48
ATOM     48  C   UNL     1       4.507  -1.067   0.000  0.00  0.00    +0.000 C 
BRANCH  48  49
ATOM     49  C   UNL     1       3.793  -0.654   0.000  0.00  0.00    +0.000 C 
BRANCH  49  51
ATOM     50  O   UNL     1       3.079  -1.891   0.000  0.00  0.00    +0.000 OA
ATOM     51  C   UNL     1       3.079  -1.067   0.000  0.00  0.00    +0.000 C 
BRANCH  51  52
ATOM     52  O   UNL     1       2.364  -0.654   0.000  0.00  0.00    +0.000 OA
ATOM     53  C   UNL     1       1.650  -1.067   0.000  0.00  0.00    +0.000 C 
ENDBRANCH  51  52
ENDBRANCH  49  51
ENDBRANCH  48  49
ENDBRANCH  19  48
TORSDOF 12
