REMARK  Name = 
REMARK  12 active torsions:
REMARK  status: ('A' for Active; 'I' for Inactive)
REMARK    1  A    between atoms: C_5  and  C_14
REMARK    2  A    between atoms: C_5  and  C_22
REMARK    3  A    between atoms: N_15  and  C_17
REMARK    4  A    between atoms: C_17  and  C_18
REMARK    5  A    between atoms: C_22  and  C_23
REMARK    6  A    between atoms: C_23  and  C_24
REMARK    7  A    between atoms: C_24  and  C_25
REMARK    8  A    between atoms: C_25  and  N_26
REMARK    9  A    between atoms: C_29  and  N_32
REMARK   10  A    between atoms: C_33  and  C_34
REMARK   11  A    between atoms: C_36  and  C_41
REMARK   12  A    between atoms: C_44  and  C_47
REMARK                            x       y       z     vdW  Elec       q    Type
REMARK                         _______ _______ _______ _____ _____    ______ ____
ROOT
ATOM      1  C   UNL     1      11.922 -20.090   0.000  0.00  0.00    +0.000 C 
ENDROOT
BRANCH   1   2
ATOM      2  N   UNL     1      12.623 -19.677   0.000  0.00  0.00    +0.000 NA
ATOM      3  C   UNL     1      13.341 -20.084   0.000  0.00  0.00    +0.000 C 
ATOM      4  C   UNL     1      14.052 -19.666   0.000  0.00  0.00    +0.000 C 
ATOM      5  C   UNL     1      14.087 -18.841   0.000  0.00  0.00    +0.000 C 
ATOM      6  C   UNL     1      13.328 -18.434   0.000  0.00  0.00    +0.000 C 
ATOM      7  C   UNL     1      12.617 -18.852   0.000  0.00  0.00    +0.000 C 
BRANCH   5   8
ATOM      8  N   UNL     1      14.784 -18.443   0.000  0.00  0.00    +0.000 NA
ATOM      9  C   UNL     1      15.483 -18.852   0.000  0.00  0.00    +0.000 C 
ATOM     10  O   UNL     1      15.479 -19.677   0.000  0.00  0.00    +0.000 OA
BRANCH   9  11
ATOM     11  C   UNL     1      16.189 -18.449   0.000  0.00  0.00    +0.000 A 
ATOM     12  C   UNL     1      16.884 -18.855   0.000  0.00  0.00    +0.000 A 
ATOM     13  C   UNL     1      17.601 -18.446   0.000  0.00  0.00    +0.000 A 
ATOM     14  C   UNL     1      17.605 -17.621   0.000  0.00  0.00    +0.000 A 
ATOM     15  C   UNL     1      16.910 -17.215   0.000  0.00  0.00    +0.000 A 
ATOM     16  C   UNL     1      16.152 -17.624   0.000  0.00  0.00    +0.000 A 
BRANCH  12  17
ATOM     17  C   UNL     1      16.880 -19.677   0.000  0.00  0.00    +0.000 A 
ATOM     18  C   UNL     1      16.157 -20.090   0.000  0.00  0.00    +0.000 A 
ATOM     19  C   UNL     1      16.153 -20.915   0.000  0.00  0.00    +0.000 A 
ATOM     20  C   UNL     1      16.866 -21.331   0.000  0.00  0.00    +0.000 A 
ATOM     21  C   UNL     1      17.588 -20.919   0.000  0.00  0.00    +0.000 A 
ATOM     22  C   UNL     1      17.592 -20.093   0.000  0.00  0.00    +0.000 A 
BRANCH  20  23
ATOM     23  C   UNL     1      16.861 -22.152   0.000  0.00  0.00    +0.000 C 
ATOM     24  F   UNL     1      16.857 -22.977   0.000  0.00  0.00    +0.000 F 
ATOM     25  F   UNL     1      17.687 -22.152   0.000  0.00  0.00    +0.000 F 
ATOM     26  F   UNL     1      16.037 -22.152   0.000  0.00  0.00    +0.000 F 
ENDBRANCH  20  23
ENDBRANCH  12  17
ENDBRANCH   9  11
ENDBRANCH   5   8
ENDBRANCH   1   2
BRANCH   1  27
ATOM     27  C   UNL     1      11.221 -19.677   0.000  0.00  0.00    +0.000 C 
BRANCH  27  28
ATOM     28  C   UNL     1      10.519 -20.090   0.000  0.00  0.00    +0.000 C 
BRANCH  28  29
ATOM     29  C   UNL     1       9.818 -19.677   0.000  0.00  0.00    +0.000 C 
BRANCH  29  34
ATOM     30  C   UNL     1       8.457 -20.585   0.000  0.00  0.00    +0.000 A 
ATOM     31  C   UNL     1       8.704 -21.369   0.000  0.00  0.00    +0.000 A 
ATOM     32  C   UNL     1       9.529 -21.369   0.000  0.00  0.00    +0.000 A 
ATOM     33  C   UNL     1       9.777 -20.585   0.000  0.00  0.00    +0.000 A 
ATOM     34  C   UNL     1       9.117 -20.090   0.000  0.00  0.00    +0.000 C 
ATOM     35  C   UNL     1      10.066 -21.988   0.000  0.00  0.00    +0.000 A 
ATOM     36  C   UNL     1      10.891 -21.823   0.000  0.00  0.00    +0.000 A 
ATOM     37  C   UNL     1      11.138 -21.039   0.000  0.00  0.00    +0.000 A 
ATOM     38  C   UNL     1      10.602 -20.420   0.000  0.00  0.00    +0.000 A 
ATOM     39  C   UNL     1       7.632 -20.379   0.000  0.00  0.00    +0.000 A 
ATOM     40  C   UNL     1       7.095 -20.997   0.000  0.00  0.00    +0.000 A 
ATOM     41  C   UNL     1       7.343 -21.781   0.000  0.00  0.00    +0.000 A 
ATOM     42  C   UNL     1       8.127 -21.988   0.000  0.00  0.00    +0.000 A 
BRANCH  34  43
ATOM     43  C   UNL     1       8.415 -19.677   0.000  0.00  0.00    +0.000 C 
ATOM     44  N   UNL     1       7.714 -20.090   0.000  0.00  0.00    +0.000 NA
ATOM     45  O   UNL     1       8.415 -18.852   0.000  0.00  0.00    +0.000 OA
BRANCH  44  46
ATOM     46  C   UNL     1       7.013 -19.677   0.000  0.00  0.00    +0.000 C 
BRANCH  46  47
ATOM     47  C   UNL     1       6.312 -20.090   0.000  0.00  0.00    +0.000 C 
ATOM     48  F   UNL     1       5.610 -19.677   0.000  0.00  0.00    +0.000 F 
ATOM     49  F   UNL     1       6.312 -20.915   0.000  0.00  0.00    +0.000 F 
ATOM     50  F   UNL     1       5.610 -20.502   0.000  0.00  0.00    +0.000 F 
ENDBRANCH  46  47
ENDBRANCH  44  46
ENDBRANCH  34  43
ENDBRANCH  29  34
ENDBRANCH  28  29
ENDBRANCH  27  28
ENDBRANCH   1  27
TORSDOF 12
