REMARK  Name = 
REMARK  3 active torsions:
REMARK  status: ('A' for Active; 'I' for Inactive)
REMARK    1  A    between atoms: C_10  and  O_16
REMARK    2  A    between atoms: C_11  and  C_13
REMARK    3  A    between atoms: C_13  and  O_16
REMARK                            x       y       z     vdW  Elec       q    Type
REMARK                         _______ _______ _______ _____ _____    ______ ____
ROOT
ATOM      1  C   UNL     1       2.143   6.188   0.000  0.00  0.00    +0.000 C 
ATOM      2  O   UNL     1       2.858   5.775   0.000  0.00  0.00    +0.000 OA
ENDROOT
BRANCH   1   7
ATOM      3  C   UNL     1       2.858   8.250   0.000  0.00  0.00    +0.000 A 
ATOM      4  C   UNL     1       2.143   8.662   0.000  0.00  0.00    +0.000 A 
ATOM      5  C   UNL     1       2.858   7.425   0.000  0.00  0.00    +0.000 A 
ATOM      6  C   UNL     1       1.429   8.250   0.000  0.00  0.00    +0.000 A 
ATOM      7  C   UNL     1       2.143   7.013   0.000  0.00  0.00    +0.000 A 
ATOM      8  C   UNL     1       1.429   7.425   0.000  0.00  0.00    +0.000 A 
ATOM      9  O   UNL     1       0.715   7.013   0.000  0.00  0.00    +0.000 OA
ENDBRANCH   1   7
BRANCH   1  10
ATOM     10  O   UNL     1       1.429   5.775   0.000  0.00  0.00    +0.000 OA
BRANCH  10  16
ATOM     11  C   UNL     1       1.429   3.300   0.000  0.00  0.00    +0.000 A 
ATOM     12  C   UNL     1       2.143   3.712   0.000  0.00  0.00    +0.000 A 
ATOM     13  C   UNL     1       0.715   3.712   0.000  0.00  0.00    +0.000 A 
ATOM     14  C   UNL     1       2.143   4.537   0.000  0.00  0.00    +0.000 A 
ATOM     15  C   UNL     1       0.715   4.537   0.000  0.00  0.00    +0.000 A 
ATOM     16  C   UNL     1       1.429   4.950   0.000  0.00  0.00    +0.000 A 
ENDBRANCH  10  16
ENDBRANCH   1  10
TORSDOF 3
