REMARK  Name = 
REMARK  9 active torsions:
REMARK  status: ('A' for Active; 'I' for Inactive)
REMARK    1  A    between atoms: C_4  and  O_24
REMARK    2  A    between atoms: C_6  and  C_7
REMARK    3  A    between atoms: C_7  and  C_8
REMARK    4  A    between atoms: C_8  and  C_9
REMARK    5  A    between atoms: C_8  and  C_22
REMARK    6  A    between atoms: C_9  and  C_10
REMARK    7  A    between atoms: C_9  and  C_20
REMARK    8  A    between atoms: C_10  and  C_11
REMARK    9  A    between atoms: C_12  and  O_17
REMARK                            x       y       z     vdW  Elec       q    Type
REMARK                         _______ _______ _______ _____ _____    ______ ____
ROOT
ATOM      1  C   UNL     1       5.663  -6.462   0.000  0.00  0.00    +0.000 C 
ENDROOT
BRANCH   1   2
ATOM      2  C   UNL     1       5.663  -7.287   0.000  0.00  0.00    +0.000 C 
ATOM      3  O   UNL     1       4.948  -7.699   0.000  0.00  0.00    +0.000 OA
ENDBRANCH   1   2
BRANCH   1   4
ATOM      4  C   UNL     1       4.948  -6.049   0.000  0.00  0.00    +0.000 C 
BRANCH   4  10
ATOM      5  C   UNL     1       3.519  -6.049   0.000  0.00  0.00    +0.000 A 
ATOM      6  C   UNL     1       2.805  -6.462   0.000  0.00  0.00    +0.000 A 
ATOM      7  C   UNL     1       2.805  -7.287   0.000  0.00  0.00    +0.000 A 
ATOM      8  C   UNL     1       3.519  -7.699   0.000  0.00  0.00    +0.000 A 
ATOM      9  C   UNL     1       4.234  -7.287   0.000  0.00  0.00    +0.000 A 
ATOM     10  C   UNL     1       4.234  -6.462   0.000  0.00  0.00    +0.000 A 
ATOM     11  O   UNL     1       2.091  -7.699   0.000  0.00  0.00    +0.000 OA
BRANCH   8  12
ATOM     12  O   UNL     1       3.519  -8.524   0.000  0.00  0.00    +0.000 OA
ATOM     13  C   UNL     1       2.805  -8.937   0.000  0.00  0.00    +0.000 C 
ENDBRANCH   8  12
ENDBRANCH   4  10
ENDBRANCH   1   4
BRANCH   1  14
ATOM     14  C   UNL     1       6.377  -6.049   0.000  0.00  0.00    +0.000 C 
BRANCH  14  15
ATOM     15  C   UNL     1       6.377  -5.224   0.000  0.00  0.00    +0.000 C 
ATOM     16  O   UNL     1       7.092  -4.811   0.000  0.00  0.00    +0.000 OA
ENDBRANCH  14  15
BRANCH  14  17
ATOM     17  C   UNL     1       7.092  -6.462   0.000  0.00  0.00    +0.000 C 
BRANCH  17  18
ATOM     18  C   UNL     1       7.806  -6.049   0.000  0.00  0.00    +0.000 A 
ATOM     19  C   UNL     1       8.521  -4.811   0.000  0.00  0.00    +0.000 A 
ATOM     20  C   UNL     1       7.806  -5.224   0.000  0.00  0.00    +0.000 A 
ATOM     21  C   UNL     1       8.521  -6.462   0.000  0.00  0.00    +0.000 A 
ATOM     22  C   UNL     1       9.235  -6.049   0.000  0.00  0.00    +0.000 A 
ATOM     23  C   UNL     1       9.235  -5.224   0.000  0.00  0.00    +0.000 A 
ATOM     24  O   UNL     1       9.950  -4.811   0.000  0.00  0.00    +0.000 OA
BRANCH  19  25
ATOM     25  O   UNL     1       8.521  -3.986   0.000  0.00  0.00    +0.000 OA
ATOM     26  C   UNL     1       9.235  -3.574   0.000  0.00  0.00    +0.000 C 
ENDBRANCH  19  25
ENDBRANCH  17  18
ENDBRANCH  14  17
ENDBRANCH   1  14
TORSDOF 9
