REMARK  Name = 
REMARK  2 active torsions:
REMARK  status: ('A' for Active; 'I' for Inactive)
REMARK    1  A    between atoms: C_3  and  C_7
REMARK    2  A    between atoms: C_6  and  S_9
REMARK                            x       y       z     vdW  Elec       q    Type
REMARK                         _______ _______ _______ _____ _____    ______ ____
ROOT
ATOM      1  C   UNL     1      -0.022   0.379   0.000  0.00  0.00    +0.000 A 
ATOM      2  C   UNL     1      -0.737  -0.034   0.000  0.00  0.00    +0.000 A 
ATOM      3  C   UNL     1      -0.737  -0.859   0.000  0.00  0.00    +0.000 A 
ATOM      4  C   UNL     1      -0.022  -1.272   0.000  0.00  0.00    +0.000 A 
ATOM      5  C   UNL     1       0.692  -0.859   0.000  0.00  0.00    +0.000 A 
ATOM      6  C   UNL     1       0.692  -0.034   0.000  0.00  0.00    +0.000 A 
ENDROOT
BRANCH   6   7
ATOM      7  S   UNL     1       1.407   0.379   0.000  0.00  0.00    +0.000 S 
ATOM      8  O   UNL     1       2.054   1.127   0.000  0.00  0.00    +0.000 OA
ATOM      9  O   UNL     1       1.027   1.181   0.000  0.00  0.00    +0.000 OA
ATOM     10  N   UNL     1       1.932  -0.257   0.000  0.00  0.00    +0.000 NA
ENDBRANCH   6   7
BRANCH   3  11
ATOM     11  C   UNL     1      -1.451  -1.272   0.000  0.00  0.00    +0.000 C 
ATOM     12  N   UNL     1      -2.166  -0.859   0.000  0.00  0.00    +0.000 NA
ENDBRANCH   3  11
TORSDOF 2
