REMARK  Name = 
REMARK  12 active torsions:
REMARK  status: ('A' for Active; 'I' for Inactive)
REMARK    1  A    between atoms: C_1  and  O_25
REMARK    2  A    between atoms: C_2  and  O_26
REMARK    3  A    between atoms: C_3  and  O_27
REMARK    4  A    between atoms: C_4  and  O_28
REMARK    5  A    between atoms: C_5  and  O_29
REMARK    6  A    between atoms: C_6  and  O_30
REMARK    7  A    between atoms: O_25  and  S_31
REMARK    8  A    between atoms: O_26  and  S_32
REMARK    9  A    between atoms: O_27  and  S_33
REMARK   10  A    between atoms: O_28  and  S_34
REMARK   11  A    between atoms: O_29  and  S_35
REMARK   12  A    between atoms: O_30  and  S_36
REMARK                            x       y       z     vdW  Elec       q    Type
REMARK                         _______ _______ _______ _____ _____    ______ ____
ROOT
ATOM      1  C   UNL     1       1.429   0.825   0.000  0.00  0.00    +0.000 C 
ATOM      2  C   UNL     1       0.715   1.238   0.000  0.00  0.00    +0.000 C 
ATOM      3  C   UNL     1       1.429   0.000   0.000  0.00  0.00    +0.000 C 
ATOM      4  C   UNL     1       0.000   0.825   0.000  0.00  0.00    +0.000 C 
ATOM      5  C   UNL     1       0.715  -0.412   0.000  0.00  0.00    +0.000 C 
ATOM      6  C   UNL     1       0.000   0.000   0.000  0.00  0.00    +0.000 C 
ENDROOT
BRANCH   1   7
ATOM      7  O   UNL     1       2.143   1.238   0.000  0.00  0.00    +0.000 OA
BRANCH   7  11
ATOM      8  O   UNL     1       2.143   2.888   0.000  0.00  0.00    +0.000 OA
ATOM      9  O   UNL     1       1.318   2.062   0.000  0.00  0.00    +0.000 OA
ATOM     10  O   UNL     1       2.968   2.062   0.000  0.00  0.00    +0.000 OA
ATOM     11  S   UNL     1       2.143   2.062   0.000  0.00  0.00    +0.000 S 
ENDBRANCH   7  11
ENDBRANCH   1   7
BRANCH   2  12
ATOM     12  O   UNL     1       0.715   2.062   0.000  0.00  0.00    +0.000 OA
BRANCH  12  16
ATOM     13  O   UNL     1       0.412   3.189   0.000  0.00  0.00    +0.000 OA
ATOM     14  O   UNL     1      -0.412   1.760   0.000  0.00  0.00    +0.000 OA
ATOM     15  O   UNL     1      -0.715   2.888   0.000  0.00  0.00    +0.000 OA
ATOM     16  S   UNL     1       0.000   2.475   0.000  0.00  0.00    +0.000 S 
ENDBRANCH  12  16
ENDBRANCH   2  12
BRANCH   3  17
ATOM     17  O   UNL     1       2.143  -0.412   0.000  0.00  0.00    +0.000 OA
BRANCH  17  21
ATOM     18  O   UNL     1       3.270  -0.715   0.000  0.00  0.00    +0.000 OA
ATOM     19  O   UNL     1       2.445   0.715   0.000  0.00  0.00    +0.000 OA
ATOM     20  O   UNL     1       3.572   0.412   0.000  0.00  0.00    +0.000 OA
ATOM     21  S   UNL     1       2.858   0.000   0.000  0.00  0.00    +0.000 S 
ENDBRANCH  17  21
ENDBRANCH   3  17
BRANCH   4  22
ATOM     22  O   UNL     1      -0.715   1.238   0.000  0.00  0.00    +0.000 OA
BRANCH  22  26
ATOM     23  O   UNL     1      -1.841   1.540   0.000  0.00  0.00    +0.000 OA
ATOM     24  O   UNL     1      -1.016   0.111   0.000  0.00  0.00    +0.000 OA
ATOM     25  O   UNL     1      -2.143   0.412   0.000  0.00  0.00    +0.000 OA
ATOM     26  S   UNL     1      -1.429   0.825   0.000  0.00  0.00    +0.000 S 
ENDBRANCH  22  26
ENDBRANCH   4  22
BRANCH   5  27
ATOM     27  O   UNL     1       0.715  -1.238   0.000  0.00  0.00    +0.000 OA
BRANCH  27  31
ATOM     28  O   UNL     1       1.016  -2.365   0.000  0.00  0.00    +0.000 OA
ATOM     29  O   UNL     1       1.841  -0.935   0.000  0.00  0.00    +0.000 OA
ATOM     30  O   UNL     1       2.143  -2.062   0.000  0.00  0.00    +0.000 OA
ATOM     31  S   UNL     1       1.429  -1.650   0.000  0.00  0.00    +0.000 S 
ENDBRANCH  27  31
ENDBRANCH   5  27
BRANCH   6  32
ATOM     32  O   UNL     1      -0.715  -0.412   0.000  0.00  0.00    +0.000 OA
BRANCH  32  36
ATOM     33  O   UNL     1      -0.715  -2.062   0.000  0.00  0.00    +0.000 OA
ATOM     34  O   UNL     1      -1.540  -1.238   0.000  0.00  0.00    +0.000 OA
ATOM     35  O   UNL     1       0.111  -1.238   0.000  0.00  0.00    +0.000 OA
ATOM     36  S   UNL     1      -0.715  -1.238   0.000  0.00  0.00    +0.000 S 
ENDBRANCH  32  36
ENDBRANCH   6  32
TORSDOF 12
