REMARK  Name = 
REMARK  7 active torsions:
REMARK  status: ('A' for Active; 'I' for Inactive)
REMARK    1  A    between atoms: C_4  and  C_8
REMARK    2  A    between atoms: C_5  and  C_6
REMARK    3  A    between atoms: C_5  and  C_7
REMARK    4  A    between atoms: C_6  and  C_9
REMARK    5  A    between atoms: C_7  and  C_11
REMARK    6  A    between atoms: C_8  and  N_18
REMARK    7  A    between atoms: C_9  and  N_19
REMARK                            x       y       z     vdW  Elec       q    Type
REMARK                         _______ _______ _______ _____ _____    ______ ____
ROOT
ATOM      1  C   UNL     1      -2.143   2.062   0.000  0.00  0.00    +0.000 C 
ATOM      2  C   UNL     1      -1.706   4.606   0.000  0.00  0.00    +0.000 A 
ATOM      3  C   UNL     1      -0.715   3.712   0.000  0.00  0.00    +0.000 A 
ATOM      4  C   UNL     1      -1.429   3.300   0.000  0.00  0.00    +0.000 A 
ATOM      5  C   UNL     1       0.000   3.300   0.000  0.00  0.00    +0.000 A 
ATOM      6  C   UNL     1      -0.715   2.062   0.000  0.00  0.00    +0.000 A 
ATOM      7  N   UNL     1      -2.042   3.852   0.000  0.00  0.00    +0.000 NA
ATOM      8  N   UNL     1      -1.429   2.475   0.000  0.00  0.00    +0.000 N 
ATOM      9  N   UNL     1      -0.886   4.519   0.000  0.00  0.00    +0.000 N 
ATOM     10  N   UNL     1       0.000   2.475   0.000  0.00  0.00    +0.000 N 
ATOM     11  O   UNL     1       0.715   3.712   0.000  0.00  0.00    +0.000 OA
ATOM     12  O   UNL     1      -0.715   1.238   0.000  0.00  0.00    +0.000 OA
ENDROOT
BRANCH   9  13
ATOM     13  C   UNL     1      -0.334   5.133   0.000  0.00  0.00    +0.000 C 
BRANCH  13  15
ATOM     14  C   UNL     1      -0.037   6.530   0.000  0.00  0.00    +0.000 C 
ATOM     15  C   UNL     1      -0.589   5.917   0.000  0.00  0.00    +0.000 C 
ENDBRANCH  13  15
ENDBRANCH   9  13
BRANCH  10  16
ATOM     16  C   UNL     1       0.715   2.062   0.000  0.00  0.00    +0.000 C 
BRANCH  16  17
ATOM     17  C   UNL     1       1.429   2.475   0.000  0.00  0.00    +0.000 C 
BRANCH  17  18
ATOM     18  C   UNL     1       2.143   2.062   0.000  0.00  0.00    +0.000 C 
BRANCH  18  19
ATOM     19  C   UNL     1       2.858   2.475   0.000  0.00  0.00    +0.000 C 
BRANCH  19  21
ATOM     20  C   UNL     1       4.287   2.475   0.000  0.00  0.00    +0.000 C 
ATOM     21  C   UNL     1       3.572   2.062   0.000  0.00  0.00    +0.000 C 
ATOM     22  O   UNL     1       3.572   1.238   0.000  0.00  0.00    +0.000 OA
ENDBRANCH  19  21
ENDBRANCH  18  19
ENDBRANCH  17  18
ENDBRANCH  16  17
ENDBRANCH  10  16
TORSDOF 7
