REMARK  Name = 
REMARK  9 active torsions:
REMARK  status: ('A' for Active; 'I' for Inactive)
REMARK    1  A    between atoms: C_3  and  C_4
REMARK    2  A    between atoms: C_4  and  O_5
REMARK    3  A    between atoms: O_5  and  P_6
REMARK    4  A    between atoms: C_11  and  N_14
REMARK    5  A    between atoms: C_18  and  N_19
REMARK    6  A    between atoms: N_19  and  CA_20
REMARK    7  A    between atoms: CA_20  and  CB_21
REMARK    8  A    between atoms: CA_20  and  C_25
REMARK    9  A    between atoms: CB_21  and  CG_22
REMARK                            x       y       z     vdW  Elec       q    Type
REMARK                         _______ _______ _______ _____ _____    ______ ____
ROOT
ATOM      1  N   UNK A   0      -0.172  -4.107   0.000  0.00  0.00    +0.000 N 
ATOM      2  C   UNK A   0      -0.992  -4.193   0.000  0.00  0.00    +0.000 A 
ATOM      3  N   UNK A   0      -1.328  -3.439   0.000  0.00  0.00    +0.000 NA
ATOM      4  C   UNK A   0      -0.715  -2.888   0.000  0.00  0.00    +0.000 A 
ATOM      5  C   UNK A   0      -0.715  -2.062   0.000  0.00  0.00    +0.000 A 
ATOM      6  N   UNK A   0       0.000  -1.650   0.000  0.00  0.00    +0.000 NA
ATOM      7  C   UNK A   0       0.715  -2.062   0.000  0.00  0.00    +0.000 A 
ATOM      8  N   UNK A   0       0.715  -2.888   0.000  0.00  0.00    +0.000 NA
ATOM      9  C   UNK A   0       0.000  -3.300   0.000  0.00  0.00    +0.000 A 
ENDROOT
BRANCH   1  14
ATOM     10  O   UNK A   0       2.344  -5.559   0.000  0.00  0.00    +0.000 OA
ATOM     11  C   UNK A   0       1.536  -5.388   0.000  0.00  0.00    +0.000 C 
ATOM     12  C   UNK A   0       0.923  -5.939   0.000  0.00  0.00    +0.000 C 
ATOM     13  O   UNK A   0       0.209  -5.527   0.000  0.00  0.00    +0.000 OA
ATOM     14  C   UNK A   0       0.381  -4.720   0.000  0.00  0.00    +0.000 C 
ATOM     15  C   UNK A   0       1.201  -4.634   0.000  0.00  0.00    +0.000 C 
ATOM     16  O   UNK A   0       1.613  -3.919   0.000  0.00  0.00    +0.000 OA
BRANCH  12  17
ATOM     17  C   UNK A   0       1.010  -6.760   0.000  0.00  0.00    +0.000 C 
BRANCH  17  18
ATOM     18  O   UNK A   0       1.763  -7.096   0.000  0.00  0.00    +0.000 OA
BRANCH  18  19
ATOM     19  P   UNK A   0       1.850  -7.916   0.000  0.00  0.00    +0.000 P 
ATOM     20  O   UNK A   0       1.936  -8.736   0.000  0.00  0.00    +0.000 OA
ATOM     21  O   UNK A   0       2.670  -7.830   0.000  0.00  0.00    +0.000 OA
ATOM     22  O   UNK A   0       1.029  -8.002   0.000  0.00  0.00    +0.000 OA
ENDBRANCH  18  19
ENDBRANCH  17  18
ENDBRANCH  12  17
ENDBRANCH   1  14
BRANCH   5  23
ATOM     23  N   ASP A   1      -1.429  -1.650   0.000  0.00  0.00    +0.000 NA
BRANCH  23  24
ATOM     24  CA  ASP A   1      -1.429  -0.825   0.000  0.00  0.00    +0.000 C 
BRANCH  24  25
ATOM     25  C   ASP A   1      -0.715  -0.412   0.000  0.00  0.00    +0.000 C 
ATOM     26  O   ASP A   1      -0.715   0.412   0.000  0.00  0.00    +0.000 OA
ATOM     27  OXT ASP A   1       0.000  -0.825   0.000  0.00  0.00    +0.000 OA
ENDBRANCH  24  25
BRANCH  24  28
ATOM     28  CB  ASP A   1      -2.143  -0.412   0.000  0.00  0.00    +0.000 C 
BRANCH  28  29
ATOM     29  CG  ASP A   1      -2.143   0.412   0.000  0.00  0.00    +0.000 C 
ATOM     30  OD1 ASP A   1      -2.858   0.825   0.000  0.00  0.00    +0.000 OA
ATOM     31  OD2 ASP A   1      -1.429   0.825   0.000  0.00  0.00    +0.000 OA
ENDBRANCH  28  29
ENDBRANCH  24  28
ENDBRANCH  23  24
ENDBRANCH   5  23
TORSDOF 9
