REMARK  Name = 
REMARK  4 active torsions:
REMARK  status: ('A' for Active; 'I' for Inactive)
REMARK    1  A    between atoms: C_2  and  C_15
REMARK    2  A    between atoms: N_4  and  C_6
REMARK    3  A    between atoms: C_5  and  C_22
REMARK    4  A    between atoms: C_9  and  C_12
REMARK                            x       y       z     vdW  Elec       q    Type
REMARK                         _______ _______ _______ _____ _____    ______ ____
ROOT
ATOM      1  N   UNL     1       5.280  -8.209   0.000  0.00  0.00    +0.000 NA
ATOM      2  C   UNL     1       5.280  -9.034   0.000  0.00  0.00    +0.000 A 
ATOM      3  N   UNL     1       6.065  -9.289   0.000  0.00  0.00    +0.000 NA
ATOM      4  N   UNL     1       6.550  -8.621   0.000  0.00  0.00    +0.000 N 
ATOM      5  C   UNL     1       6.065  -7.954   0.000  0.00  0.00    +0.000 A 
ENDROOT
BRANCH   2   6
ATOM      6  C   UNL     1       4.566  -9.446   0.000  0.00  0.00    +0.000 A 
ATOM      7  C   UNL     1       3.861  -9.039   0.000  0.00  0.00    +0.000 A 
ATOM      8  C   UNL     1       3.147  -9.452   0.000  0.00  0.00    +0.000 A 
ATOM      9  C   UNL     1       3.146 -10.277   0.000  0.00  0.00    +0.000 A 
ATOM     10  C   UNL     1       3.851 -10.684   0.000  0.00  0.00    +0.000 A 
ATOM     11  C   UNL     1       4.565 -10.271   0.000  0.00  0.00    +0.000 A 
ATOM     12  O   UNL     1       5.290 -10.690   0.000  0.00  0.00    +0.000 OA
ENDBRANCH   2   6
BRANCH   5  13
ATOM     13  C   UNL     1       6.065  -7.129   0.000  0.00  0.00    +0.000 A 
ATOM     14  C   UNL     1       6.775  -6.719   0.000  0.00  0.00    +0.000 A 
ATOM     15  C   UNL     1       6.775  -5.894   0.000  0.00  0.00    +0.000 A 
ATOM     16  C   UNL     1       6.061  -5.481   0.000  0.00  0.00    +0.000 A 
ATOM     17  C   UNL     1       5.350  -5.891   0.000  0.00  0.00    +0.000 A 
ATOM     18  C   UNL     1       5.350  -6.716   0.000  0.00  0.00    +0.000 A 
ATOM     19  O   UNL     1       4.642  -7.125   0.000  0.00  0.00    +0.000 OA
ENDBRANCH   5  13
BRANCH   4  20
ATOM     20  C   UNL     1       7.375  -8.621   0.000  0.00  0.00    +0.000 A 
ATOM     21  C   UNL     1       7.789  -9.340   0.000  0.00  0.00    +0.000 A 
ATOM     22  C   UNL     1       8.614  -9.340   0.000  0.00  0.00    +0.000 A 
ATOM     23  C   UNL     1       9.027  -8.625   0.000  0.00  0.00    +0.000 A 
ATOM     24  C   UNL     1       8.612  -7.907   0.000  0.00  0.00    +0.000 A 
ATOM     25  C   UNL     1       7.787  -7.907   0.000  0.00  0.00    +0.000 A 
BRANCH  23  26
ATOM     26  C   UNL     1       9.859  -8.625   0.000  0.00  0.00    +0.000 C 
ATOM     27  O   UNL     1      10.273  -7.908   0.000  0.00  0.00    +0.000 OA
ATOM     28  O   UNL     1      10.269  -9.337   0.000  0.00  0.00    +0.000 OA
ENDBRANCH  23  26
ENDBRANCH   4  20
TORSDOF 4
