REMARK  Name = 
REMARK  10 active torsions:
REMARK  status: ('A' for Active; 'I' for Inactive)
REMARK    1  A    between atoms: C_4  and  C_9
REMARK    2  A    between atoms: C_10  and  C_11
REMARK    3  A    between atoms: C_11  and  O_12
REMARK    4  A    between atoms: C_18  and  C_21
REMARK    5  A    between atoms: C_21  and  O_22
REMARK    6  A    between atoms: O_22  and  C_23
REMARK    7  A    between atoms: C_23  and  O_24
REMARK    8  A    between atoms: O_24  and  C_25
REMARK    9  A    between atoms: C_25  and  C_26
REMARK   10  A    between atoms: C_26  and  C_27
REMARK                            x       y       z     vdW  Elec       q    Type
REMARK                         _______ _______ _______ _____ _____    ______ ____
ROOT
ATOM      1  C   UNL     1       6.070  -1.414   0.000  0.00  0.00    +0.000 C 
ATOM      2  C   UNL     1       5.355  -1.827   0.000  0.00  0.00    +0.000 C 
ATOM      3  C   UNL     1       5.355  -2.652   0.000  0.00  0.00    +0.000 C 
ATOM      4  N   UNL     1       6.070  -3.064   0.000  0.00  0.00    +0.000 NA
ATOM      5  C   UNL     1       6.784  -2.652   0.000  0.00  0.00    +0.000 C 
ATOM      6  C   UNL     1       6.784  -1.827   0.000  0.00  0.00    +0.000 C 
ATOM      7  C   UNL     1       4.772  -3.235   0.000  0.00  0.00    +0.000 C 
ATOM      8  C   UNL     1       7.367  -3.235   0.000  0.00  0.00    +0.000 C 
ENDROOT
BRANCH   1  12
ATOM      9  C   UNL     1       6.070   1.061   0.000  0.00  0.00    +0.000 A 
ATOM     10  C   UNL     1       5.355   0.648   0.000  0.00  0.00    +0.000 A 
ATOM     11  C   UNL     1       5.355  -0.177   0.000  0.00  0.00    +0.000 A 
ATOM     12  C   UNL     1       6.070  -0.589   0.000  0.00  0.00    +0.000 A 
ATOM     13  C   UNL     1       6.784  -0.177   0.000  0.00  0.00    +0.000 A 
ATOM     14  C   UNL     1       6.784   0.648   0.000  0.00  0.00    +0.000 A 
ATOM     15 CL   UNL     1       7.581   0.862   0.000  0.00  0.00    +0.000 Cl
ATOM     16 CL   UNL     1       7.581  -0.390   0.000  0.00  0.00    +0.000 Cl
ENDBRANCH   1  12
BRANCH   2  17
ATOM     17  C   UNL     1       4.641  -1.414   0.000  0.00  0.00    +0.000 C 
ATOM     18  O   UNL     1       4.641  -0.589   0.000  0.00  0.00    +0.000 OA
BRANCH  17  19
ATOM     19  O   UNL     1       3.926  -1.827   0.000  0.00  0.00    +0.000 OA
ATOM     20  C   UNL     1       3.212  -1.414   0.000  0.00  0.00    +0.000 C 
ENDBRANCH  17  19
ENDBRANCH   2  17
BRANCH   6  21
ATOM     21  C   UNL     1       7.499  -1.414   0.000  0.00  0.00    +0.000 C 
ATOM     22  O   UNL     1       7.513  -0.913   0.000  0.00  0.00    +0.000 OA
BRANCH  21  23
ATOM     23  O   UNL     1       8.213  -1.827   0.000  0.00  0.00    +0.000 OA
BRANCH  23  24
ATOM     24  C   UNL     1       8.928  -1.414   0.000  0.00  0.00    +0.000 C 
BRANCH  24  25
ATOM     25  O   UNL     1       9.642  -1.827   0.000  0.00  0.00    +0.000 OA
BRANCH  25  26
ATOM     26  C   UNL     1      10.357  -1.414   0.000  0.00  0.00    +0.000 C 
ATOM     27  O   UNL     1      10.357  -0.589   0.000  0.00  0.00    +0.000 OA
BRANCH  26  28
ATOM     28  C   UNL     1      11.071  -1.827   0.000  0.00  0.00    +0.000 C 
BRANCH  28  29
ATOM     29  C   UNL     1      11.785  -1.414   0.000  0.00  0.00    +0.000 C 
ATOM     30  C   UNL     1      12.500  -1.827   0.000  0.00  0.00    +0.000 C 
ENDBRANCH  28  29
ENDBRANCH  26  28
ENDBRANCH  25  26
ENDBRANCH  24  25
ENDBRANCH  23  24
ENDBRANCH  21  23
ENDBRANCH   6  21
TORSDOF 10
