REMARK  Name = 
REMARK  8 active torsions:
REMARK  status: ('A' for Active; 'I' for Inactive)
REMARK    1  A    between atoms: N_10  and  C_11
REMARK    2  A    between atoms: C_13  and  C_14
REMARK    3  A    between atoms: C_14  and  O_15
REMARK    4  A    between atoms: O_15  and  P_16
REMARK    5  A    between atoms: P_16  and  O_19
REMARK    6  A    between atoms: O_19  and  P_20
REMARK    7  A    between atoms: P_20  and  N_23
REMARK    8  A    between atoms: N_23  and  P_24
REMARK                            x       y       z     vdW  Elec       q    Type
REMARK                         _______ _______ _______ _____ _____    ______ ____
ROOT
ATOM      1  C   UNL     1       0.193   3.294   0.000  0.00  0.00    +0.000 C 
ATOM      2  O   UNL     1       0.745   3.907   0.000  0.00  0.00    +0.000 OA
ATOM      3  C   UNL     1       1.499   3.572   0.000  0.00  0.00    +0.000 C 
ATOM      4  C   UNL     1       1.413   2.751   0.000  0.00  0.00    +0.000 C 
ATOM      5  O   UNL     1       2.026   2.199   0.000  0.00  0.00    +0.000 OA
ATOM      6  C   UNL     1       0.606   2.580   0.000  0.00  0.00    +0.000 C 
ATOM      7  O   UNL     1       0.270   1.826   0.000  0.00  0.00    +0.000 OA
ENDROOT
BRANCH   1  17
ATOM      8  N   UNL     1      -3.206   4.365   0.000  0.00  0.00    +0.000 NA
ATOM      9  C   UNL     1      -2.399   4.536   0.000  0.00  0.00    +0.000 A 
ATOM     10  N   UNL     1      -2.144   5.321   0.000  0.00  0.00    +0.000 NA
ATOM     11  C   UNL     1      -1.337   5.492   0.000  0.00  0.00    +0.000 A 
ATOM     12  N   UNL     1      -0.785   4.879   0.000  0.00  0.00    +0.000 NA
ATOM     13  C   UNL     1      -1.040   4.095   0.000  0.00  0.00    +0.000 A 
ATOM     14  C   UNL     1      -1.847   3.923   0.000  0.00  0.00    +0.000 A 
ATOM     15  N   UNL     1      -1.933   3.103   0.000  0.00  0.00    +0.000 NA
ATOM     16  C   UNL     1      -1.179   2.767   0.000  0.00  0.00    +0.000 A 
ATOM     17  N   UNL     1      -0.627   3.380   0.000  0.00  0.00    +0.000 N 
ENDBRANCH   1  17
BRANCH   3  18
ATOM     18  C   UNL     1       2.214   3.984   0.000  0.00  0.00    +0.000 C 
BRANCH  18  19
ATOM     19  O   UNL     1       2.928   3.572   0.000  0.00  0.00    +0.000 OA
BRANCH  19  20
ATOM     20  P   UNL     1       3.643   3.984   0.000  0.00  0.00    +0.000 P 
ATOM     21  O   UNL     1       4.055   3.270   0.000  0.00  0.00    +0.000 OA
ATOM     22  O   UNL     1       3.230   4.699   0.000  0.00  0.00    +0.000 OA
BRANCH  20  23
ATOM     23  O   UNL     1       4.357   4.397   0.000  0.00  0.00    +0.000 OA
BRANCH  23  24
ATOM     24  P   UNL     1       5.071   3.984   0.000  0.00  0.00    +0.000 P 
ATOM     25  O   UNL     1       4.659   3.270   0.000  0.00  0.00    +0.000 OA
ATOM     26  O   UNL     1       5.484   4.699   0.000  0.00  0.00    +0.000 OA
BRANCH  24  27
ATOM     27  N   UNL     1       5.786   3.572   0.000  0.00  0.00    +0.000 NA
BRANCH  27  28
ATOM     28  P   UNL     1       6.500   3.984   0.000  0.00  0.00    +0.000 P 
ATOM     29  O   UNL     1       7.215   4.397   0.000  0.00  0.00    +0.000 OA
ATOM     30  O   UNL     1       6.913   3.270   0.000  0.00  0.00    +0.000 OA
ATOM     31  O   UNL     1       6.088   4.699   0.000  0.00  0.00    +0.000 OA
ENDBRANCH  27  28
ENDBRANCH  24  27
ENDBRANCH  23  24
ENDBRANCH  20  23
ENDBRANCH  19  20
ENDBRANCH  18  19
ENDBRANCH   3  18
TORSDOF 8
