REMARK  Name = 
REMARK  1 active torsions:
REMARK  status: ('A' for Active; 'I' for Inactive)
REMARK    1  A    between atoms: N_2  and  C_3
REMARK                            x       y       z     vdW  Elec       q    Type
REMARK                         _______ _______ _______ _____ _____    ______ ____
ROOT
ATOM      1  O   UNL     1       1.650   0.412   0.000  0.00  0.00    +0.000 OA
ATOM      2  N   UNL     1       3.079   0.412   0.000  0.00  0.00    +0.000 N 
ATOM      3  C   UNL     1       3.793   0.825   0.000  0.00  0.00    +0.000 A 
ATOM      4  C   UNL     1       3.793   1.650   0.000  0.00  0.00    +0.000 A 
ATOM      5  C   UNL     1       2.364   0.825   0.000  0.00  0.00    +0.000 A 
ATOM      6  C   UNL     1       3.079   2.062   0.000  0.00  0.00    +0.000 A 
ATOM      7  C   UNL     1       2.364   1.650   0.000  0.00  0.00    +0.000 A 
ATOM      8  C   UNL     1       4.508   2.062   0.000  0.00  0.00    +0.000 C 
ENDROOT
BRANCH   2   9
ATOM      9  C   UNL     1       3.079  -0.412   0.000  0.00  0.00    +0.000 A 
ATOM     10  C   UNL     1       3.793  -0.825   0.000  0.00  0.00    +0.000 A 
ATOM     11  C   UNL     1       2.364  -0.825   0.000  0.00  0.00    +0.000 A 
ATOM     12  C   UNL     1       3.793  -1.650   0.000  0.00  0.00    +0.000 A 
ATOM     13  C   UNL     1       2.364  -1.650   0.000  0.00  0.00    +0.000 A 
ATOM     14  C   UNL     1       3.079  -2.062   0.000  0.00  0.00    +0.000 A 
ENDBRANCH   2   9
TORSDOF 1
