REMARK  Name = 
REMARK  6 active torsions:
REMARK  status: ('A' for Active; 'I' for Inactive)
REMARK    1  A    between atoms: N_3  and  C_5
REMARK    2  A    between atoms: N_3  and  C_9
REMARK    3  A    between atoms: N_3  and  C_10
REMARK    4  A    between atoms: N_4  and  C_6
REMARK    5  A    between atoms: N_4  and  C_7
REMARK    6  A    between atoms: C_5  and  C_6
REMARK                            x       y       z     vdW  Elec       q    Type
REMARK                         _______ _______ _______ _____ _____    ______ ____
ROOT
ATOM      1  S   UNL     1       3.771  -2.235   0.000  0.00  0.00    +0.000 S 
ATOM      2  O   UNL     1       3.771   0.190   0.000  0.00  0.00    +0.000 OA
ATOM      3  C   UNL     1       5.193  -0.590   0.000  0.00  0.00    +0.000 A 
ATOM      4  C   UNL     1       4.471  -1.022   0.000  0.00  0.00    +0.000 A 
ATOM      5  C   UNL     1       4.471  -1.830   0.000  0.00  0.00    +0.000 A 
ATOM      6  C   UNL     1       5.193  -2.263   0.000  0.00  0.00    +0.000 A 
ATOM      7  C   UNL     1       3.771  -0.618   0.000  0.00  0.00    +0.000 A 
ATOM      8  C   UNL     1       5.926  -1.006   0.000  0.00  0.00    +0.000 A 
ATOM      9  C   UNL     1       3.071  -1.022   0.000  0.00  0.00    +0.000 A 
ATOM     10  C   UNL     1       5.926  -1.847   0.000  0.00  0.00    +0.000 A 
ATOM     11  C   UNL     1       3.071  -1.830   0.000  0.00  0.00    +0.000 A 
ATOM     12  C   UNL     1       5.184  -3.071   0.000  0.00  0.00    +0.000 C 
ATOM     13  C   UNL     1       2.349  -0.590   0.000  0.00  0.00    +0.000 A 
ATOM     14  C   UNL     1       2.349  -2.263   0.000  0.00  0.00    +0.000 A 
ATOM     15  C   UNL     1       1.616  -1.006   0.000  0.00  0.00    +0.000 A 
ATOM     16  C   UNL     1       1.616  -1.847   0.000  0.00  0.00    +0.000 A 
ENDROOT
BRANCH   3  17
ATOM     17  N   UNL     1       5.184   0.218   0.000  0.00  0.00    +0.000 NA
BRANCH  17  18
ATOM     18  C   UNL     1       5.879   0.630   0.000  0.00  0.00    +0.000 C 
BRANCH  18  19
ATOM     19  C   UNL     1       5.870   1.438   0.000  0.00  0.00    +0.000 C 
BRANCH  19  20
ATOM     20  N   UNL     1       6.565   1.850   0.000  0.00  0.00    +0.000 NA
BRANCH  20  21
ATOM     21  C   UNL     1       6.556   2.659   0.000  0.00  0.00    +0.000 C 
ATOM     22  C   UNL     1       7.251   3.071   0.000  0.00  0.00    +0.000 C 
ENDBRANCH  20  21
BRANCH  20  23
ATOM     23  C   UNL     1       7.269   1.454   0.000  0.00  0.00    +0.000 C 
ATOM     24  C   UNL     1       7.965   1.867   0.000  0.00  0.00    +0.000 C 
ENDBRANCH  20  23
ENDBRANCH  19  20
ENDBRANCH  18  19
ENDBRANCH  17  18
ENDBRANCH   3  17
TORSDOF 6
