REMARK  Name = 
REMARK  7 active torsions:
REMARK  status: ('A' for Active; 'I' for Inactive)
REMARK    1  A    between atoms: S_1  and  C_17
REMARK    2  A    between atoms: S_1  and  C_21
REMARK    3  A    between atoms: N_7  and  C_16
REMARK    4  A    between atoms: C_15  and  C_17
REMARK    5  A    between atoms: C_21  and  C_22
REMARK    6  A    between atoms: C_22  and  C_24
REMARK    7  A    between atoms: C_24  and  C_26
REMARK                            x       y       z     vdW  Elec       q    Type
REMARK                         _______ _______ _______ _____ _____    ______ ____
ROOT
ATOM      1  O   UNK     1      14.833 -10.871   0.000  0.00  0.00    +0.000 OA
ATOM      2  O   UNK     1      16.771  -9.977   0.000  0.00  0.00    +0.000 OA
ATOM      3  O   UNK     1      16.768 -11.772   0.000  0.00  0.00    +0.000 OA
ATOM      4  C   UNK     1      16.103 -10.461   0.000  0.00  0.00    +0.000 C 
ATOM      5  C   UNK     1      16.102 -11.286   0.000  0.00  0.00    +0.000 C 
ATOM      6  C   UNK     1      15.319 -10.204   0.000  0.00  0.00    +0.000 C 
ATOM      7  C   UNK     1      15.317 -11.539   0.000  0.00  0.00    +0.000 C 
ENDROOT
BRANCH   7   8
ATOM      8  N   UNK     1      15.060 -12.324   0.000  0.00  0.00    +0.000 N 
ATOM      9  N   UNK     1      15.060 -13.651   0.000  0.00  0.00    +0.000 NA
ATOM     10  N   UNK     1      13.565 -12.162   0.000  0.00  0.00    +0.000 NA
ATOM     11  N   UNK     1      12.851 -13.400   0.000  0.00  0.00    +0.000 NA
ATOM     12  N   UNK     1      13.565 -14.637   0.000  0.00  0.00    +0.000 NA
ATOM     13  C   UNK     1      14.280 -12.575   0.000  0.00  0.00    +0.000 A 
ATOM     14  C   UNK     1      15.542 -12.988   0.000  0.00  0.00    +0.000 A 
ATOM     15  C   UNK     1      14.280 -13.400   0.000  0.00  0.00    +0.000 A 
ATOM     16  C   UNK     1      13.565 -13.812   0.000  0.00  0.00    +0.000 A 
ATOM     17  C   UNK     1      12.851 -12.575   0.000  0.00  0.00    +0.000 A 
ENDBRANCH   7   8
BRANCH   6  18
ATOM     18  C   UNK     1      15.065  -9.419   0.000  0.00  0.00    +0.000 C 
BRANCH  18  19
ATOM     19  S   UNK     1      15.618  -8.807   0.000  0.00  0.00    +0.000 S 
BRANCH  19  20
ATOM     20  C   UNK     1      15.365  -8.022   0.000  0.00  0.00    +0.000 C 
BRANCH  20  21
ATOM     21  C   UNK     1      15.918  -7.410   0.000  0.00  0.00    +0.000 C 
BRANCH  21  23
ATOM     22  N   UNK     1      14.858  -6.452   0.000  0.00  0.00    +0.000 NA
ATOM     23  C   UNK     1      15.665  -6.625   0.000  0.00  0.00    +0.000 C 
BRANCH  23  26
ATOM     24  O   UNK     1      15.964  -5.228   0.000  0.00  0.00    +0.000 OA
ATOM     25  O   UNK     1      17.024  -6.186   0.000  0.00  0.00    +0.000 OA
ATOM     26  C   UNK     1      16.218  -6.013   0.000  0.00  0.00    +0.000 C 
ENDBRANCH  23  26
ENDBRANCH  21  23
ENDBRANCH  20  21
ENDBRANCH  19  20
ENDBRANCH  18  19
ENDBRANCH   6  18
TORSDOF 7
