REMARK  Name = 
REMARK  1 active torsions:
REMARK  status: ('A' for Active; 'I' for Inactive)
REMARK    1  A    between atoms: N_2  and  C_4
REMARK                            x       y       z     vdW  Elec       q    Type
REMARK                         _______ _______ _______ _____ _____    ______ ____
ROOT
ATOM      1  C   UNL     1       3.279   1.238   0.000  0.00  0.00    +0.000 A 
ATOM      2  C   UNL     1       3.993   0.825   0.000  0.00  0.00    +0.000 A 
ATOM      3  C   UNL     1       3.993   0.000   0.000  0.00  0.00    +0.000 A 
ATOM      4  C   UNL     1       3.279  -0.412   0.000  0.00  0.00    +0.000 A 
ATOM      5  C   UNL     1       2.564   0.000   0.000  0.00  0.00    +0.000 A 
ATOM      6  C   UNL     1       2.564   0.825   0.000  0.00  0.00    +0.000 A 
ATOM      7  C   UNL     1       1.780   1.080   0.000  0.00  0.00    +0.000 C 
ATOM      8  C   UNL     1       1.295   0.412   0.000  0.00  0.00    +0.000 C 
ATOM      9  C   UNL     1       1.780  -0.255   0.000  0.00  0.00    +0.000 C 
ATOM     10  O   UNL     1       1.525  -1.040   0.000  0.00  0.00    +0.000 OA
ENDROOT
BRANCH   1  12
ATOM     11  O   UNL     1       3.993   2.475   0.000  0.00  0.00    +0.000 OA
ATOM     12  N   UNL     1       3.279   2.062   0.000  0.00  0.00    +0.000 N 
ATOM     13  O   UNL     1       2.564   2.475   0.000  0.00  0.00    +0.000 OA
ENDBRANCH   1  12
TORSDOF 1
