REMARK  Name = 
REMARK  9 active torsions:
REMARK  status: ('A' for Active; 'I' for Inactive)
REMARK    1  A    between atoms: O_5  and  C_24
REMARK    2  A    between atoms: O_5  and  C_34
REMARK    3  A    between atoms: O_7  and  C_35
REMARK    4  A    between atoms: O_7  and  C_36
REMARK    5  A    between atoms: O_9  and  C_49
REMARK    6  A    between atoms: N_12  and  C_29
REMARK    7  A    between atoms: N_15  and  C_53
REMARK    8  A    between atoms: C_16  and  C_20
REMARK    9  A    between atoms: C_44  and  C_48
REMARK                            x       y       z     vdW  Elec       q    Type
REMARK                         _______ _______ _______ _____ _____    ______ ____
ROOT
ATOM      1  O   UNL     1       4.985  -1.834   0.000  0.00  0.00    +0.000 OA
ATOM      2  O   UNL     1       6.748  -1.594   0.000  0.00  0.00    +0.000 OA
ATOM      3  N   UNL     1       3.858  -0.707   0.000  0.00  0.00    +0.000 NA
ATOM      4  N   UNL     1       6.001  -1.120   0.000  0.00  0.00    +0.000 N 
ATOM      5  C   UNL     1       3.143  -1.120   0.000  0.00  0.00    +0.000 C 
ATOM      6  C   UNL     1       3.143  -1.945   0.000  0.00  0.00    +0.000 C 
ATOM      7  C   UNL     1       2.428  -1.532   0.000  0.00  0.00    +0.000 C 
ATOM      8  C   UNL     1       3.858  -2.357   0.000  0.00  0.00    +0.000 C 
ATOM      9  C   UNL     1       5.287  -0.707   0.000  0.00  0.00    +0.000 C 
ATOM     10  C   UNL     1       4.572  -1.120   0.000  0.00  0.00    +0.000 C 
ATOM     11  C   UNL     1       5.459   0.095   0.000  0.00  0.00    +0.000 C 
ATOM     12  C   UNL     1       6.275   0.180   0.000  0.00  0.00    +0.000 C 
ATOM     13  C   UNL     1       6.609  -0.569   0.000  0.00  0.00    +0.000 C 
ATOM     14  C   UNL     1       3.858  -3.182   0.000  0.00  0.00    +0.000 C 
ATOM     15  C   UNL     1       3.143  -3.595   0.000  0.00  0.00    +0.000 C 
ATOM     16  C   UNL     1       6.001  -1.945   0.000  0.00  0.00    +0.000 C 
ATOM     17  C   UNL     1       5.782  -2.873   0.000  0.00  0.00    +0.000 C 
ATOM     18  C   UNL     1       3.556  -4.309   0.000  0.00  0.00    +0.000 C 
ATOM     19  C   UNL     1       5.067  -3.285   0.000  0.00  0.00    +0.000 C 
ATOM     20  C   UNL     1       4.353  -4.523   0.000  0.00  0.00    +0.000 C 
ATOM     21  C   UNL     1       5.067  -4.110   0.000  0.00  0.00    +0.000 C 
ENDROOT
BRANCH  17  23
ATOM     22  O   UNL     1       7.384  -2.478   0.000  0.00  0.00    +0.000 OA
ATOM     23  N   UNL     1       6.353  -3.468   0.000  0.00  0.00    +0.000 NA
ATOM     24  C   UNL     1       7.154  -3.271   0.000  0.00  0.00    +0.000 C 
BRANCH  24  25
ATOM     25  O   UNL     1       7.726  -3.866   0.000  0.00  0.00    +0.000 OA
BRANCH  25  26
ATOM     26  C   UNL     1       8.527  -3.668   0.000  0.00  0.00    +0.000 C 
ATOM     27  C   UNL     1       9.157  -4.200   0.000  0.00  0.00    +0.000 C 
ATOM     28  C   UNL     1       8.838  -2.904   0.000  0.00  0.00    +0.000 C 
ATOM     29  C   UNL     1       9.858  -3.765   0.000  0.00  0.00    +0.000 C 
ATOM     30  C   UNL     1       9.661  -2.964   0.000  0.00  0.00    +0.000 C 
ENDBRANCH  25  26
ENDBRANCH  24  25
ENDBRANCH  17  23
BRANCH   5  33
ATOM     31  O   UNL     1       1.906  -0.405   0.000  0.00  0.00    +0.000 OA
ATOM     32  O   UNL     1       3.143   0.309   0.000  0.00  0.00    +0.000 OA
ATOM     33  C   UNL     1       2.731  -0.405   0.000  0.00  0.00    +0.000 C 
ENDBRANCH   5  33
BRANCH  12  34
ATOM     34  O   UNL     1       6.688   0.894   0.000  0.00  0.00    +0.000 OA
BRANCH  34  36
ATOM     35  N   UNL     1       9.163   0.894   0.000  0.00  0.00    +0.000 NA
ATOM     36  C   UNL     1       7.513   0.894   0.000  0.00  0.00    +0.000 A 
ATOM     37  C   UNL     1       7.925   1.609   0.000  0.00  0.00    +0.000 A 
ATOM     38  C   UNL     1       7.925   0.180   0.000  0.00  0.00    +0.000 A 
ATOM     39  C   UNL     1       8.750   1.609   0.000  0.00  0.00    +0.000 A 
ATOM     40  C   UNL     1       8.750   0.180   0.000  0.00  0.00    +0.000 A 
ATOM     41  C   UNL     1       7.484   2.346   0.000  0.00  0.00    +0.000 A 
ATOM     42  C   UNL     1       9.191   2.346   0.000  0.00  0.00    +0.000 A 
ATOM     43  C   UNL     1       7.908   3.094   0.000  0.00  0.00    +0.000 A 
ATOM     44  C   UNL     1       8.767   3.094   0.000  0.00  0.00    +0.000 A 
BRANCH  40  48
ATOM     45  S   UNL     1       9.440  -1.841   0.000  0.00  0.00    +0.000 S 
ATOM     46  N   UNL     1       9.983  -0.621   0.000  0.00  0.00    +0.000 NA
ATOM     47  N   UNL     1      10.908  -1.764   0.000  0.00  0.00    +0.000 NA
ATOM     48  C   UNL     1       9.163  -0.535   0.000  0.00  0.00    +0.000 A 
ATOM     49  C   UNL     1       8.827  -1.288   0.000  0.00  0.00    +0.000 A 
ATOM     50  C   UNL     1      10.155  -1.428   0.000  0.00  0.00    +0.000 A 
BRANCH  47  51
ATOM     51  C   UNL     1      11.576  -1.279   0.000  0.00  0.00    +0.000 C 
ATOM     52  C   UNL     1      12.329  -1.614   0.000  0.00  0.00    +0.000 C 
ATOM     53  C   UNL     1      11.490  -0.458   0.000  0.00  0.00    +0.000 C 
ENDBRANCH  47  51
ENDBRANCH  40  48
BRANCH  44  54
ATOM     54  O   UNL     1       9.183   3.807   0.000  0.00  0.00    +0.000 OA
ATOM     55  C   UNL     1       8.773   4.523   0.000  0.00  0.00    +0.000 C 
ENDBRANCH  44  54
ENDBRANCH  34  36
ENDBRANCH  12  34
TORSDOF 9
