REMARK  Name = 
REMARK  0 active torsions:
REMARK  status: ('A' for Active; 'I' for Inactive)
REMARK                            x       y       z     vdW  Elec       q    Type
REMARK                         _______ _______ _______ _____ _____    ______ ____
ROOT
ATOM      1  N   UNL     1       3.602   1.112   0.000  0.00  0.00    +0.000 NA
ATOM      2  C   UNL     1       2.475  -0.840   0.000  0.00  0.00    +0.000 C 
ATOM      3  C   UNL     1       3.904  -0.840   0.000  0.00  0.00    +0.000 C 
ATOM      4  C   UNL     1       3.189   0.397   0.000  0.00  0.00    +0.000 C 
ATOM      5  C   UNL     1       3.189  -1.253   0.000  0.00  0.00    +0.000 C 
ATOM      6  C   UNL     1       2.475  -0.015   0.000  0.00  0.00    +0.000 C 
ATOM      7  C   UNL     1       3.904  -0.015   0.000  0.00  0.00    +0.000 C 
ATOM      8  C   UNL     1       2.062  -1.555   0.000  0.00  0.00    +0.000 C 
ATOM      9  C   UNL     1       1.650  -0.840   0.000  0.00  0.00    +0.000 C 
ATOM     10  C   UNL     1       4.317  -1.555   0.000  0.00  0.00    +0.000 C 
ATOM     11  C   UNL     1       4.729  -0.840   0.000  0.00  0.00    +0.000 C 
ATOM     12  C   UNL     1       2.777   1.112   0.000  0.00  0.00    +0.000 C 
ENDROOT
TORSDOF 0
