REMARK  Name = 
REMARK  19 active torsions:
REMARK  status: ('A' for Active; 'I' for Inactive)
REMARK    1  A    between atoms: C_2  and  C_4
REMARK    2  A    between atoms: C_4  and  C_5
REMARK    3  A    between atoms: C_4  and  N_13
REMARK    4  A    between atoms: C_5  and  C_6
REMARK    5  A    between atoms: C_6  and  C_7
REMARK    6  A    between atoms: C_7  and  C_8
REMARK    7  A    between atoms: C_8  and  N_9
REMARK    8  A    between atoms: C_14  and  C_16
REMARK    9  A    between atoms: C_16  and  C_17
REMARK   10  A    between atoms: C_16  and  N_25
REMARK   11  A    between atoms: C_17  and  C_18
REMARK   12  A    between atoms: C_26  and  C_28
REMARK   13  A    between atoms: C_32  and  C_34
REMARK   14  A    between atoms: C_34  and  C_35
REMARK   15  A    between atoms: C_34  and  N_42
REMARK   16  A    between atoms: C_35  and  C_36
REMARK   17  A    between atoms: C_43  and  C_45
REMARK   18  A    between atoms: C_48  and  C_51
REMARK   19  A    between atoms: C_51  and  N_52
REMARK                            x       y       z     vdW  Elec       q    Type
REMARK                         _______ _______ _______ _____ _____    ______ ____
ROOT
ATOM      1  C   UNL     1      -1.357  -6.329   0.000  0.00  0.00    +0.000 C 
ATOM      2  C   UNL     1      -1.143  -7.126   0.000  0.00  0.00    +0.000 C 
ATOM      3  C   UNL     1      -0.347  -6.912   0.000  0.00  0.00    +0.000 C 
ATOM      4  N   UNL     1      -0.560  -6.115   0.000  0.00  0.00    +0.000 N 
ATOM      5  C   UNL     1      -0.148  -5.401   0.000  0.00  0.00    +0.000 C 
ATOM      6  O   UNL     1      -0.560  -4.686   0.000  0.00  0.00    +0.000 OA
ENDROOT
BRANCH   1   8
ATOM      7  N   UNL     1      -2.786  -6.329   0.000  0.00  0.00    +0.000 NA
ATOM      8  C   UNL     1      -2.071  -5.916   0.000  0.00  0.00    +0.000 C 
ATOM      9  O   UNL     1      -2.071  -5.091   0.000  0.00  0.00    +0.000 OA
BRANCH   7  10
ATOM     10  C   UNL     1      -3.501  -5.916   0.000  0.00  0.00    +0.000 C 
BRANCH  10  12
ATOM     11  N   UNL     1      -4.929  -5.916   0.000  0.00  0.00    +0.000 NA
ATOM     12  C   UNL     1      -4.215  -6.329   0.000  0.00  0.00    +0.000 C 
ATOM     13  O   UNL     1      -4.215  -7.154   0.000  0.00  0.00    +0.000 OA
BRANCH  11  14
ATOM     14  C   UNL     1      -5.644  -6.329   0.000  0.00  0.00    +0.000 C 
BRANCH  14  16
ATOM     15  N   UNL     1      -4.929  -7.566   0.000  0.00  0.00    +0.000 NA
ATOM     16  C   UNL     1      -5.644  -7.154   0.000  0.00  0.00    +0.000 C 
ATOM     17  O   UNL     1      -6.358  -7.566   0.000  0.00  0.00    +0.000 OA
ENDBRANCH  14  16
BRANCH  14  18
ATOM     18  C   UNL     1      -6.358  -5.916   0.000  0.00  0.00    +0.000 C 
BRANCH  18  19
ATOM     19  C   UNL     1      -7.073  -6.329   0.000  0.00  0.00    +0.000 C 
BRANCH  19  20
ATOM     20  C   UNL     1      -7.787  -5.916   0.000  0.00  0.00    +0.000 C 
BRANCH  20  21
ATOM     21  C   UNL     1      -8.502  -6.329   0.000  0.00  0.00    +0.000 C 
BRANCH  21  22
ATOM     22  N   UNL     1      -8.502  -7.154   0.000  0.00  0.00    +0.000 NA
ATOM     23  C   UNL     1      -9.216  -7.566   0.000  0.00  0.00    +0.000 C 
ATOM     24  N   UNL     1      -9.931  -7.154   0.000  0.00  0.00    +0.000 NA
ATOM     25  N   UNL     1      -9.216  -8.391   0.000  0.00  0.00    +0.000 NA
ENDBRANCH  21  22
ENDBRANCH  20  21
ENDBRANCH  19  20
ENDBRANCH  18  19
ENDBRANCH  14  18
ENDBRANCH  11  14
ENDBRANCH  10  12
BRANCH  10  26
ATOM     26  C   UNL     1      -3.501  -5.091   0.000  0.00  0.00    +0.000 C 
BRANCH  26  27
ATOM     27  C   UNL     1      -4.215  -4.679   0.000  0.00  0.00    +0.000 A 
ATOM     28  C   UNL     1      -4.929  -5.091   0.000  0.00  0.00    +0.000 A 
ATOM     29  C   UNL     1      -5.644  -4.679   0.000  0.00  0.00    +0.000 A 
ATOM     30  C   UNL     1      -5.644  -3.854   0.000  0.00  0.00    +0.000 A 
ATOM     31  O   UNL     1      -6.358  -3.441   0.000  0.00  0.00    +0.000 OA
ATOM     32  C   UNL     1      -4.929  -3.441   0.000  0.00  0.00    +0.000 A 
ATOM     33  C   UNL     1      -4.215  -3.854   0.000  0.00  0.00    +0.000 A 
ENDBRANCH  26  27
ENDBRANCH  10  26
ENDBRANCH   7  10
ENDBRANCH   1   8
BRANCH   5  34
ATOM     34  C   UNL     1       0.677  -5.401   0.000  0.00  0.00    +0.000 C 
BRANCH  34  35
ATOM     35  N   UNL     1       1.090  -6.115   0.000  0.00  0.00    +0.000 NA
ATOM     36  C   UNL     1       1.915  -6.115   0.000  0.00  0.00    +0.000 C 
ATOM     37  O   UNL     1       2.327  -6.830   0.000  0.00  0.00    +0.000 OA
BRANCH  36  38
ATOM     38  C   UNL     1       2.327  -5.401   0.000  0.00  0.00    +0.000 C 
ATOM     39  C   UNL     1       1.915  -4.686   0.000  0.00  0.00    +0.000 C 
ATOM     40  C   UNL     1       2.327  -3.972   0.000  0.00  0.00    +0.000 C 
ATOM     41  C   UNL     1       3.152  -3.972   0.000  0.00  0.00    +0.000 C 
ATOM     42  C   UNL     1       3.565  -4.686   0.000  0.00  0.00    +0.000 C 
ATOM     43  C   UNL     1       3.152  -5.401   0.000  0.00  0.00    +0.000 C 
BRANCH  41  44
ATOM     44  C   UNL     1       3.565  -3.257   0.000  0.00  0.00    +0.000 C 
BRANCH  44  45
ATOM     45  N   UNL     1       4.390  -3.257   0.000  0.00  0.00    +0.000 NA
ATOM     46  C   UNL     1       4.802  -2.543   0.000  0.00  0.00    +0.000 C 
ATOM     47  N   UNL     1       4.390  -1.828   0.000  0.00  0.00    +0.000 NA
ATOM     48  N   UNL     1       5.627  -2.543   0.000  0.00  0.00    +0.000 NA
ENDBRANCH  44  45
ENDBRANCH  41  44
ENDBRANCH  36  38
ENDBRANCH  34  35
BRANCH  34  49
ATOM     49  C   UNL     1       1.090  -4.686   0.000  0.00  0.00    +0.000 C 
BRANCH  49  50
ATOM     50  C   UNL     1       0.677  -3.972   0.000  0.00  0.00    +0.000 C 
ATOM     51  C   UNL     1      -0.148  -3.972   0.000  0.00  0.00    +0.000 C 
ATOM     52  C   UNL     1      -0.560  -3.257   0.000  0.00  0.00    +0.000 C 
ATOM     53  C   UNL     1      -0.148  -2.543   0.000  0.00  0.00    +0.000 C 
ATOM     54  C   UNL     1       0.677  -2.543   0.000  0.00  0.00    +0.000 C 
ATOM     55  C   UNL     1       1.090  -3.257   0.000  0.00  0.00    +0.000 C 
ENDBRANCH  49  50
ENDBRANCH  34  49
ENDBRANCH   5  34
TORSDOF 19
