REMARK  Name = 
REMARK  6 active torsions:
REMARK  status: ('A' for Active; 'I' for Inactive)
REMARK    1  A    between atoms: C_11  and  C_13
REMARK    2  A    between atoms: C_11  and  N_21
REMARK    3  A    between atoms: C_12  and  C_14
REMARK    4  A    between atoms: C_12  and  N_21
REMARK    5  A    between atoms: C_15  and  C_17
REMARK    6  A    between atoms: C_16  and  C_18
REMARK                            x       y       z     vdW  Elec       q    Type
REMARK                         _______ _______ _______ _____ _____    ______ ____
ROOT
ATOM      1  C   UNL     1       5.877  -1.322   0.000  0.00  0.00    +0.000 A 
ATOM      2  C   UNL     1       6.702  -1.322   0.000  0.00  0.00    +0.000 A 
ATOM      3  C   UNL     1       6.289  -0.052   0.000  0.00  0.00    +0.000 A 
ATOM      4  N   UNL     1       5.622  -0.537   0.000  0.00  0.00    +0.000 NA
ATOM      5  N   UNL     1       6.289   0.772   0.000  0.00  0.00    +0.000 N 
ATOM      6  O   UNL     1       6.957  -0.537   0.000  0.00  0.00    +0.000 OA
ENDROOT
BRANCH   1  12
ATOM      7  C   UNL     1       4.422  -3.324   0.000  0.00  0.00    +0.000 A 
ATOM      8  C   UNL     1       5.243  -3.410   0.000  0.00  0.00    +0.000 A 
ATOM      9  C   UNL     1       4.087  -2.571   0.000  0.00  0.00    +0.000 A 
ATOM     10  C   UNL     1       5.728  -2.743   0.000  0.00  0.00    +0.000 A 
ATOM     11  C   UNL     1       4.572  -1.903   0.000  0.00  0.00    +0.000 A 
ATOM     12  C   UNL     1       5.392  -1.989   0.000  0.00  0.00    +0.000 A 
ENDBRANCH   1  12
BRANCH   2  18
ATOM     13  C   UNL     1       8.157  -3.324   0.000  0.00  0.00    +0.000 A 
ATOM     14  C   UNL     1       8.492  -2.571   0.000  0.00  0.00    +0.000 A 
ATOM     15  C   UNL     1       7.336  -3.410   0.000  0.00  0.00    +0.000 A 
ATOM     16  C   UNL     1       8.007  -1.903   0.000  0.00  0.00    +0.000 A 
ATOM     17  C   UNL     1       6.851  -2.743   0.000  0.00  0.00    +0.000 A 
ATOM     18  C   UNL     1       7.187  -1.989   0.000  0.00  0.00    +0.000 A 
ENDBRANCH   2  18
BRANCH   5  19
ATOM     19  C   UNL     1       5.575   1.185   0.000  0.00  0.00    +0.000 C 
BRANCH  19  20
ATOM     20  C   UNL     1       5.575   2.010   0.000  0.00  0.00    +0.000 C 
ATOM     21  O   UNL     1       4.861   2.422   0.000  0.00  0.00    +0.000 OA
ENDBRANCH  19  20
ENDBRANCH   5  19
BRANCH   5  22
ATOM     22  C   UNL     1       7.004   1.185   0.000  0.00  0.00    +0.000 C 
BRANCH  22  23
ATOM     23  C   UNL     1       7.004   2.010   0.000  0.00  0.00    +0.000 C 
ATOM     24  O   UNL     1       7.718   2.422   0.000  0.00  0.00    +0.000 OA
ENDBRANCH  22  23
ENDBRANCH   5  22
TORSDOF 6
