REMARK  Name = 
REMARK  3 active torsions:
REMARK  status: ('A' for Active; 'I' for Inactive)
REMARK    1  A    between atoms: N_9  and  C_12
REMARK    2  A    between atoms: C_14  and  C_15
REMARK    3  A    between atoms: C_19  and  P_22
REMARK                            x       y       z     vdW  Elec       q    Type
REMARK                         _______ _______ _______ _____ _____    ______ ____
ROOT
ATOM      1  C   UNL     1       3.319   0.392   0.000  0.00  0.00    +0.000 C 
ATOM      2  O   UNL     1       2.834   1.060   0.000  0.00  0.00    +0.000 OA
ATOM      3  C   UNL     1       3.319   1.727   0.000  0.00  0.00    +0.000 C 
ATOM      4  C   UNL     1       4.103   1.472   0.000  0.00  0.00    +0.000 C 
ATOM      5  O   UNL     1       4.888   1.727   0.000  0.00  0.00    +0.000 OA
ATOM      6  C   UNL     1       5.373   1.060   0.000  0.00  0.00    +0.000 C 
ATOM      7  O   UNL     1       4.888   0.392   0.000  0.00  0.00    +0.000 OA
ATOM      8  C   UNL     1       4.103   0.647   0.000  0.00  0.00    +0.000 C 
ENDROOT
BRANCH   1  17
ATOM      9  N   UNL     1       5.525  -1.986   0.000  0.00  0.00    +0.000 NA
ATOM     10  C   UNL     1       4.705  -1.900   0.000  0.00  0.00    +0.000 A 
ATOM     11  N   UNL     1       4.220  -2.567   0.000  0.00  0.00    +0.000 NA
ATOM     12  C   UNL     1       3.399  -2.481   0.000  0.00  0.00    +0.000 A 
ATOM     13  O   UNL     1       2.914  -3.148   0.000  0.00  0.00    +0.000 OA
ATOM     14  C   UNL     1       3.064  -1.727   0.000  0.00  0.00    +0.000 A 
ATOM     15  C   UNL     1       3.549  -1.060   0.000  0.00  0.00    +0.000 A 
ATOM     16  N   UNL     1       4.369  -1.146   0.000  0.00  0.00    +0.000 NA
ATOM     17  N   UNL     1       3.064  -0.393   0.000  0.00  0.00    +0.000 N 
ATOM     18  C   UNL     1       2.279  -0.647   0.000  0.00  0.00    +0.000 A 
ATOM     19  N   UNL     1       2.279  -1.472   0.000  0.00  0.00    +0.000 NA
ENDBRANCH   1  17
BRANCH   6  20
ATOM     20  P   UNL     1       6.198   1.060   0.000  0.00  0.00    +0.000 P 
ATOM     21  O   UNL     1       7.023   1.060   0.000  0.00  0.00    +0.000 OA
ATOM     22  O   UNL     1       6.198   0.235   0.000  0.00  0.00    +0.000 OA
ATOM     23  O   UNL     1       6.198   1.885   0.000  0.00  0.00    +0.000 OA
ENDBRANCH   6  20
BRANCH   3  24
ATOM     24  C   UNL     1       3.064   2.512   0.000  0.00  0.00    +0.000 C 
ATOM     25  O   UNL     1       3.616   3.125   0.000  0.00  0.00    +0.000 OA
ENDBRANCH   3  24
TORSDOF 3
