REMARK  Name = 
REMARK  2 active torsions:
REMARK  status: ('A' for Active; 'I' for Inactive)
REMARK    1  A    between atoms: C_2  and  C_3
REMARK    2  A    between atoms: C_3  and  C_5
REMARK                            x       y       z     vdW  Elec       q    Type
REMARK                         _______ _______ _______ _____ _____    ______ ____
ROOT
ATOM      1  C   UNL     1       0.568   1.114   0.000  0.00  0.00    +0.000 A 
ATOM      2  N   UNL     1       1.235   0.629   0.000  0.00  0.00    +0.000 NA
ATOM      3  C   UNL     1       0.980  -0.155   0.000  0.00  0.00    +0.000 A 
ATOM      4  C   UNL     1       0.155  -0.155   0.000  0.00  0.00    +0.000 A 
ATOM      5  S   UNL     1      -0.100   0.629   0.000  0.00  0.00    +0.000 S 
ENDROOT
BRANCH   1   6
ATOM      6  C   UNL     1       0.568   1.939   0.000  0.00  0.00    +0.000 C 
ATOM      7  C   UNL     1       1.282   2.352   0.000  0.00  0.00    +0.000 C 
BRANCH   6   9
ATOM      8  C   UNL     1      -0.147   3.177   0.000  0.00  0.00    +0.000 C 
ATOM      9  C   UNL     1      -0.147   2.352   0.000  0.00  0.00    +0.000 C 
ENDBRANCH   6   9
ENDBRANCH   1   6
TORSDOF 2
