REMARK  Name = 
REMARK  3 active torsions:
REMARK  status: ('A' for Active; 'I' for Inactive)
REMARK    1  A    between atoms: N_3  and  C_5
REMARK    2  A    between atoms: C_4  and  C_5
REMARK    3  A    between atoms: C_4  and  C_8
REMARK                            x       y       z     vdW  Elec       q    Type
REMARK                         _______ _______ _______ _____ _____    ______ ____
ROOT
ATOM      1  O   UNL     1      21.315 -19.085   0.000  0.00  0.00    +0.000 OA
ATOM      2  C   UNL     1      21.315 -18.260   0.000  0.00  0.00    +0.000 A 
ATOM      3  C   UNL     1      21.315 -16.610   0.000  0.00  0.00    +0.000 A 
ATOM      4  C   UNL     1      20.601 -17.847   0.000  0.00  0.00    +0.000 A 
ATOM      5  C   UNL     1      22.030 -17.847   0.000  0.00  0.00    +0.000 A 
ATOM      6  C   UNL     1      20.601 -17.022   0.000  0.00  0.00    +0.000 A 
ATOM      7  C   UNL     1      22.030 -17.022   0.000  0.00  0.00    +0.000 A 
ENDROOT
BRANCH   3   9
ATOM      8  O   UNL     1      20.601 -15.372   0.000  0.00  0.00    +0.000 OA
ATOM      9  C   UNL     1      21.315 -15.785   0.000  0.00  0.00    +0.000 C 
BRANCH   9  10
ATOM     10  C   UNL     1      22.030 -15.372   0.000  0.00  0.00    +0.000 C 
BRANCH  10  11
ATOM     11  N   UNL     1      22.030 -14.547   0.000  0.00  0.00    +0.000 NA
ATOM     12  C   UNL     1      22.744 -14.135   0.000  0.00  0.00    +0.000 C 
ENDBRANCH  10  11
ENDBRANCH   9  10
ENDBRANCH   3   9
TORSDOF 3
