REMARK  Name = 
REMARK  8 active torsions:
REMARK  status: ('A' for Active; 'I' for Inactive)
REMARK    1  A    between atoms: C_2  and  C_3
REMARK    2  A    between atoms: C_4  and  C_5
REMARK    3  A    between atoms: C_5  and  C_7
REMARK    4  A    between atoms: C_20  and  S_23
REMARK    5  A    between atoms: S_23  and  N_26
REMARK    6  A    between atoms: N_26  and  C_27
REMARK    7  A    between atoms: C_30  and  S_33
REMARK    8  A    between atoms: S_33  and  N_36
REMARK                            x       y       z     vdW  Elec       q    Type
REMARK                         _______ _______ _______ _____ _____    ______ ____
ROOT
ATOM      1  C   UNL     1      -0.628  -0.698   0.000  0.00  0.00    +0.000 A 
ATOM      2  C   UNL     1      -0.143  -1.365   0.000  0.00  0.00    +0.000 A 
ATOM      3  C   UNL     1       0.641  -1.110   0.000  0.00  0.00    +0.000 A 
ATOM      4  C   UNL     1       0.641  -0.285   0.000  0.00  0.00    +0.000 A 
ATOM      5  O   UNL     1      -0.143  -0.030   0.000  0.00  0.00    +0.000 OA
ATOM      6  C   UNL     1       1.356   0.127   0.000  0.00  0.00    +0.000 A 
ATOM      7  C   UNL     1       2.070  -0.285   0.000  0.00  0.00    +0.000 A 
ATOM      8  C   UNL     1       2.070  -1.110   0.000  0.00  0.00    +0.000 A 
ATOM      9  C   UNL     1       1.356  -1.523   0.000  0.00  0.00    +0.000 A 
ENDROOT
BRANCH   7  10
ATOM     10  S   UNL     1       2.784   0.127   0.000  0.00  0.00    +0.000 S 
ATOM     11  O   UNL     1       3.197  -0.587   0.000  0.00  0.00    +0.000 OA
ATOM     12  O   UNL     1       2.372   0.842   0.000  0.00  0.00    +0.000 OA
BRANCH  10  13
ATOM     13  N   UNL     1       3.499   0.540   0.000  0.00  0.00    +0.000 NA
BRANCH  13  14
ATOM     14  C   UNL     1       4.213   0.127   0.000  0.00  0.00    +0.000 A 
ATOM     15  C   UNL     1       4.928   0.540   0.000  0.00  0.00    +0.000 A 
ATOM     16  C   UNL     1       5.642   0.127   0.000  0.00  0.00    +0.000 A 
ATOM     17  C   UNL     1       5.642  -0.698   0.000  0.00  0.00    +0.000 A 
ATOM     18  C   UNL     1       4.928  -1.110   0.000  0.00  0.00    +0.000 A 
ATOM     19  C   UNL     1       4.213  -0.698   0.000  0.00  0.00    +0.000 A 
BRANCH  17  20
ATOM     20  S   UNL     1       6.357  -1.110   0.000  0.00  0.00    +0.000 S 
ATOM     21  O   UNL     1       5.944  -1.825   0.000  0.00  0.00    +0.000 OA
ATOM     22  O   UNL     1       6.769  -0.396   0.000  0.00  0.00    +0.000 OA
BRANCH  20  23
ATOM     23  N   UNL     1       7.071  -1.523   0.000  0.00  0.00    +0.000 NA
ATOM     24  C   UNL     1       7.071  -2.348   0.000  0.00  0.00    +0.000 A 
ATOM     25  N   UNL     1       7.739  -2.833   0.000  0.00  0.00    +0.000 NA
ATOM     26  C   UNL     1       7.484  -3.618   0.000  0.00  0.00    +0.000 A 
ATOM     27  C   UNL     1       6.659  -3.618   0.000  0.00  0.00    +0.000 A 
ATOM     28  S   UNL     1       6.404  -2.833   0.000  0.00  0.00    +0.000 S 
ENDBRANCH  20  23
ENDBRANCH  17  20
ENDBRANCH  13  14
ENDBRANCH  10  13
ENDBRANCH   7  10
BRANCH   2  29
ATOM     29  C   UNL     1      -0.398  -2.150   0.000  0.00  0.00    +0.000 C 
ATOM     30  O   UNL     1       0.154  -2.763   0.000  0.00  0.00    +0.000 OA
BRANCH  29  31
ATOM     31  C   UNL     1      -1.205  -2.321   0.000  0.00  0.00    +0.000 A 
ATOM     32  C   UNL     1      -1.460  -3.106   0.000  0.00  0.00    +0.000 A 
ATOM     33  C   UNL     1      -2.267  -3.278   0.000  0.00  0.00    +0.000 A 
ATOM     34 BR   UNL     1      -2.522  -4.062   0.000  0.00  0.00    +0.000 Br
ATOM     35  C   UNL     1      -2.819  -2.665   0.000  0.00  0.00    +0.000 A 
ATOM     36  O   UNL     1      -3.626  -2.836   0.000  0.00  0.00    +0.000 OA
ATOM     37  C   UNL     1      -2.564  -1.880   0.000  0.00  0.00    +0.000 A 
ATOM     38 BR   UNL     1      -3.116  -1.267   0.000  0.00  0.00    +0.000 Br
ATOM     39  C   UNL     1      -1.758  -1.708   0.000  0.00  0.00    +0.000 A 
ENDBRANCH  29  31
ENDBRANCH   2  29
BRANCH   1  41
ATOM     40  C   UNL     1      -1.866   0.017   0.000  0.00  0.00    +0.000 C 
ATOM     41  C   UNL     1      -1.453  -0.698   0.000  0.00  0.00    +0.000 C 
ENDBRANCH   1  41
TORSDOF 8
