REMARK  Name = 
REMARK  5 active torsions:
REMARK  status: ('A' for Active; 'I' for Inactive)
REMARK    1  A    between atoms: C_4  and  N_26
REMARK    2  A    between atoms: C_9  and  C_11
REMARK    3  A    between atoms: C_12  and  N_18
REMARK    4  A    between atoms: N_18  and  C_19
REMARK    5  A    between atoms: C_19  and  C_20
REMARK                            x       y       z     vdW  Elec       q    Type
REMARK                         _______ _______ _______ _____ _____    ______ ____
ROOT
ATOM      1  C   UNL     1       2.732   0.000   0.000  0.00  0.00    +0.000 C 
ATOM      2  C   UNL     1       2.732  -0.820   0.000  0.00  0.00    +0.000 A 
ATOM      3  C   UNL     1       2.021  -1.237   0.000  0.00  0.00    +0.000 A 
ATOM      4  C   UNL     1       2.021  -2.057   0.000  0.00  0.00    +0.000 A 
ATOM      5  C   UNL     1       2.732  -2.474   0.000  0.00  0.00    +0.000 A 
ATOM      6  C   UNL     1       3.451  -2.057   0.000  0.00  0.00    +0.000 A 
ATOM      7  C   UNL     1       3.451  -1.237   0.000  0.00  0.00    +0.000 A 
ATOM      8  N   UNL     1       4.235  -0.978   0.000  0.00  0.00    +0.000 NA
ATOM      9  C   UNL     1       4.717  -1.647   0.000  0.00  0.00    +0.000 A 
ATOM     10  N   UNL     1       4.235  -2.315   0.000  0.00  0.00    +0.000 NA
ENDROOT
BRANCH   9  11
ATOM     11  C   UNL     1       5.544  -1.647   0.000  0.00  0.00    +0.000 A 
ATOM     12  C   UNL     1       5.954  -2.358   0.000  0.00  0.00    +0.000 A 
ATOM     13  C   UNL     1       6.780  -2.358   0.000  0.00  0.00    +0.000 A 
ATOM     14  C   UNL     1       7.190  -1.647   0.000  0.00  0.00    +0.000 A 
ATOM     15  N   UNL     1       6.780  -0.935   0.000  0.00  0.00    +0.000 NA
ATOM     16  C   UNL     1       5.954  -0.935   0.000  0.00  0.00    +0.000 A 
ATOM     17  O   UNL     1       5.544  -0.216   0.000  0.00  0.00    +0.000 OA
BRANCH  12  18
ATOM     18  N   UNL     1       5.544  -3.078   0.000  0.00  0.00    +0.000 NA
BRANCH  18  19
ATOM     19  C   UNL     1       5.954  -3.789   0.000  0.00  0.00    +0.000 C 
BRANCH  19  20
ATOM     20  C   UNL     1       5.544  -4.501   0.000  0.00  0.00    +0.000 A 
ATOM     21  C   UNL     1       4.717  -4.501   0.000  0.00  0.00    +0.000 A 
ATOM     22  C   UNL     1       4.307  -5.220   0.000  0.00  0.00    +0.000 A 
ATOM     23  C   UNL     1       4.717  -5.932   0.000  0.00  0.00    +0.000 A 
ATOM     24  C   UNL     1       5.544  -5.932   0.000  0.00  0.00    +0.000 A 
ATOM     25  N   UNL     1       5.954  -5.220   0.000  0.00  0.00    +0.000 NA
ENDBRANCH  19  20
ENDBRANCH  18  19
ENDBRANCH  12  18
ENDBRANCH   9  11
BRANCH   4  26
ATOM     26  N   UNL     1       1.309  -2.474   0.000  0.00  0.00    +0.000 N 
ATOM     27  C   UNL     1       0.554  -2.136   0.000  0.00  0.00    +0.000 A 
ATOM     28  C   UNL     1       0.000  -2.747   0.000  0.00  0.00    +0.000 A 
ATOM     29  N   UNL     1       0.410  -3.466   0.000  0.00  0.00    +0.000 NA
ATOM     30  C   UNL     1       1.222  -3.293   0.000  0.00  0.00    +0.000 A 
ENDBRANCH   4  26
TORSDOF 5
