REMARK  Name = 
REMARK  6 active torsions:
REMARK  status: ('A' for Active; 'I' for Inactive)
REMARK    1  A    between atoms: C_5  and  C_9
REMARK    2  A    between atoms: C_5  and  C_12
REMARK    3  A    between atoms: C_7  and  C_13
REMARK    4  A    between atoms: C_7  and  N_22
REMARK    5  A    between atoms: C_8  and  C_15
REMARK    6  A    between atoms: C_15  and  C_16
REMARK                            x       y       z     vdW  Elec       q    Type
REMARK                         _______ _______ _______ _____ _____    ______ ____
ROOT
ATOM      1  C   UNL     1       0.077   3.147   0.000  0.00  0.00    +0.000 A 
ATOM      2  C   UNL     1      -1.251   3.007   0.000  0.00  0.00    +0.000 A 
ATOM      3  C   UNL     1      -0.259   3.900   0.000  0.00  0.00    +0.000 A 
ATOM      4  N   UNL     1      -0.536   2.595   0.000  0.00  0.00    +0.000 NA
ATOM      5  N   UNL     1      -1.079   3.814   0.000  0.00  0.00    +0.000 N 
ATOM      6  O   UNL     1       0.154   4.615   0.000  0.00  0.00    +0.000 OA
ENDROOT
BRANCH   2   7
ATOM      7  C   UNL     1      -2.004   2.671   0.000  0.00  0.00    +0.000 C 
ATOM      8  N   UNL     1      -2.672   3.156   0.000  0.00  0.00    +0.000 NA
BRANCH   7  10
ATOM      9  C   UNL     1      -1.423   1.366   0.000  0.00  0.00    +0.000 C 
ATOM     10  C   UNL     1      -2.091   1.851   0.000  0.00  0.00    +0.000 C 
ATOM     11  O   UNL     1      -2.844   1.515   0.000  0.00  0.00    +0.000 OA
ENDBRANCH   7  10
ENDBRANCH   2   7
BRANCH   1  12
ATOM     12  C   UNL     1       0.884   2.975   0.000  0.00  0.00    +0.000 C 
BRANCH  12  17
ATOM     13  C   UNL     1       3.352   1.110   0.000  0.00  0.00    +0.000 A 
ATOM     14  C   UNL     1       3.352   1.935   0.000  0.00  0.00    +0.000 A 
ATOM     15  C   UNL     1       2.638   0.698   0.000  0.00  0.00    +0.000 A 
ATOM     16  C   UNL     1       0.654   1.523   0.000  0.00  0.00    +0.000 A 
ATOM     17  C   UNL     1       1.139   2.190   0.000  0.00  0.00    +0.000 A 
ATOM     18  C   UNL     1       2.638   2.348   0.000  0.00  0.00    +0.000 A 
ATOM     19  C   UNL     1       1.923   1.110   0.000  0.00  0.00    +0.000 A 
ATOM     20  C   UNL     1       1.923   1.935   0.000  0.00  0.00    +0.000 A 
ATOM     21  F   UNL     1       2.638   3.173   0.000  0.00  0.00    +0.000 F 
ATOM     22  N   UNL     1       1.139   0.856   0.000  0.00  0.00    +0.000 NA
ENDBRANCH  12  17
ENDBRANCH   1  12
BRANCH   5  23
ATOM     23  C   UNL     1      -1.631   4.427   0.000  0.00  0.00    +0.000 C 
BRANCH  23  24
ATOM     24  C   UNL     1      -1.376   5.212   0.000  0.00  0.00    +0.000 C 
ATOM     25  O   UNL     1      -1.928   5.825   0.000  0.00  0.00    +0.000 OA
ATOM     26  O   UNL     1      -0.569   5.383   0.000  0.00  0.00    +0.000 OA
ENDBRANCH  23  24
ENDBRANCH   5  23
TORSDOF 6
