REMARK  Name = 
REMARK  6 active torsions:
REMARK  status: ('A' for Active; 'I' for Inactive)
REMARK    1  A    between atoms: C_5  and  C_8
REMARK    2  A    between atoms: C_5  and  CA_9
REMARK    3  A    between atoms: CA_9  and  C_14
REMARK    4  A    between atoms: C_10  and  N_17
REMARK    5  A    between atoms: C_13  and  N_18
REMARK    6  A    between atoms: N_17  and  N_18
REMARK                            x       y       z     vdW  Elec       q    Type
REMARK                         _______ _______ _______ _____ _____    ______ ____
ROOT
ATOM      1  C   UNL     1      -0.715   6.188   0.000  0.00  0.00    +0.000 C 
ATOM      2  C   UNL     1      -2.143   7.013   0.000  0.00  0.00    +0.000 C 
ATOM      3  C   UNL     1      -0.715   7.013   0.000  0.00  0.00    +0.000 C 
ATOM      4  C   UNL     1      -1.429   5.775   0.000  0.00  0.00    +0.000 C 
ATOM      5  C   UNL     1      -1.429   7.425   0.000  0.00  0.00    +0.000 C 
ATOM      6  C   UNL     1      -2.143   6.188   0.000  0.00  0.00    +0.000 C 
ATOM      7  O   UNL     1      -1.429   8.250   0.000  0.00  0.00    +0.000 OA
ATOM      8  O   UNL     1      -2.858   5.775   0.000  0.00  0.00    +0.000 OA
ENDROOT
BRANCH   3   9
ATOM      9  C   UNL     1       0.000   7.425   0.000  0.00  0.00    +0.000 C 
BRANCH   9  10
ATOM     10  CA  UNL     1       0.000   8.250   0.000  0.00  0.00    +0.000 C 
ATOM     11  N   UNL     1      -0.715   8.662   0.000  0.00  0.00    +0.000 NA
BRANCH  10  12
ATOM     12  C   UNL     1       0.715   8.662   0.000  0.00  0.00    +0.000 C 
ATOM     13  O   UNL     1       0.715   9.488   0.000  0.00  0.00    +0.000 OA
ATOM     14  OXT UNL     1       1.429   8.250   0.000  0.00  0.00    +0.000 OA
ENDBRANCH  10  12
ENDBRANCH   9  10
ENDBRANCH   3   9
BRANCH   4  15
ATOM     15  N   UNL     1      -1.429   4.950   0.000  0.00  0.00    +0.000 NA
BRANCH  15  16
ATOM     16  N   UNL     1      -2.143   4.537   0.000  0.00  0.00    +0.000 NA
BRANCH  16  21
ATOM     17  C   UNL     1      -2.858   2.475   0.000  0.00  0.00    +0.000 A 
ATOM     18  C   UNL     1      -2.143   2.062   0.000  0.00  0.00    +0.000 A 
ATOM     19  C   UNL     1      -2.858   3.300   0.000  0.00  0.00    +0.000 A 
ATOM     20  C   UNL     1      -1.429   2.475   0.000  0.00  0.00    +0.000 A 
ATOM     21  C   UNL     1      -2.143   3.712   0.000  0.00  0.00    +0.000 A 
ATOM     22  N   UNL     1      -1.429   3.300   0.000  0.00  0.00    +0.000 NA
ENDBRANCH  16  21
ENDBRANCH  15  16
ENDBRANCH   4  15
TORSDOF 6
