REMARK  Name = 
REMARK  15 active torsions:
REMARK  status: ('A' for Active; 'I' for Inactive)
REMARK    1  A    between atoms: C_4  and  O_5
REMARK    2  A    between atoms: O_5  and  C_6
REMARK    3  A    between atoms: C_7  and  C_8
REMARK    4  A    between atoms: C_11  and  O_12
REMARK    5  A    between atoms: O_12  and  C_13
REMARK    6  A    between atoms: C_14  and  C_15
REMARK    7  A    between atoms: C_32  and  N_33
REMARK    8  A    between atoms: N_33  and  C_34
REMARK    9  A    between atoms: C_36  and  C_37
REMARK   10  A    between atoms: C_39  and  O_40
REMARK   11  A    between atoms: O_40  and  C_41
REMARK   12  A    between atoms: C_43  and  C_44
REMARK   13  A    between atoms: C_46  and  O_47
REMARK   14  A    between atoms: O_47  and  C_48
REMARK   15  A    between atoms: C_50  and  C_51
REMARK                            x       y       z     vdW  Elec       q    Type
REMARK                         _______ _______ _______ _____ _____    ______ ____
ROOT
ATOM      1  N   UNL     1      -5.001  -6.188   0.000  0.00  0.00    +0.000 NA
ENDROOT
BRANCH   1  10
ATOM      2  C   UNL     1      -3.572  -5.362   0.000  0.00  0.00    +0.000 C 
ATOM      3  C   UNL     1      -3.572  -6.188   0.000  0.00  0.00    +0.000 C 
ATOM      4  O   UNL     1      -2.858  -6.600   0.000  0.00  0.00    +0.000 OA
ATOM      5  C   UNL     1      -2.858  -7.425   0.000  0.00  0.00    +0.000 C 
ATOM      6  C   UNL     1      -3.572  -7.838   0.000  0.00  0.00    +0.000 C 
ATOM      7  O   UNL     1      -3.572  -8.662   0.000  0.00  0.00    +0.000 OA
ATOM      8  C   UNL     1      -4.287  -7.425   0.000  0.00  0.00    +0.000 C 
ATOM      9  O   UNL     1      -5.001  -7.838   0.000  0.00  0.00    +0.000 OA
ATOM     10  C   UNL     1      -4.287  -6.600   0.000  0.00  0.00    +0.000 C 
BRANCH   5  11
ATOM     11  O   UNL     1      -2.143  -7.838   0.000  0.00  0.00    +0.000 OA
BRANCH  11  12
ATOM     12  C   UNL     1      -1.429  -7.425   0.000  0.00  0.00    +0.000 C 
ATOM     13  C   UNL     1      -0.715  -7.838   0.000  0.00  0.00    +0.000 C 
ATOM     14  O   UNL     1       0.000  -7.425   0.000  0.00  0.00    +0.000 OA
ATOM     15  C   UNL     1       0.000  -6.600   0.000  0.00  0.00    +0.000 C 
ATOM     16  C   UNL     1      -0.715  -6.188   0.000  0.00  0.00    +0.000 C 
ATOM     17  O   UNL     1      -0.715  -5.362   0.000  0.00  0.00    +0.000 OA
ATOM     18  C   UNL     1      -1.429  -6.600   0.000  0.00  0.00    +0.000 C 
ATOM     19  O   UNL     1      -2.143  -6.188   0.000  0.00  0.00    +0.000 OA
BRANCH  13  20
ATOM     20  C   UNL     1      -0.715  -8.662   0.000  0.00  0.00    +0.000 C 
ATOM     21  O   UNL     1      -1.429  -9.075   0.000  0.00  0.00    +0.000 OA
ENDBRANCH  13  20
BRANCH  15  22
ATOM     22  O   UNL     1       0.715  -6.188   0.000  0.00  0.00    +0.000 OA
BRANCH  22  23
ATOM     23  C   UNL     1       1.429  -6.600   0.000  0.00  0.00    +0.000 C 
ATOM     24  C   UNL     1       2.143  -6.188   0.000  0.00  0.00    +0.000 C 
ATOM     25  O   UNL     1       2.858  -6.600   0.000  0.00  0.00    +0.000 OA
ATOM     26  C   UNL     1       2.858  -7.425   0.000  0.00  0.00    +0.000 C 
ATOM     27  O   UNL     1       3.572  -7.838   0.000  0.00  0.00    +0.000 OA
ATOM     28  C   UNL     1       2.143  -7.838   0.000  0.00  0.00    +0.000 C 
ATOM     29  O   UNL     1       2.143  -8.662   0.000  0.00  0.00    +0.000 OA
ATOM     30  C   UNL     1       1.429  -7.425   0.000  0.00  0.00    +0.000 C 
ATOM     31  O   UNL     1       0.715  -7.838   0.000  0.00  0.00    +0.000 OA
BRANCH  24  32
ATOM     32  C   UNL     1       2.143  -5.362   0.000  0.00  0.00    +0.000 C 
ATOM     33  O   UNL     1       2.858  -4.950   0.000  0.00  0.00    +0.000 OA
ENDBRANCH  24  32
ENDBRANCH  22  23
ENDBRANCH  15  22
ENDBRANCH  11  12
ENDBRANCH   5  11
ENDBRANCH   1  10
BRANCH   1  34
ATOM     34  C   UNL     1      -5.716  -6.600   0.000  0.00  0.00    +0.000 C 
ATOM     35  C   UNL     1      -5.716  -7.425   0.000  0.00  0.00    +0.000 C 
ATOM     36  C   UNL     1      -6.430  -7.838   0.000  0.00  0.00    +0.000 C 
ATOM     37  C   UNL     1      -7.145  -7.425   0.000  0.00  0.00    +0.000 C 
ATOM     38  C   UNL     1      -7.145  -6.600   0.000  0.00  0.00    +0.000 C 
ATOM     39  O   UNL     1      -7.859  -6.188   0.000  0.00  0.00    +0.000 OA
ATOM     40  C   UNL     1      -6.430  -6.188   0.000  0.00  0.00    +0.000 C 
ATOM     41  O   UNL     1      -6.430  -5.362   0.000  0.00  0.00    +0.000 OA
BRANCH  36  42
ATOM     42  C   UNL     1      -6.430  -8.662   0.000  0.00  0.00    +0.000 C 
ATOM     43  O   UNL     1      -5.716  -9.075   0.000  0.00  0.00    +0.000 OA
ENDBRANCH  36  42
BRANCH  37  44
ATOM     44  O   UNL     1      -7.859  -7.838   0.000  0.00  0.00    +0.000 OA
BRANCH  44  45
ATOM     45  C   UNL     1      -8.574  -7.425   0.000  0.00  0.00    +0.000 C 
ATOM     46  O   UNL     1      -8.574  -6.600   0.000  0.00  0.00    +0.000 OA
ATOM     47  C   UNL     1      -9.288  -6.188   0.000  0.00  0.00    +0.000 C 
ATOM     48  C   UNL     1     -10.003  -6.600   0.000  0.00  0.00    +0.000 C 
ATOM     49  C   UNL     1     -10.003  -7.425   0.000  0.00  0.00    +0.000 C 
ATOM     50  O   UNL     1     -10.717  -7.838   0.000  0.00  0.00    +0.000 OA
ATOM     51  C   UNL     1      -9.288  -7.838   0.000  0.00  0.00    +0.000 C 
ATOM     52  O   UNL     1      -9.288  -8.662   0.000  0.00  0.00    +0.000 OA
BRANCH  47  53
ATOM     53  C   UNL     1      -9.288  -5.362   0.000  0.00  0.00    +0.000 C 
ATOM     54  O   UNL     1     -10.003  -4.950   0.000  0.00  0.00    +0.000 OA
ENDBRANCH  47  53
BRANCH  48  55
ATOM     55  O   UNL     1     -10.717  -6.188   0.000  0.00  0.00    +0.000 OA
BRANCH  55  56
ATOM     56  C   UNL     1     -11.431  -6.600   0.000  0.00  0.00    +0.000 C 
ATOM     57  O   UNL     1     -11.431  -7.425   0.000  0.00  0.00    +0.000 OA
ATOM     58  C   UNL     1     -12.146  -7.838   0.000  0.00  0.00    +0.000 C 
ATOM     59  C   UNL     1     -12.861  -7.425   0.000  0.00  0.00    +0.000 C 
ATOM     60  O   UNL     1     -13.575  -7.838   0.000  0.00  0.00    +0.000 OA
ATOM     61  C   UNL     1     -12.861  -6.600   0.000  0.00  0.00    +0.000 C 
ATOM     62  O   UNL     1     -13.575  -6.188   0.000  0.00  0.00    +0.000 OA
ATOM     63  C   UNL     1     -12.146  -6.188   0.000  0.00  0.00    +0.000 C 
ATOM     64  O   UNL     1     -12.146  -5.362   0.000  0.00  0.00    +0.000 OA
BRANCH  58  65
ATOM     65  C   UNL     1     -12.146  -8.662   0.000  0.00  0.00    +0.000 C 
ATOM     66  O   UNL     1     -12.861  -9.075   0.000  0.00  0.00    +0.000 OA
ENDBRANCH  58  65
ENDBRANCH  55  56
ENDBRANCH  48  55
ENDBRANCH  44  45
ENDBRANCH  37  44
ENDBRANCH   1  34
TORSDOF 15
