REMARK  Name = 
REMARK  11 active torsions:
REMARK  status: ('A' for Active; 'I' for Inactive)
REMARK    1  A    between atoms: C_3  and  C_42
REMARK    2  A    between atoms: C_5  and  C_7
REMARK    3  A    between atoms: C_10  and  C_12
REMARK    4  A    between atoms: C_12  and  O_13
REMARK    5  A    between atoms: O_13  and  P_14
REMARK    6  A    between atoms: P_14  and  O_17
REMARK    7  A    between atoms: O_17  and  P_18
REMARK    8  A    between atoms: P_18  and  O_21
REMARK    9  A    between atoms: O_21  and  C_22
REMARK   10  A    between atoms: C_22  and  C_23
REMARK   11  A    between atoms: C_26  and  N_28
REMARK                            x       y       z     vdW  Elec       q    Type
REMARK                         _______ _______ _______ _____ _____    ______ ____
ROOT
ATOM      1  O   UNL     1      -3.878  -3.911   0.000  0.00  0.00    +0.000 OA
ENDROOT
BRANCH   1   2
ATOM      2  P   UNL     1      -4.592  -4.324   0.000  0.00  0.00    +0.000 P 
ATOM      3  O   UNL     1      -5.005  -3.609   0.000  0.00  0.00    +0.000 OA
ATOM      4  O   UNL     1      -4.180  -5.038   0.000  0.00  0.00    +0.000 OA
BRANCH   2   5
ATOM      5  O   UNL     1      -5.307  -4.736   0.000  0.00  0.00    +0.000 OA
BRANCH   5   6
ATOM      6  C   UNL     1      -6.021  -4.324   0.000  0.00  0.00    +0.000 C 
BRANCH   6  10
ATOM      7  C   UNL     1      -7.629  -5.728   0.000  0.00  0.00    +0.000 C 
ATOM      8  C   UNL     1      -8.041  -5.014   0.000  0.00  0.00    +0.000 C 
ATOM      9  C   UNL     1      -7.489  -4.401   0.000  0.00  0.00    +0.000 C 
ATOM     10  C   UNL     1      -6.736  -4.736   0.000  0.00  0.00    +0.000 C 
ATOM     11  O   UNL     1      -6.822  -5.557   0.000  0.00  0.00    +0.000 OA
ATOM     12  O   UNL     1      -7.661  -3.594   0.000  0.00  0.00    +0.000 OA
ATOM     13  O   UNL     1      -8.862  -4.928   0.000  0.00  0.00    +0.000 OA
BRANCH   7  18
ATOM     14  C   UNL     1      -7.815  -7.903   0.000  0.00  0.00    +0.000 A 
ATOM     15  C   UNL     1      -8.635  -7.989   0.000  0.00  0.00    +0.000 A 
ATOM     16  C   UNL     1      -9.120  -7.322   0.000  0.00  0.00    +0.000 A 
ATOM     17  N   UNL     1      -8.785  -6.568   0.000  0.00  0.00    +0.000 NA
ATOM     18  C   UNL     1      -7.964  -6.482   0.000  0.00  0.00    +0.000 A 
ATOM     19  C   UNL     1      -7.479  -7.149   0.000  0.00  0.00    +0.000 A 
BRANCH  16  20
ATOM     20  C   UNL     1      -9.941  -7.408   0.000  0.00  0.00    +0.000 C 
ATOM     21  O   UNL     1     -10.426  -6.741   0.000  0.00  0.00    +0.000 OA
ATOM     22  N   UNL     1     -10.276  -8.162   0.000  0.00  0.00    +0.000 NA
ENDBRANCH  16  20
ENDBRANCH   7  18
ENDBRANCH   6  10
ENDBRANCH   5   6
ENDBRANCH   2   5
ENDBRANCH   1   2
BRANCH   1  23
ATOM     23  P   UNL     1      -3.163  -4.324   0.000  0.00  0.00    +0.000 P 
ATOM     24  O   UNL     1      -3.576  -5.038   0.000  0.00  0.00    +0.000 OA
ATOM     25  O   UNL     1      -2.751  -3.609   0.000  0.00  0.00    +0.000 OA
BRANCH  23  26
ATOM     26  O   UNL     1      -2.449  -4.736   0.000  0.00  0.00    +0.000 OA
BRANCH  26  27
ATOM     27  C   UNL     1      -1.734  -4.324   0.000  0.00  0.00    +0.000 C 
BRANCH  27  28
ATOM     28  C   UNL     1      -1.020  -4.736   0.000  0.00  0.00    +0.000 C 
ATOM     29  C   UNL     1      -0.266  -4.401   0.000  0.00  0.00    +0.000 C 
ATOM     30  C   UNL     1       0.286  -5.014   0.000  0.00  0.00    +0.000 C 
ATOM     31  C   UNL     1      -0.127  -5.728   0.000  0.00  0.00    +0.000 C 
ATOM     32  O   UNL     1      -0.933  -5.557   0.000  0.00  0.00    +0.000 OA
ATOM     33  O   UNL     1       1.106  -4.928   0.000  0.00  0.00    +0.000 OA
ATOM     34  O   UNL     1      -0.095  -3.594   0.000  0.00  0.00    +0.000 OA
BRANCH  31  35
ATOM     35  N   UNL     1       0.209  -6.482   0.000  0.00  0.00    +0.000 N 
ATOM     36  C   UNL     1      -0.203  -7.196   0.000  0.00  0.00    +0.000 A 
ATOM     37  N   UNL     1       0.349  -7.809   0.000  0.00  0.00    +0.000 NA
ATOM     38  C   UNL     1       1.102  -7.474   0.000  0.00  0.00    +0.000 A 
ATOM     39  C   UNL     1       1.016  -6.653   0.000  0.00  0.00    +0.000 A 
ATOM     40  N   UNL     1       1.683  -6.168   0.000  0.00  0.00    +0.000 NA
ATOM     41  C   UNL     1       2.437  -6.504   0.000  0.00  0.00    +0.000 A 
ATOM     42  N   UNL     1       2.523  -7.324   0.000  0.00  0.00    +0.000 NA
ATOM     43  C   UNL     1       1.856  -7.809   0.000  0.00  0.00    +0.000 A 
ATOM     44  N   UNL     1       1.942  -8.630   0.000  0.00  0.00    +0.000 NA
ENDBRANCH  31  35
ENDBRANCH  27  28
ENDBRANCH  26  27
ENDBRANCH  23  26
ENDBRANCH   1  23
TORSDOF 11
