REMARK  Name = 
REMARK  5 active torsions:
REMARK  status: ('A' for Active; 'I' for Inactive)
REMARK    1  A    between atoms: C_16  and  C_18
REMARK    2  A    between atoms: C_16  and  C_22
REMARK    3  A    between atoms: C_17  and  N_24
REMARK    4  A    between atoms: C_20  and  N_25
REMARK    5  A    between atoms: C_21  and  N_25
REMARK                            x       y       z     vdW  Elec       q    Type
REMARK                         _______ _______ _______ _____ _____    ______ ____
ROOT
ATOM      1  C   UNL     1      -2.143   6.188   0.000  0.00  0.00    +0.000 C 
ATOM      2  N   UNL     1      -2.143   7.013   0.000  0.00  0.00    +0.000 N 
ATOM      3  O   UNL     1      -2.858   5.775   0.000  0.00  0.00    +0.000 OA
ENDROOT
BRANCH   2   9
ATOM      4  C   UNL     1      -0.715   8.662   0.000  0.00  0.00    +0.000 A 
ATOM      5  C   UNL     1       0.000   7.425   0.000  0.00  0.00    +0.000 A 
ATOM      6  C   UNL     1      -1.429   8.250   0.000  0.00  0.00    +0.000 A 
ATOM      7  C   UNL     1      -0.715   7.013   0.000  0.00  0.00    +0.000 A 
ATOM      8  C   UNL     1       0.000   8.250   0.000  0.00  0.00    +0.000 A 
ATOM      9  C   UNL     1      -1.429   7.425   0.000  0.00  0.00    +0.000 A 
ATOM     10 CL   UNL     1       0.715   8.662   0.000  0.00  0.00    +0.000 Cl
ENDBRANCH   2   9
BRANCH   2  15
ATOM     11  C   UNL     1      -2.858   8.250   0.000  0.00  0.00    +0.000 C 
ATOM     12  C   UNL     1      -3.572   7.013   0.000  0.00  0.00    +0.000 C 
ATOM     13  C   UNL     1      -3.572   8.662   0.000  0.00  0.00    +0.000 C 
ATOM     14  C   UNL     1      -4.287   7.425   0.000  0.00  0.00    +0.000 C 
ATOM     15  C   UNL     1      -2.858   7.425   0.000  0.00  0.00    +0.000 C 
ATOM     16  N   UNL     1      -4.287   8.250   0.000  0.00  0.00    +0.000 NA
BRANCH  16  19
ATOM     17  C   UNL     1      -5.716   8.250   0.000  0.00  0.00    +0.000 C 
ATOM     18  C   UNL     1      -5.001   9.488   0.000  0.00  0.00    +0.000 C 
ATOM     19  C   UNL     1      -5.001   8.662   0.000  0.00  0.00    +0.000 C 
ENDBRANCH  16  19
ENDBRANCH   2  15
BRANCH   1  20
ATOM     20  C   UNL     1      -1.429   5.775   0.000  0.00  0.00    +0.000 C 
BRANCH  20  26
ATOM     21  C   UNL     1      -1.429   3.300   0.000  0.00  0.00    +0.000 A 
ATOM     22  C   UNL     1      -0.715   3.712   0.000  0.00  0.00    +0.000 A 
ATOM     23  C   UNL     1      -2.143   3.712   0.000  0.00  0.00    +0.000 A 
ATOM     24  C   UNL     1      -0.715   4.537   0.000  0.00  0.00    +0.000 A 
ATOM     25  C   UNL     1      -2.143   4.537   0.000  0.00  0.00    +0.000 A 
ATOM     26  C   UNL     1      -1.429   4.950   0.000  0.00  0.00    +0.000 A 
ENDBRANCH  20  26
ENDBRANCH   1  20
TORSDOF 5
