REMARK  Name = 
REMARK  1 active torsions:
REMARK  status: ('A' for Active; 'I' for Inactive)
REMARK    1  A    between atoms: C_1  and  C_4
REMARK                            x       y       z     vdW  Elec       q    Type
REMARK                         _______ _______ _______ _____ _____    ______ ____
ROOT
ATOM      1  C   UNL     1      -0.439   0.381   0.000  0.00  0.00    +0.000 C 
ATOM      2  C   UNL     1      -0.439  -0.446   0.000  0.00  0.00    +0.000 C 
ATOM      3  O   UNL     1       0.278   0.793   0.000  0.00  0.00    +0.000 OA
ATOM      4  C   UNL     1       0.278  -0.854   0.000  0.00  0.00    +0.000 C 
ATOM      5  O   UNL     1      -1.149  -0.858   0.000  0.00  0.00    +0.000 OA
ATOM      6  C   UNL     1       0.988   0.381   0.000  0.00  0.00    +0.000 C 
ATOM      7  C   UNL     1       0.988  -0.446   0.000  0.00  0.00    +0.000 C 
ATOM      8  O   UNL     1       0.278  -1.678   0.000  0.00  0.00    +0.000 OA
ATOM      9  O   UNL     1       1.702   0.789   0.000  0.00  0.00    +0.000 OA
ATOM     10  O   UNL     1       1.698  -0.858   0.000  0.00  0.00    +0.000 OA
ENDROOT
BRANCH   1  11
ATOM     11  C   UNL     1      -1.156   0.796   0.000  0.00  0.00    +0.000 C 
ATOM     12  O   UNL     1      -1.866   0.384   0.000  0.00  0.00    +0.000 OA
ATOM     13  O   UNL     1      -1.153   1.616   0.000  0.00  0.00    +0.000 OA
ENDBRANCH   1  11
TORSDOF 1
