REMARK  Name = 
REMARK  4 active torsions:
REMARK  status: ('A' for Active; 'I' for Inactive)
REMARK    1  A    between atoms: C_2  and  N_3
REMARK    2  A    between atoms: C_2  and  C_16
REMARK    3  A    between atoms: C_16  and  C_17
REMARK    4  A    between atoms: C_16  and  C_23
REMARK                            x       y       z     vdW  Elec       q    Type
REMARK                         _______ _______ _______ _____ _____    ______ ____
ROOT
ATOM      1  C   UNL     1       1.429   0.825   0.000  0.00  0.00    +0.000 C 
ATOM      2  C   UNL     1       0.715   1.238   0.000  0.00  0.00    +0.000 C 
ENDROOT
BRANCH   2   3
ATOM      3  N   UNL     1       0.000   0.825   0.000  0.00  0.00    +0.000 NA
ATOM      4  C   UNL     1       0.000   0.000   0.000  0.00  0.00    +0.000 A 
ATOM      5  N   UNL     1      -0.715  -0.412   0.000  0.00  0.00    +0.000 NA
ATOM      6  C   UNL     1      -0.715  -1.238   0.000  0.00  0.00    +0.000 A 
ATOM      7  N   UNL     1       0.000  -1.650   0.000  0.00  0.00    +0.000 NA
ATOM      8  C   UNL     1       0.715  -1.238   0.000  0.00  0.00    +0.000 A 
ATOM      9  C   UNL     1       0.715  -0.412   0.000  0.00  0.00    +0.000 A 
ATOM     10  C   UNL     1       1.429   0.000   0.000  0.00  0.00    +0.000 A 
ATOM     11  C   UNL     1       2.143  -0.412   0.000  0.00  0.00    +0.000 A 
ATOM     12  F   UNL     1       2.858   0.000   0.000  0.00  0.00    +0.000 F 
ATOM     13  C   UNL     1       2.143  -1.238   0.000  0.00  0.00    +0.000 A 
ATOM     14  F   UNL     1       2.858  -1.650   0.000  0.00  0.00    +0.000 F 
ATOM     15  C   UNL     1       1.429  -1.650   0.000  0.00  0.00    +0.000 A 
ENDBRANCH   2   3
BRANCH   2  16
ATOM     16  C   UNL     1       0.715   2.062   0.000  0.00  0.00    +0.000 C 
BRANCH  16  17
ATOM     17  C   UNL     1       1.429   2.475   0.000  0.00  0.00    +0.000 A 
ATOM     18  C   UNL     1       1.429   3.300   0.000  0.00  0.00    +0.000 A 
ATOM     19  C   UNL     1       2.143   3.712   0.000  0.00  0.00    +0.000 A 
ATOM     20  C   UNL     1       2.858   3.300   0.000  0.00  0.00    +0.000 A 
ATOM     21  C   UNL     1       2.858   2.475   0.000  0.00  0.00    +0.000 A 
ATOM     22  C   UNL     1       2.143   2.062   0.000  0.00  0.00    +0.000 A 
ENDBRANCH  16  17
BRANCH  16  23
ATOM     23  C   UNL     1       0.000   2.475   0.000  0.00  0.00    +0.000 A 
ATOM     24  C   UNL     1      -0.715   2.062   0.000  0.00  0.00    +0.000 A 
ATOM     25  C   UNL     1      -1.429   2.475   0.000  0.00  0.00    +0.000 A 
ATOM     26  C   UNL     1      -1.429   3.300   0.000  0.00  0.00    +0.000 A 
ATOM     27  C   UNL     1      -0.715   3.712   0.000  0.00  0.00    +0.000 A 
ATOM     28  C   UNL     1       0.000   3.300   0.000  0.00  0.00    +0.000 A 
ENDBRANCH  16  23
ENDBRANCH   2  16
TORSDOF 4
