REMARK  Name = 
REMARK  11 active torsions:
REMARK  status: ('A' for Active; 'I' for Inactive)
REMARK    1  A    between atoms: C_5  and  C_8
REMARK    2  A    between atoms: C_5  and  C_12
REMARK    3  A    between atoms: C_6  and  C_9
REMARK    4  A    between atoms: C_6  and  C_11
REMARK    5  A    between atoms: C_7  and  C_10
REMARK    6  A    between atoms: C_7  and  C_13
REMARK    7  A    between atoms: C_9  and  O_20
REMARK    8  A    between atoms: C_10  and  O_19
REMARK    9  A    between atoms: C_11  and  O_18
REMARK   10  A    between atoms: C_12  and  O_19
REMARK   11  A    between atoms: C_13  and  O_20
REMARK                            x       y       z     vdW  Elec       q    Type
REMARK                         _______ _______ _______ _____ _____    ______ ____
ROOT
ATOM      1  C   UNL     1       6.570   2.143   0.000  0.00  0.00    +0.000 C 
ENDROOT
BRANCH   1   3
ATOM      2  C   UNL     1       5.856   3.381   0.000  0.00  0.00    +0.000 C 
ATOM      3  C   UNL     1       5.856   2.556   0.000  0.00  0.00    +0.000 C 
BRANCH   3   4
ATOM      4  O   UNL     1       5.141   2.143   0.000  0.00  0.00    +0.000 OA
BRANCH   4   5
ATOM      5  C   UNL     1       4.427   2.556   0.000  0.00  0.00    +0.000 C 
ATOM      6  O   UNL     1       4.427   3.381   0.000  0.00  0.00    +0.000 OA
BRANCH   5   7
ATOM      7  C   UNL     1       3.712   2.143   0.000  0.00  0.00    +0.000 C 
BRANCH   7   9
ATOM      8  C   UNL     1       2.284   2.143   0.000  0.00  0.00    +0.000 C 
ATOM      9  C   UNL     1       2.998   2.556   0.000  0.00  0.00    +0.000 C 
ATOM     10  O   UNL     1       2.998   3.381   0.000  0.00  0.00    +0.000 OA
ENDBRANCH   7   9
ENDBRANCH   5   7
ENDBRANCH   4   5
ENDBRANCH   3   4
ENDBRANCH   1   3
BRANCH   1  11
ATOM     11  C   UNL     1       7.285   2.556   0.000  0.00  0.00    +0.000 C 
ATOM     12  O   UNL     1       7.285   3.381   0.000  0.00  0.00    +0.000 OA
BRANCH  11  13
ATOM     13  O   UNL     1       7.999   2.143   0.000  0.00  0.00    +0.000 OA
BRANCH  13  15
ATOM     14  C   UNL     1       8.714   3.381   0.000  0.00  0.00    +0.000 C 
ATOM     15  C   UNL     1       8.714   2.556   0.000  0.00  0.00    +0.000 C 
BRANCH  15  16
ATOM     16  C   UNL     1       9.428   2.143   0.000  0.00  0.00    +0.000 C 
BRANCH  16  17
ATOM     17  C   UNL     1      10.143   2.556   0.000  0.00  0.00    +0.000 C 
ATOM     18  O   UNL     1      10.143   3.381   0.000  0.00  0.00    +0.000 OA
BRANCH  17  20
ATOM     19  C   UNL     1      11.572   2.556   0.000  0.00  0.00    +0.000 C 
ATOM     20  O   UNL     1      10.857   2.143   0.000  0.00  0.00    +0.000 OA
ENDBRANCH  17  20
ENDBRANCH  16  17
ENDBRANCH  15  16
ENDBRANCH  13  15
ENDBRANCH  11  13
ENDBRANCH   1  11
TORSDOF 11
