REMARK  Name = 
REMARK  1 active torsions:
REMARK  status: ('A' for Active; 'I' for Inactive)
REMARK    1  A    between atoms: C_9  and  C_14
REMARK                            x       y       z     vdW  Elec       q    Type
REMARK                         _______ _______ _______ _____ _____    ______ ____
ROOT
ATOM      1  C   UNL     1       1.710  -2.405   0.000  0.00  0.00    +0.000 C 
ATOM      2  C   UNL     1       3.986  -0.589   0.000  0.00  0.00    +0.000 A 
ATOM      3  C   UNL     1       1.544   0.505   0.000  0.00  0.00    +0.000 C 
ATOM      4  C   UNL     1       1.420  -1.633   0.000  0.00  0.00    +0.000 A 
ATOM      5  C   UNL     1       3.214  -0.300   0.000  0.00  0.00    +0.000 A 
ATOM      6  C   UNL     1       3.949  -1.414   0.000  0.00  0.00    +0.000 A 
ATOM      7  C   UNL     1       1.360  -0.300   0.000  0.00  0.00    +0.000 A 
ATOM      8  C   UNL     1       3.030   0.505   0.000  0.00  0.00    +0.000 C 
ATOM      9  C   UNL     1       2.700  -0.945   0.000  0.00  0.00    +0.000 A 
ATOM     10 BR   UNL     1       4.594  -1.928   0.000  0.00  0.00    +0.000 Br
ATOM     11  N   UNL     1       2.287   0.863   0.000  0.00  0.00    +0.000 NA
ATOM     12  N   UNL     1       0.625  -1.414   0.000  0.00  0.00    +0.000 NA
ATOM     13  N   UNL     1       0.588  -0.589   0.000  0.00  0.00    +0.000 NA
ATOM     14  N   UNL     1       1.875  -0.945   0.000  0.00  0.00    +0.000 N 
ATOM     15  S   UNL     1       3.154  -1.633   0.000  0.00  0.00    +0.000 S 
ENDROOT
BRANCH   8  20
ATOM     16  C   UNL     1       5.088   1.232   0.000  0.00  0.00    +0.000 A 
ATOM     17  C   UNL     1       4.965   2.048   0.000  0.00  0.00    +0.000 A 
ATOM     18  C   UNL     1       4.443   0.718   0.000  0.00  0.00    +0.000 A 
ATOM     19  C   UNL     1       4.197   2.349   0.000  0.00  0.00    +0.000 A 
ATOM     20  C   UNL     1       3.675   1.019   0.000  0.00  0.00    +0.000 A 
ATOM     21  C   UNL     1       3.552   1.835   0.000  0.00  0.00    +0.000 A 
ATOM     22 CL   UNL     1       2.784   2.136   0.000  0.00  0.00    +0.000 Cl
ENDBRANCH   8  20
TORSDOF 1
