REMARK  Name = 
REMARK  3 active torsions:
REMARK  status: ('A' for Active; 'I' for Inactive)
REMARK    1  A    between atoms: C_2  and  C_3
REMARK    2  A    between atoms: C_3  and  C_4
REMARK    3  A    between atoms: C_4  and  C_5
REMARK                            x       y       z     vdW  Elec       q    Type
REMARK                         _______ _______ _______ _____ _____    ______ ____
ROOT
ATOM      1  C   UNL     1       6.670  -8.535   0.000  0.00  0.00    +0.000 C 
ATOM      2  O   UNL     1       6.670  -9.360   0.000  0.00  0.00    +0.000 OA
ENDROOT
BRANCH   1   4
ATOM      3  S   UNL     1       5.241  -8.535   0.000  0.00  0.00    +0.000 S 
ATOM      4  C   UNL     1       5.955  -8.122   0.000  0.00  0.00    +0.000 C 
ENDBRANCH   1   4
BRANCH   1   5
ATOM      5  C   UNL     1       7.384  -8.122   0.000  0.00  0.00    +0.000 C 
ATOM      6  O   UNL     1       7.384  -7.297   0.000  0.00  0.00    +0.000 OA
BRANCH   5   7
ATOM      7  C   UNL     1       8.099  -8.535   0.000  0.00  0.00    +0.000 C 
ATOM      8  S   UNL     1       8.813  -8.122   0.000  0.00  0.00    +0.000 S 
ENDBRANCH   5   7
ENDBRANCH   1   5
TORSDOF 3
