REMARK  Name = 
REMARK  6 active torsions:
REMARK  status: ('A' for Active; 'I' for Inactive)
REMARK    1  A    between atoms: N_2  and  C_3
REMARK    2  A    between atoms: C_6  and  C_9
REMARK    3  A    between atoms: C_12  and  C_13
REMARK    4  A    between atoms: C_13  and  N_14
REMARK    5  A    between atoms: C_22  and  O_24
REMARK    6  A    between atoms: O_24  and  C_25
REMARK                            x       y       z     vdW  Elec       q    Type
REMARK                         _______ _______ _______ _____ _____    ______ ____
ROOT
ATOM      1  C   UNL     1       2.858  -2.475   0.000  0.00  0.00    +0.000 C 
ATOM      2  C   UNL     1       3.572  -2.888   0.000  0.00  0.00    +0.000 C 
ATOM      3  C   UNL     1       3.572  -3.712   0.000  0.00  0.00    +0.000 C 
ATOM      4  C   UNL     1       2.858  -4.125   0.000  0.00  0.00    +0.000 C 
ATOM      5  C   UNL     1       2.143  -3.712   0.000  0.00  0.00    +0.000 C 
ATOM      6  C   UNL     1       2.143  -2.888   0.000  0.00  0.00    +0.000 C 
ENDROOT
BRANCH   4   7
ATOM      7  C   UNL     1       2.858  -4.950   0.000  0.00  0.00    +0.000 A 
ATOM      8  C   UNL     1       3.572  -5.362   0.000  0.00  0.00    +0.000 A 
ATOM      9  C   UNL     1       3.572  -6.188   0.000  0.00  0.00    +0.000 A 
ATOM     10  C   UNL     1       2.858  -6.600   0.000  0.00  0.00    +0.000 A 
ATOM     11  C   UNL     1       2.143  -6.188   0.000  0.00  0.00    +0.000 A 
ATOM     12  C   UNL     1       2.143  -5.362   0.000  0.00  0.00    +0.000 A 
BRANCH  10  13
ATOM     13  C   UNL     1       2.858  -7.425   0.000  0.00  0.00    +0.000 C 
BRANCH  13  14
ATOM     14  N   UNL     1       2.143  -7.838   0.000  0.00  0.00    +0.000 NA
ATOM     15  C   UNL     1       2.143  -8.662   0.000  0.00  0.00    +0.000 C 
ATOM     16  C   UNL     1       1.429  -9.075   0.000  0.00  0.00    +0.000 C 
ATOM     17  C   UNL     1       0.715  -8.662   0.000  0.00  0.00    +0.000 C 
ATOM     18  C   UNL     1       0.715  -7.838   0.000  0.00  0.00    +0.000 C 
ATOM     19  C   UNL     1       1.429  -7.425   0.000  0.00  0.00    +0.000 C 
ENDBRANCH  13  14
ENDBRANCH  10  13
ENDBRANCH   4   7
BRANCH   1  21
ATOM     20  C   UNL     1       2.143  -1.238   0.000  0.00  0.00    +0.000 C 
ATOM     21  N   UNL     1       2.858  -1.650   0.000  0.00  0.00    +0.000 N 
ATOM     22  C   UNL     1       3.572  -1.238   0.000  0.00  0.00    +0.000 C 
ATOM     23  O   UNL     1       4.287  -1.650   0.000  0.00  0.00    +0.000 OA
BRANCH  22  24
ATOM     24  O   UNL     1       3.572  -0.412   0.000  0.00  0.00    +0.000 OA
BRANCH  24  25
ATOM     25  C   UNL     1       4.287   0.000   0.000  0.00  0.00    +0.000 A 
ATOM     26  C   UNL     1       4.287   0.825   0.000  0.00  0.00    +0.000 A 
ATOM     27  C   UNL     1       5.001   1.238   0.000  0.00  0.00    +0.000 A 
ATOM     28  C   UNL     1       5.716   0.825   0.000  0.00  0.00    +0.000 A 
ATOM     29 CL   UNL     1       6.430   1.238   0.000  0.00  0.00    +0.000 Cl
ATOM     30  C   UNL     1       5.716   0.000   0.000  0.00  0.00    +0.000 A 
ATOM     31  C   UNL     1       5.001  -0.412   0.000  0.00  0.00    +0.000 A 
ENDBRANCH  24  25
ENDBRANCH  22  24
ENDBRANCH   1  21
TORSDOF 6
