REMARK  Name = 
REMARK  6 active torsions:
REMARK  status: ('A' for Active; 'I' for Inactive)
REMARK    1  A    between atoms: N_2  and  C_3
REMARK    2  A    between atoms: C_8  and  O_9
REMARK    3  A    between atoms: O_9  and  C_10
REMARK    4  A    between atoms: C_25  and  O_26
REMARK    5  A    between atoms: O_26  and  C_27
REMARK    6  A    between atoms: C_29  and  C_30
REMARK                            x       y       z     vdW  Elec       q    Type
REMARK                         _______ _______ _______ _____ _____    ______ ____
ROOT
ATOM      1  C   UNL     1       0.715  -0.412   0.000  0.00  0.00    +0.000 C 
ATOM      2  C   UNL     1       1.429   0.000   0.000  0.00  0.00    +0.000 C 
ATOM      3  O   UNL     1       1.429   0.825   0.000  0.00  0.00    +0.000 OA
ATOM      4  C   UNL     1       2.143  -0.412   0.000  0.00  0.00    +0.000 C 
ATOM      5  O   UNL     1       2.858   0.000   0.000  0.00  0.00    +0.000 OA
ATOM      6  C   UNL     1       3.572  -0.412   0.000  0.00  0.00    +0.000 C 
ATOM      7  C   UNL     1       3.572  -1.238   0.000  0.00  0.00    +0.000 C 
ATOM      8  N   UNL     1       4.287  -1.650   0.000  0.00  0.00    +0.000 NA
ATOM      9  C   UNL     1       2.858  -1.650   0.000  0.00  0.00    +0.000 C 
ATOM     10  C   UNL     1       2.143  -1.238   0.000  0.00  0.00    +0.000 C 
ATOM     11  O   UNL     1       1.429  -1.650   0.000  0.00  0.00    +0.000 OA
ATOM     12  C   UNL     1       0.715  -1.238   0.000  0.00  0.00    +0.000 C 
ENDROOT
BRANCH   1  14
ATOM     13  C   UNL     1       0.000   0.825   0.000  0.00  0.00    +0.000 C 
ATOM     14  N   UNL     1       0.000   0.000   0.000  0.00  0.00    +0.000 NA
ENDBRANCH   1  14
BRANCH  12  15
ATOM     15  O   UNL     1       0.000  -1.650   0.000  0.00  0.00    +0.000 OA
BRANCH  15  16
ATOM     16  C   UNL     1      -0.715  -1.238   0.000  0.00  0.00    +0.000 C 
ATOM     17  O   UNL     1      -0.715  -0.412   0.000  0.00  0.00    +0.000 OA
ATOM     18  C   UNL     1      -1.429   0.000   0.000  0.00  0.00    +0.000 C 
ATOM     19  C   UNL     1      -2.143  -0.412   0.000  0.00  0.00    +0.000 C 
ATOM     20  N   UNL     1      -2.858   0.000   0.000  0.00  0.00    +0.000 NA
ATOM     21  C   UNL     1      -2.143  -1.238   0.000  0.00  0.00    +0.000 C 
ATOM     22  O   UNL     1      -2.858  -1.650   0.000  0.00  0.00    +0.000 OA
ATOM     23  C   UNL     1      -1.429  -1.650   0.000  0.00  0.00    +0.000 C 
ATOM     24  O   UNL     1      -1.429  -2.475   0.000  0.00  0.00    +0.000 OA
BRANCH  18  25
ATOM     25  C   UNL     1      -1.429   0.825   0.000  0.00  0.00    +0.000 C 
ATOM     26  O   UNL     1      -0.715   1.238   0.000  0.00  0.00    +0.000 OA
ENDBRANCH  18  25
ENDBRANCH  15  16
ENDBRANCH  12  15
BRANCH   6  27
ATOM     27  O   UNL     1       4.287   0.000   0.000  0.00  0.00    +0.000 OA
BRANCH  27  28
ATOM     28  C   UNL     1       4.287   0.825   0.000  0.00  0.00    +0.000 C 
ATOM     29  C   UNL     1       5.001   1.238   0.000  0.00  0.00    +0.000 C 
ATOM     30  N   UNL     1       5.716   0.825   0.000  0.00  0.00    +0.000 NA
ATOM     31  C   UNL     1       5.001   2.062   0.000  0.00  0.00    +0.000 C 
ATOM     32  C   UNL     1       4.287   2.475   0.000  0.00  0.00    +0.000 C 
ATOM     33  N   UNL     1       4.287   3.300   0.000  0.00  0.00    +0.000 NA
ATOM     34  C   UNL     1       3.572   2.062   0.000  0.00  0.00    +0.000 C 
ATOM     35  O   UNL     1       2.858   2.475   0.000  0.00  0.00    +0.000 OA
ATOM     36  C   UNL     1       3.572   1.238   0.000  0.00  0.00    +0.000 C 
ATOM     37  O   UNL     1       2.858   0.825   0.000  0.00  0.00    +0.000 OA
ENDBRANCH  27  28
ENDBRANCH   6  27
TORSDOF 6
