REMARK  Name = 
REMARK  10 active torsions:
REMARK  status: ('A' for Active; 'I' for Inactive)
REMARK    1  A    between atoms: C_2  and  O_35
REMARK    2  A    between atoms: C_15  and  C_16
REMARK    3  A    between atoms: C_15  and  C_21
REMARK    4  A    between atoms: C_16  and  N_29
REMARK    5  A    between atoms: C_17  and  C_21
REMARK    6  A    between atoms: C_17  and  C_25
REMARK    7  A    between atoms: C_18  and  C_19
REMARK    8  A    between atoms: C_20  and  C_25
REMARK    9  A    between atoms: C_21  and  C_28
REMARK   10  A    between atoms: C_22  and  O_35
REMARK                            x       y       z     vdW  Elec       q    Type
REMARK                         _______ _______ _______ _____ _____    ______ ____
ROOT
ATOM      1  C   UNL     1       4.262   2.433   0.000  0.00  0.00    +0.000 C 
ENDROOT
BRANCH   1   2
ATOM      2  C   UNL     1       4.977   2.845   0.000  0.00  0.00    +0.000 C 
ATOM      3  O   UNL     1       4.977   3.670   0.000  0.00  0.00    +0.000 OA
BRANCH   2   9
ATOM      4  C   UNL     1       7.120   2.433   0.000  0.00  0.00    +0.000 A 
ATOM      5  C   UNL     1       6.406   1.195   0.000  0.00  0.00    +0.000 A 
ATOM      6  C   UNL     1       6.406   2.845   0.000  0.00  0.00    +0.000 A 
ATOM      7  C   UNL     1       5.691   1.608   0.000  0.00  0.00    +0.000 A 
ATOM      8  C   UNL     1       7.120   1.608   0.000  0.00  0.00    +0.000 A 
ATOM      9  C   UNL     1       5.691   2.433   0.000  0.00  0.00    +0.000 A 
BRANCH   8  14
ATOM     10  C   UNL     1       7.835   0.370   0.000  0.00  0.00    +0.000 A 
ATOM     11  C   UNL     1       8.549   1.608   0.000  0.00  0.00    +0.000 A 
ATOM     12  C   UNL     1       8.549  -0.042   0.000  0.00  0.00    +0.000 A 
ATOM     13  C   UNL     1       9.264   1.195   0.000  0.00  0.00    +0.000 A 
ATOM     14  C   UNL     1       7.835   1.195   0.000  0.00  0.00    +0.000 A 
ATOM     15  C   UNL     1       9.264   0.370   0.000  0.00  0.00    +0.000 A 
BRANCH  15  16
ATOM     16  O   UNL     1       9.978  -0.042   0.000  0.00  0.00    +0.000 OA
BRANCH  16  18
ATOM     17  C   UNL     1      11.407  -0.042   0.000  0.00  0.00    +0.000 C 
ATOM     18  C   UNL     1      10.693   0.370   0.000  0.00  0.00    +0.000 C 
ENDBRANCH  16  18
ENDBRANCH  15  16
ENDBRANCH   8  14
ENDBRANCH   2   9
ENDBRANCH   1   2
BRANCH   1  19
ATOM     19  C   UNL     1       3.548   2.845   0.000  0.00  0.00    +0.000 C 
BRANCH  19  20
ATOM     20  C   UNL     1       3.548   3.670   0.000  0.00  0.00    +0.000 C 
ATOM     21  O   UNL     1       4.262   4.083   0.000  0.00  0.00    +0.000 OA
ATOM     22  O   UNL     1       2.833   4.083   0.000  0.00  0.00    +0.000 OA
ENDBRANCH  19  20
BRANCH  19  23
ATOM     23  C   UNL     1       2.833   2.433   0.000  0.00  0.00    +0.000 C 
BRANCH  23  24
ATOM     24  C   UNL     1       2.119   2.845   0.000  0.00  0.00    +0.000 C 
BRANCH  24  33
ATOM     25  C   UNL     1      -1.139   1.441   0.000  0.00  0.00    +0.000 A 
ATOM     26  C   UNL     1      -0.726   0.726   0.000  0.00  0.00    +0.000 A 
ATOM     27  C   UNL     1      -0.726   2.155   0.000  0.00  0.00    +0.000 A 
ATOM     28  C   UNL     1       0.099   0.726   0.000  0.00  0.00    +0.000 A 
ATOM     29  C   UNL     1       0.099   2.155   0.000  0.00  0.00    +0.000 A 
ATOM     30  C   UNL     1       0.511   1.441   0.000  0.00  0.00    +0.000 A 
ATOM     31  C   UNL     1       0.651   2.768   0.000  0.00  0.00    +0.000 C 
ATOM     32  C   UNL     1       1.318   1.612   0.000  0.00  0.00    +0.000 C 
ATOM     33  N   UNL     1       1.405   2.433   0.000  0.00  0.00    +0.000 N 
ATOM     34  O   UNL     1       0.479   3.575   0.000  0.00  0.00    +0.000 OA
ATOM     35  O   UNL     1       1.931   1.060   0.000  0.00  0.00    +0.000 OA
ENDBRANCH  24  33
ENDBRANCH  23  24
ENDBRANCH  19  23
ENDBRANCH   1  19
TORSDOF 10
