REMARK  Name = 
REMARK  5 active torsions:
REMARK  status: ('A' for Active; 'I' for Inactive)
REMARK    1  A    between atoms: C_5  and  O_13
REMARK    2  A    between atoms: S_7  and  N_8
REMARK    3  A    between atoms: S_7  and  C_21
REMARK    4  A    between atoms: C_17  and  O_18
REMARK    5  A    between atoms: C_17  and  C_22
REMARK                            x       y       z     vdW  Elec       q    Type
REMARK                         _______ _______ _______ _____ _____    ______ ____
ROOT
ATOM      1  C   UNL     1      17.597 -11.735   0.000  0.00  0.00    +0.000 A 
ATOM      2  N   UNL     1      17.593 -12.561   0.000  0.00  0.00    +0.000 NA
ATOM      3  C   UNL     1      18.307 -12.980   0.000  0.00  0.00    +0.000 A 
ATOM      4  N   UNL     1      19.025 -12.568   0.000  0.00  0.00    +0.000 NA
ATOM      5  C   UNL     1      19.030 -11.742   0.000  0.00  0.00    +0.000 A 
ATOM      6  N   UNL     1      18.315 -11.327   0.000  0.00  0.00    +0.000 NA
ATOM      7  N   UNL     1      15.457 -11.325   0.000  0.00  0.00    +0.000 NA
ATOM      8  C   UNL     1      16.168 -11.735   0.000  0.00  0.00    +0.000 C 
ATOM      9  N   UNL     1      16.883 -11.323   0.000  0.00  0.00    +0.000 N 
ATOM     10  O   UNL     1      16.164 -12.561   0.000  0.00  0.00    +0.000 OA
ATOM     11  C   UNL     1      18.299 -13.803   0.000  0.00  0.00    +0.000 C 
ATOM     12  C   UNL     1      16.878 -10.538   0.000  0.00  0.00    +0.000 C 
ENDROOT
BRANCH   7  13
ATOM     13  S   UNL     1      14.744 -11.733   0.000  0.00  0.00    +0.000 S 
ATOM     14  O   UNL     1      14.150 -12.357   0.000  0.00  0.00    +0.000 OA
ATOM     15  O   UNL     1      15.321 -12.399   0.000  0.00  0.00    +0.000 OA
BRANCH  13  16
ATOM     16  C   UNL     1      14.034 -11.321   0.000  0.00  0.00    +0.000 A 
ATOM     17  C   UNL     1      14.029 -10.495   0.000  0.00  0.00    +0.000 A 
ATOM     18  C   UNL     1      13.311 -10.085   0.000  0.00  0.00    +0.000 A 
ATOM     19  C   UNL     1      12.639 -10.504   0.000  0.00  0.00    +0.000 A 
ATOM     20  C   UNL     1      12.603 -11.329   0.000  0.00  0.00    +0.000 A 
ATOM     21  C   UNL     1      13.321 -11.736   0.000  0.00  0.00    +0.000 A 
BRANCH  17  22
ATOM     22  C   UNL     1      14.739 -10.077   0.000  0.00  0.00    +0.000 C 
ATOM     23  O   UNL     1      14.736  -9.251   0.000  0.00  0.00    +0.000 OA
BRANCH  22  24
ATOM     24  O   UNL     1      15.450 -10.493   0.000  0.00  0.00    +0.000 OA
ATOM     25  C   UNL     1      16.247  -9.830   0.000  0.00  0.00    +0.000 C 
ENDBRANCH  22  24
ENDBRANCH  17  22
ENDBRANCH  13  16
ENDBRANCH   7  13
BRANCH   5  26
ATOM     26  O   UNL     1      19.740 -11.328   0.000  0.00  0.00    +0.000 OA
ATOM     27  C   UNL     1      20.450 -11.739   0.000  0.00  0.00    +0.000 C 
ENDBRANCH   5  26
TORSDOF 5
