REMARK  Name = 
REMARK  0 active torsions:
REMARK  status: ('A' for Active; 'I' for Inactive)
REMARK                            x       y       z     vdW  Elec       q    Type
REMARK                         _______ _______ _______ _____ _____    ______ ____
ROOT
ATOM      1  O   UNL     1      16.789 -10.152   0.000  0.00  0.00    +0.000 OA
ATOM      2  O   UNL     1      16.789  -6.853   0.000  0.00  0.00    +0.000 OA
ATOM      3  C   UNL     1      16.789  -9.328   0.000  0.00  0.00    +0.000 A 
ATOM      4  C   UNL     1      16.789  -7.678   0.000  0.00  0.00    +0.000 A 
ATOM      5  C   UNL     1      17.503  -8.915   0.000  0.00  0.00    +0.000 A 
ATOM      6  C   UNL     1      17.503  -8.090   0.000  0.00  0.00    +0.000 A 
ATOM      7  C   UNL     1      16.074  -8.915   0.000  0.00  0.00    +0.000 A 
ATOM      8  C   UNL     1      16.074  -8.090   0.000  0.00  0.00    +0.000 A 
ENDROOT
TORSDOF 0
