REMARK  Name = 
REMARK  11 active torsions:
REMARK  status: ('A' for Active; 'I' for Inactive)
REMARK    1  A    between atoms: C_7  and  C_13
REMARK    2  A    between atoms: C_7  and  O_40
REMARK    3  A    between atoms: C_8  and  C_14
REMARK    4  A    between atoms: C_8  and  O_41
REMARK    5  A    between atoms: C_9  and  C_21
REMARK    6  A    between atoms: C_19  and  N_26
REMARK    7  A    between atoms: C_20  and  N_27
REMARK    8  A    between atoms: O_40  and  P_43
REMARK    9  A    between atoms: O_41  and  P_44
REMARK   10  A    between atoms: O_42  and  P_43
REMARK   11  A    between atoms: O_42  and  P_44
REMARK                            x       y       z     vdW  Elec       q    Type
REMARK                         _______ _______ _______ _____ _____    ______ ____
ROOT
ATOM      1  O   UNL     1      21.178 -25.298   0.000  0.00  0.00    +0.000 OA
ENDROOT
BRANCH   1   4
ATOM      2  O   UNL     1      21.119 -24.133   0.000  0.00  0.00    +0.000 OA
ATOM      3  O   UNL     1      22.343 -25.239   0.000  0.00  0.00    +0.000 OA
ATOM      4  P   UNL     1      21.731 -24.686   0.000  0.00  0.00    +0.000 P 
BRANCH   4   5
ATOM      5  O   UNL     1      22.284 -24.074   0.000  0.00  0.00    +0.000 OA
BRANCH   5   6
ATOM      6  C   UNL     1      22.031 -23.289   0.000  0.00  0.00    +0.000 C 
BRANCH   6   7
ATOM      7  C   UNL     1      22.584 -22.676   0.000  0.00  0.00    +0.000 C 
ATOM      8  C   UNL     1      22.414 -21.869   0.000  0.00  0.00    +0.000 C 
ATOM      9  C   UNL     1      23.129 -21.458   0.000  0.00  0.00    +0.000 C 
ATOM     10  C   UNL     1      23.741 -22.011   0.000  0.00  0.00    +0.000 C 
ATOM     11  O   UNL     1      21.661 -21.532   0.000  0.00  0.00    +0.000 OA
ATOM     12  O   UNL     1      23.216 -20.638   0.000  0.00  0.00    +0.000 OA
ATOM     13  O   UNL     1      23.404 -22.764   0.000  0.00  0.00    +0.000 OA
BRANCH  10  19
ATOM     14  C   UNL     1      25.612 -20.887   0.000  0.00  0.00    +0.000 A 
ATOM     15  C   UNL     1      26.163 -21.501   0.000  0.00  0.00    +0.000 A 
ATOM     16  C   UNL     1      24.805 -21.057   0.000  0.00  0.00    +0.000 A 
ATOM     17  C   UNL     1      25.099 -22.455   0.000  0.00  0.00    +0.000 A 
ATOM     18  C   UNL     1      25.907 -22.285   0.000  0.00  0.00    +0.000 A 
ATOM     19  N   UNL     1      24.548 -21.841   0.000  0.00  0.00    +0.000 N 
BRANCH  18  20
ATOM     20  C   UNL     1      26.457 -22.899   0.000  0.00  0.00    +0.000 C 
ATOM     21  O   UNL     1      27.265 -22.729   0.000  0.00  0.00    +0.000 OA
ATOM     22  O   UNL     1      26.201 -23.683   0.000  0.00  0.00    +0.000 OA
ENDBRANCH  18  20
ENDBRANCH  10  19
ENDBRANCH   6   7
ENDBRANCH   5   6
ENDBRANCH   4   5
ENDBRANCH   1   4
BRANCH   1  25
ATOM     23  O   UNL     1      22.217 -25.829   0.000  0.00  0.00    +0.000 OA
ATOM     24  O   UNL     1      20.647 -26.337   0.000  0.00  0.00    +0.000 OA
ATOM     25  P   UNL     1      21.432 -26.083   0.000  0.00  0.00    +0.000 P 
BRANCH  25  26
ATOM     26  O   UNL     1      21.685 -26.868   0.000  0.00  0.00    +0.000 OA
BRANCH  26  27
ATOM     27  C   UNL     1      21.132 -27.480   0.000  0.00  0.00    +0.000 C 
BRANCH  27  28
ATOM     28  C   UNL     1      21.386 -28.265   0.000  0.00  0.00    +0.000 C 
ATOM     29  C   UNL     1      22.170 -28.522   0.000  0.00  0.00    +0.000 C 
ATOM     30  C   UNL     1      22.168 -29.347   0.000  0.00  0.00    +0.000 C 
ATOM     31  C   UNL     1      21.383 -29.600   0.000  0.00  0.00    +0.000 C 
ATOM     32  O   UNL     1      22.838 -28.038   0.000  0.00  0.00    +0.000 OA
ATOM     33  O   UNL     1      22.835 -29.833   0.000  0.00  0.00    +0.000 OA
ATOM     34  O   UNL     1      20.900 -28.932   0.000  0.00  0.00    +0.000 OA
BRANCH  31  44
ATOM     35  C   UNL     1      18.918 -30.636   0.000  0.00  0.00    +0.000 A 
ATOM     36  C   UNL     1      21.609 -31.048   0.000  0.00  0.00    +0.000 A 
ATOM     37  C   UNL     1      20.346 -31.461   0.000  0.00  0.00    +0.000 A 
ATOM     38  C   UNL     1      19.632 -31.873   0.000  0.00  0.00    +0.000 A 
ATOM     39  C   UNL     1      20.346 -30.636   0.000  0.00  0.00    +0.000 A 
ATOM     40  N   UNL     1      19.632 -32.698   0.000  0.00  0.00    +0.000 NA
ATOM     41  N   UNL     1      18.918 -31.461   0.000  0.00  0.00    +0.000 NA
ATOM     42  N   UNL     1      19.632 -30.223   0.000  0.00  0.00    +0.000 NA
ATOM     43  N   UNL     1      21.127 -31.712   0.000  0.00  0.00    +0.000 NA
ATOM     44  N   UNL     1      21.127 -30.384   0.000  0.00  0.00    +0.000 N 
ENDBRANCH  31  44
ENDBRANCH  27  28
ENDBRANCH  26  27
ENDBRANCH  25  26
ENDBRANCH   1  25
TORSDOF 11
