REMARK  Name = 
REMARK  3 active torsions:
REMARK  status: ('A' for Active; 'I' for Inactive)
REMARK    1  A    between atoms: N_6  and  C_22
REMARK    2  A    between atoms: C_13  and  C_16
REMARK    3  A    between atoms: C_25  and  C_26
REMARK                            x       y       z     vdW  Elec       q    Type
REMARK                         _______ _______ _______ _____ _____    ______ ____
ROOT
ATOM      1  C   UNL     1       5.893  -0.114   0.000  0.00  0.00    +0.000 A 
ATOM      2  C   UNL     1       6.538  -0.629   0.000  0.00  0.00    +0.000 A 
ATOM      3  C   UNL     1       6.016   0.701   0.000  0.00  0.00    +0.000 A 
ATOM      4  C   UNL     1       7.306  -0.327   0.000  0.00  0.00    +0.000 A 
ATOM      5  C   UNL     1       7.429   0.488   0.000  0.00  0.00    +0.000 A 
ATOM      6  C   UNL     1       6.784   1.003   0.000  0.00  0.00    +0.000 A 
ATOM      7  C   UNL     1       6.415  -1.445   0.000  0.00  0.00    +0.000 C 
ENDROOT
BRANCH   1  18
ATOM      8 CL   UNL     1       1.650  -1.694   0.000  0.00  0.00    +0.000 Cl
ATOM      9  O   UNL     1       2.005   1.087   0.000  0.00  0.00    +0.000 OA
ATOM     10  O   UNL     1       5.002  -1.232   0.000  0.00  0.00    +0.000 OA
ATOM     11  N   UNL     1       4.480   0.099   0.000  0.00  0.00    +0.000 N 
ATOM     12  C   UNL     1       3.324   1.548   0.000  0.00  0.00    +0.000 C 
ATOM     13  C   UNL     1       4.149   1.548   0.000  0.00  0.00    +0.000 C 
ATOM     14  C   UNL     1       2.810   0.903   0.000  0.00  0.00    +0.000 C 
ATOM     15  C   UNL     1       4.663   0.903   0.000  0.00  0.00    +0.000 C 
ATOM     16  C   UNL     1       2.993   0.099   0.000  0.00  0.00    +0.000 A 
ATOM     17  C   UNL     1       3.737  -0.259   0.000  0.00  0.00    +0.000 A 
ATOM     18  C   UNL     1       5.125  -0.416   0.000  0.00  0.00    +0.000 C 
ATOM     19  C   UNL     1       2.276  -0.375   0.000  0.00  0.00    +0.000 A 
ATOM     20  C   UNL     1       3.814  -1.115   0.000  0.00  0.00    +0.000 A 
ATOM     21  C   UNL     1       2.333  -1.232   0.000  0.00  0.00    +0.000 A 
ATOM     22  C   UNL     1       3.108  -1.605   0.000  0.00  0.00    +0.000 A 
ENDBRANCH   1  18
BRANCH   5  24
ATOM     23  O   UNL     1       8.719  -0.540   0.000  0.00  0.00    +0.000 OA
ATOM     24  N   UNL     1       8.197   0.790   0.000  0.00  0.00    +0.000 NA
ATOM     25  C   UNL     1       8.842   0.276   0.000  0.00  0.00    +0.000 C 
BRANCH  25  26
ATOM     26  C   UNL     1       9.610   0.577   0.000  0.00  0.00    +0.000 A 
ATOM     27  C   UNL     1      10.255   0.062   0.000  0.00  0.00    +0.000 A 
ATOM     28  C   UNL     1       9.733   1.393   0.000  0.00  0.00    +0.000 A 
ATOM     29  C   UNL     1      11.023   0.364   0.000  0.00  0.00    +0.000 A 
ATOM     30  C   UNL     1      10.132  -0.753   0.000  0.00  0.00    +0.000 C 
ATOM     31  C   UNL     1      10.501   1.694   0.000  0.00  0.00    +0.000 A 
ATOM     32  C   UNL     1      11.146   1.180   0.000  0.00  0.00    +0.000 A 
ENDBRANCH  25  26
ENDBRANCH   5  24
TORSDOF 3
