REMARK  Name = 
REMARK  7 active torsions:
REMARK  status: ('A' for Active; 'I' for Inactive)
REMARK    1  A    between atoms: N_2  and  C_8
REMARK    2  A    between atoms: N_3  and  CA_9
REMARK    3  A    between atoms: N_7  and  C_13
REMARK    4  A    between atoms: N_7  and  C_20
REMARK    5  A    between atoms: CA_9  and  C_12
REMARK    6  A    between atoms: CA_9  and  C_18
REMARK    7  A    between atoms: C_20  and  C_21
REMARK                            x       y       z     vdW  Elec       q    Type
REMARK                         _______ _______ _______ _____ _____    ______ ____
ROOT
ATOM      1  N   UNL     1       7.161   1.902   0.000  0.00  0.00    +0.000 N 
ATOM      2  N   UNL     1       4.237   2.063   0.000  0.00  0.00    +0.000 NA
ATOM      3  N   UNL     1       5.665   2.063   0.000  0.00  0.00    +0.000 NA
ATOM      4  N   UNL     1       7.161   0.574   0.000  0.00  0.00    +0.000 NA
ATOM      5  N   UNL     1       4.951   0.825   0.000  0.00  0.00    +0.000 NA
ATOM      6  C   UNL     1       6.380   1.650   0.000  0.00  0.00    +0.000 A 
ATOM      7  C   UNL     1       6.380   0.825   0.000  0.00  0.00    +0.000 A 
ATOM      8  C   UNL     1       5.665   0.413   0.000  0.00  0.00    +0.000 A 
ATOM      9  C   UNL     1       4.951   1.650   0.000  0.00  0.00    +0.000 A 
ATOM     10  C   UNL     1       7.642   1.238   0.000  0.00  0.00    +0.000 A 
ENDROOT
BRANCH   1  11
ATOM     11  C   UNL     1       7.417   2.686   0.000  0.00  0.00    +0.000 C 
ATOM     12  C   UNL     1       8.224   2.856   0.000  0.00  0.00    +0.000 C 
ATOM     13  C   UNL     1       6.866   3.300   0.000  0.00  0.00    +0.000 C 
ENDBRANCH   1  11
BRANCH   8  14
ATOM     14  N   UNL     1       5.665  -0.412   0.000  0.00  0.00    +0.000 NA
BRANCH  14  15
ATOM     15  C   UNL     1       4.951  -0.825   0.000  0.00  0.00    +0.000 C 
BRANCH  15  16
ATOM     16  C   UNL     1       4.951  -1.650   0.000  0.00  0.00    +0.000 A 
ATOM     17  C   UNL     1       5.665  -2.062   0.000  0.00  0.00    +0.000 A 
ATOM     18  C   UNL     1       4.237  -2.062   0.000  0.00  0.00    +0.000 A 
ATOM     19  C   UNL     1       5.665  -2.887   0.000  0.00  0.00    +0.000 A 
ATOM     20  C   UNL     1       4.237  -2.887   0.000  0.00  0.00    +0.000 A 
ATOM     21  C   UNL     1       4.951  -3.300   0.000  0.00  0.00    +0.000 A 
ENDBRANCH  15  16
ENDBRANCH  14  15
ENDBRANCH   8  14
BRANCH   2  22
ATOM     22  CA  UNL     1       3.522   1.650   0.000  0.00  0.00    +0.000 C 
BRANCH  22  24
ATOM     23  O   UNL     1       2.093   1.650   0.000  0.00  0.00    +0.000 OA
ATOM     24  C   UNL     1       2.808   2.063   0.000  0.00  0.00    +0.000 C 
ENDBRANCH  22  24
BRANCH  22  25
ATOM     25  C   UNL     1       3.522   0.825   0.000  0.00  0.00    +0.000 C 
ATOM     26  C   UNL     1       2.808   0.413   0.000  0.00  0.00    +0.000 C 
ENDBRANCH  22  25
ENDBRANCH   2  22
TORSDOF 7
