REMARK  Name = 
REMARK  23 active torsions:
REMARK  status: ('A' for Active; 'I' for Inactive)
REMARK    1  A    between atoms: C_2  and  C_3
REMARK    2  A    between atoms: C_3  and  C_4
REMARK    3  A    between atoms: C_4  and  C_5
REMARK    4  A    between atoms: C_5  and  C_6
REMARK    5  A    between atoms: C_6  and  C_7
REMARK    6  A    between atoms: C_7  and  C_8
REMARK    7  A    between atoms: C_8  and  C_9
REMARK    8  A    between atoms: C_9  and  C_10
REMARK    9  A    between atoms: C_10  and  C_11
REMARK   10  A    between atoms: C_11  and  C_12
REMARK   11  A    between atoms: C_12  and  C_13
REMARK   12  A    between atoms: C_13  and  C_14
REMARK   13  A    between atoms: C_14  and  C_20
REMARK   14  A    between atoms: C_15  and  C_18
REMARK   15  A    between atoms: C_15  and  O_29
REMARK   16  A    between atoms: C_16  and  C_18
REMARK   17  A    between atoms: C_16  and  O_30
REMARK   18  A    between atoms: C_17  and  C_19
REMARK   19  A    between atoms: C_17  and  O_31
REMARK   20  A    between atoms: C_19  and  C_21
REMARK   21  A    between atoms: C_20  and  O_29
REMARK   22  A    between atoms: O_30  and  P_32
REMARK   23  A    between atoms: O_31  and  P_32
REMARK                            x       y       z     vdW  Elec       q    Type
REMARK                         _______ _______ _______ _____ _____    ______ ____
ROOT
ATOM      1  C   UNK     1      17.951   5.414   0.000  0.00  0.00    +0.000 C 
ATOM      2  O   UNK     1      17.951   6.239   0.000  0.00  0.00    +0.000 OA
ENDROOT
BRANCH   1   3
ATOM      3  C   UNK     1      17.236   5.001   0.000  0.00  0.00    +0.000 C 
BRANCH   3   4
ATOM      4  C   UNK     1      16.522   5.414   0.000  0.00  0.00    +0.000 C 
BRANCH   4   5
ATOM      5  C   UNK     1      15.807   5.001   0.000  0.00  0.00    +0.000 C 
BRANCH   5   6
ATOM      6  C   UNK     1      15.093   5.414   0.000  0.00  0.00    +0.000 C 
BRANCH   6   7
ATOM      7  C   UNK     1      14.378   5.001   0.000  0.00  0.00    +0.000 C 
BRANCH   7   8
ATOM      8  C   UNK     1      13.664   5.414   0.000  0.00  0.00    +0.000 C 
BRANCH   8   9
ATOM      9  C   UNK     1      12.949   5.001   0.000  0.00  0.00    +0.000 C 
BRANCH   9  10
ATOM     10  C   UNK     1      12.235   5.414   0.000  0.00  0.00    +0.000 C 
BRANCH  10  11
ATOM     11  C   UNK     1      11.520   5.001   0.000  0.00  0.00    +0.000 C 
BRANCH  11  12
ATOM     12  C   UNK     1      10.806   5.414   0.000  0.00  0.00    +0.000 C 
BRANCH  12  13
ATOM     13  C   UNK     1      10.091   5.001   0.000  0.00  0.00    +0.000 C 
BRANCH  13  14
ATOM     14  C   UNK     1       9.377   5.414   0.000  0.00  0.00    +0.000 C 
BRANCH  14  16
ATOM     15  C   UNK     1       7.948   5.414   0.000  0.00  0.00    +0.000 C 
ATOM     16  C   UNK     1       8.662   5.001   0.000  0.00  0.00    +0.000 C 
ENDBRANCH  14  16
ENDBRANCH  13  14
ENDBRANCH  12  13
ENDBRANCH  11  12
ENDBRANCH  10  11
ENDBRANCH   9  10
ENDBRANCH   8   9
ENDBRANCH   7   8
ENDBRANCH   6   7
ENDBRANCH   5   6
ENDBRANCH   4   5
ENDBRANCH   3   4
ENDBRANCH   1   3
BRANCH   1  17
ATOM     17  O   UNK     1      18.665   5.001   0.000  0.00  0.00    +0.000 OA
BRANCH  17  18
ATOM     18  C   UNK     1      19.380   5.414   0.000  0.00  0.00    +0.000 C 
BRANCH  18  19
ATOM     19  C   UNK     1      20.094   5.001   0.000  0.00  0.00    +0.000 C 
ATOM     20  O   UNK     1      20.094   4.176   0.000  0.00  0.00    +0.000 OA
BRANCH  19  21
ATOM     21  C   UNK     1      20.808   5.414   0.000  0.00  0.00    +0.000 C 
BRANCH  21  22
ATOM     22  O   UNK     1      21.523   5.001   0.000  0.00  0.00    +0.000 OA
BRANCH  22  25
ATOM     23  O   UNK     1      22.650   4.699   0.000  0.00  0.00    +0.000 OA
ATOM     24  O   UNK     1      21.825   6.128   0.000  0.00  0.00    +0.000 OA
ATOM     25  P   UNK     1      22.237   5.414   0.000  0.00  0.00    +0.000 P 
BRANCH  25  26
ATOM     26  O   UNK     1      22.952   5.826   0.000  0.00  0.00    +0.000 OA
BRANCH  26  27
ATOM     27  C   UNK     1      23.666   5.414   0.000  0.00  0.00    +0.000 C 
BRANCH  27  28
ATOM     28  C   UNK     1      24.381   5.826   0.000  0.00  0.00    +0.000 C 
ATOM     29  N   UNK     1      24.381   6.651   0.000  0.00  0.00    +0.000 NA
BRANCH  28  30
ATOM     30  C   UNK     1      25.095   5.414   0.000  0.00  0.00    +0.000 C 
ATOM     31  O   UNK     1      25.810   5.826   0.000  0.00  0.00    +0.000 OA
ATOM     32  O   UNK     1      25.095   4.589   0.000  0.00  0.00    +0.000 OA
ENDBRANCH  28  30
ENDBRANCH  27  28
ENDBRANCH  26  27
ENDBRANCH  25  26
ENDBRANCH  22  25
ENDBRANCH  21  22
ENDBRANCH  19  21
ENDBRANCH  18  19
ENDBRANCH  17  18
ENDBRANCH   1  17
TORSDOF 23
