REMARK  Name = 
REMARK  2 active torsions:
REMARK  status: ('A' for Active; 'I' for Inactive)
REMARK    1  A    between atoms: N_15  and  C_16
REMARK    2  A    between atoms: C_16  and  C_17
REMARK                            x       y       z     vdW  Elec       q    Type
REMARK                         _______ _______ _______ _____ _____    ______ ____
ROOT
ATOM      1  C   UNL     1      13.204  -9.124   0.000  0.00  0.00    +0.000 A 
ATOM      2  C   UNL     1      13.204  -9.949   0.000  0.00  0.00    +0.000 A 
ATOM      3  N   UNL     1      13.919 -10.361   0.000  0.00  0.00    +0.000 N 
ATOM      4  C   UNL     1      14.633  -9.949   0.000  0.00  0.00    +0.000 A 
ATOM      5  N   UNL     1      14.633  -9.124   0.000  0.00  0.00    +0.000 N 
ATOM      6  C   UNL     1      13.919  -8.711   0.000  0.00  0.00    +0.000 A 
ATOM      7  N   UNL     1      12.420  -8.869   0.000  0.00  0.00    +0.000 NA
ATOM      8  C   UNL     1      11.935  -9.536   0.000  0.00  0.00    +0.000 A 
ATOM      9  N   UNL     1      12.420 -10.204   0.000  0.00  0.00    +0.000 NA
ATOM     10  O   UNL     1      13.919  -7.886   0.000  0.00  0.00    +0.000 OA
ATOM     11  O   UNL     1      15.348 -10.361   0.000  0.00  0.00    +0.000 OA
ATOM     12  C   UNL     1      15.348  -8.711   0.000  0.00  0.00    +0.000 C 
ATOM     13  C   UNL     1      13.919 -11.186   0.000  0.00  0.00    +0.000 C 
ENDROOT
TORSDOF 0
REMARK  Name = 
REMARK  2 active torsions:
REMARK  status: ('A' for Active; 'I' for Inactive)
REMARK    1  A    between atoms: N_15  and  C_16
REMARK    2  A    between atoms: C_16  and  C_17
REMARK                            x       y       z     vdW  Elec       q    Type
REMARK                         _______ _______ _______ _____ _____    ______ ____
ROOT
ATOM      1  C   UNL     1      17.167  -9.941   0.000  0.00  0.00    +0.000 C 
ATOM      2  N   UNL     1      17.891  -9.524   0.000  0.00  0.00    +0.000 N 
ATOM      3  C   UNL     1      17.891  -8.688   0.000  0.00  0.00    +0.000 C 
ATOM      4  C   UNL     1      17.891 -10.359   0.000  0.00  0.00    +0.000 C 
ENDROOT
BRANCH   2   5
ATOM      5  C   UNL     1      18.614  -9.941   0.000  0.00  0.00    +0.000 C 
BRANCH   5   6
ATOM      6  C   UNL     1      19.338  -9.524   0.000  0.00  0.00    +0.000 C 
ATOM      7  O   UNL     1      20.061  -9.941   0.000  0.00  0.00    +0.000 OA
ENDBRANCH   5   6
ENDBRANCH   2   5
TORSDOF 2
