REMARK  Name = 
REMARK  2 active torsions:
REMARK  status: ('A' for Active; 'I' for Inactive)
REMARK    1  A    between atoms: C_2  and  C_4
REMARK    2  A    between atoms: C_4  and  C_6
REMARK                            x       y       z     vdW  Elec       q    Type
REMARK                         _______ _______ _______ _____ _____    ______ ____
ROOT
ATOM      1  C   UNL     1       1.238   0.715   0.000  0.00  0.00    +0.000 C 
ATOM      2  N   UNL     1       1.238  -0.111   0.000  0.00  0.00    +0.000 NA
ENDROOT
BRANCH   1   3
ATOM      3  C   UNL     1       1.952   1.127   0.000  0.00  0.00    +0.000 C 
ATOM      4  O   UNL     1       1.952   1.952   0.000  0.00  0.00    +0.000 OA
ATOM      5  N   UNL     1       2.666   0.715   0.000  0.00  0.00    +0.000 NA
ATOM      6  O   UNL     1       3.381   1.127   0.000  0.00  0.00    +0.000 OA
ENDBRANCH   1   3
BRANCH   1   8
ATOM      7  C   UNL     1      -0.191   0.715   0.000  0.00  0.00    +0.000 C 
ATOM      8  C   UNL     1       0.523   1.127   0.000  0.00  0.00    +0.000 C 
ATOM      9  C   UNL     1       0.523   1.952   0.000  0.00  0.00    +0.000 C 
ENDBRANCH   1   8
TORSDOF 2
