REMARK  Name = 
REMARK  8 active torsions:
REMARK  status: ('A' for Active; 'I' for Inactive)
REMARK    1  A    between atoms: CB_3  and  CG1_13
REMARK    2  A    between atoms: CA_4  and  C_10
REMARK    3  A    between atoms: CA_8  and  N_15
REMARK    4  A    between atoms: C_16  and  C_17
REMARK    5  A    between atoms: C_17  and  C_19
REMARK    6  A    between atoms: N_20  and  O_21
REMARK    7  A    between atoms: O_21  and  C_22
REMARK    8  A    between atoms: C_22  and  C_23
REMARK                            x       y       z     vdW  Elec       q    Type
REMARK                         _______ _______ _______ _____ _____    ______ ____
ROOT
ATOM      1  N   UNL     1       9.987  -9.906   0.000  0.00  0.00    +0.000 NA
ATOM      2  C   UNL     1       9.272 -10.318   0.000  0.00  0.00    +0.000 C 
ATOM      3  O   UNL     1       9.272 -11.143   0.000  0.00  0.00    +0.000 OA
ENDROOT
BRANCH   1  11
ATOM      4  S   UNL     1      12.241  -9.906   0.000  0.00  0.00    +0.000 S 
ATOM      5  CG2 UNL     1      12.955 -10.318   0.000  0.00  0.00    +0.000 C 
ATOM      6  CB  UNL     1      12.955 -11.143   0.000  0.00  0.00    +0.000 C 
ATOM      7  CA  UNL     1      12.241 -11.556   0.000  0.00  0.00    +0.000 C 
ATOM      8  C   UNL     1      11.526 -10.318   0.000  0.00  0.00    +0.000 C 
ATOM      9  N   UNL     1      11.526 -11.143   0.000  0.00  0.00    +0.000 N 
ATOM     10  C   UNL     1      10.701 -11.143   0.000  0.00  0.00    +0.000 C 
ATOM     11  CA  UNL     1      10.701 -10.318   0.000  0.00  0.00    +0.000 C 
ATOM     12  O   UNL     1       9.987 -11.556   0.000  0.00  0.00    +0.000 OA
BRANCH   7  13
ATOM     13  C   UNL     1      12.241 -12.381   0.000  0.00  0.00    +0.000 C 
ATOM     14  O   UNL     1      12.955 -12.793   0.000  0.00  0.00    +0.000 OA
ATOM     15  OXT UNL     1      11.526 -12.793   0.000  0.00  0.00    +0.000 OA
ENDBRANCH   7  13
BRANCH   6  16
ATOM     16  CG1 UNL     1      13.670 -11.556   0.000  0.00  0.00    +0.000 C 
ATOM     17  CD1 UNL     1      14.384 -11.143   0.000  0.00  0.00    +0.000 C 
ENDBRANCH   6  16
ENDBRANCH   1  11
BRANCH   2  18
ATOM     18  C   UNL     1       8.558  -9.906   0.000  0.00  0.00    +0.000 C 
ATOM     19  N   UNL     1       8.558  -9.081   0.000  0.00  0.00    +0.000 NA
BRANCH  18  20
ATOM     20  C   UNL     1       7.843 -10.318   0.000  0.00  0.00    +0.000 A 
ATOM     21  C   UNL     1       7.757 -11.139   0.000  0.00  0.00    +0.000 A 
ATOM     22  S   UNL     1       6.950 -11.310   0.000  0.00  0.00    +0.000 S 
ATOM     23  C   UNL     1       6.538 -10.596   0.000  0.00  0.00    +0.000 A 
ATOM     24  N   UNL     1       7.090  -9.983   0.000  0.00  0.00    +0.000 NA
ATOM     25  N   UNL     1       5.717 -10.510   0.000  0.00  0.00    +0.000 NA
ENDBRANCH  18  20
BRANCH  19  26
ATOM     26  O   UNL     1       9.272  -8.668   0.000  0.00  0.00    +0.000 OA
BRANCH  26  27
ATOM     27  C   UNL     1       9.272  -7.843   0.000  0.00  0.00    +0.000 C 
BRANCH  27  28
ATOM     28  C   UNL     1       9.987  -7.431   0.000  0.00  0.00    +0.000 C 
ATOM     29  O   UNL     1      10.701  -7.843   0.000  0.00  0.00    +0.000 OA
ATOM     30  O   UNL     1       9.987  -6.606   0.000  0.00  0.00    +0.000 OA
ENDBRANCH  27  28
ENDBRANCH  26  27
ENDBRANCH  19  26
ENDBRANCH   2  18
TORSDOF 8
