REMARK  Name = 
REMARK  1 active torsions:
REMARK  status: ('A' for Active; 'I' for Inactive)
REMARK    1  A    between atoms: C_3  and  C_4
REMARK                            x       y       z     vdW  Elec       q    Type
REMARK                         _______ _______ _______ _____ _____    ______ ____
ROOT
ATOM      1  C   UNK     1       1.235   0.629   0.000  0.00  0.00    +0.000 C 
ATOM      2  C   UNK     1       0.155  -0.155   0.000  0.00  0.00    +0.000 C 
ATOM      3  C   UNK     1       0.568   1.114   0.000  0.00  0.00    +0.000 C 
ATOM      4  N   UNK     1      -0.100   0.629   0.000  0.00  0.00    +0.000 NA
ATOM      5  S   UNK     1       0.980  -0.155   0.000  0.00  0.00    +0.000 S 
ENDROOT
BRANCH   3   6
ATOM      6  C   UNK     1       0.568   1.939   0.000  0.00  0.00    +0.000 C 
ATOM      7  O   UNK     1      -0.147   2.352   0.000  0.00  0.00    +0.000 OA
ATOM      8  O   UNK     1       1.282   2.352   0.000  0.00  0.00    +0.000 OA
ENDBRANCH   3   6
TORSDOF 1
