REMARK  Name = 
REMARK  1 active torsions:
REMARK  status: ('A' for Active; 'I' for Inactive)
REMARK    1  A    between atoms: C_4  and  C_7
REMARK                            x       y       z     vdW  Elec       q    Type
REMARK                         _______ _______ _______ _____ _____    ______ ____
ROOT
ATOM      1  O   UNL     1       3.744  -0.477   0.000  0.00  0.00    +0.000 OA
ATOM      2  O   UNL     1       2.847   2.285   0.000  0.00  0.00    +0.000 OA
ATOM      3  N   UNL     1       3.515   0.975   0.000  0.00  0.00    +0.000 N 
ATOM      4  C   UNL     1       2.435   0.190   0.000  0.00  0.00    +0.000 C 
ATOM      5  C   UNL     1       2.180   0.975   0.000  0.00  0.00    +0.000 C 
ATOM      6  C   UNL     1       3.260   0.190   0.000  0.00  0.00    +0.000 C 
ATOM      7  C   UNL     1       1.650  -0.065   0.000  0.00  0.00    +0.000 C 
ATOM      8  C   UNL     1       2.847   1.460   0.000  0.00  0.00    +0.000 C 
ATOM      9  C   UNL     1       4.299   1.230   0.000  0.00  0.00    +0.000 C 
ENDROOT
BRANCH   4  10
ATOM     10  C   UNL     1       2.435  -0.635   0.000  0.00  0.00    +0.000 A 
ATOM     11  C   UNL     1       3.149  -1.047   0.000  0.00  0.00    +0.000 A 
ATOM     12  C   UNL     1       1.720  -1.047   0.000  0.00  0.00    +0.000 A 
ATOM     13  C   UNL     1       3.149  -1.872   0.000  0.00  0.00    +0.000 A 
ATOM     14  C   UNL     1       1.720  -1.872   0.000  0.00  0.00    +0.000 A 
ATOM     15  C   UNL     1       2.435  -2.285   0.000  0.00  0.00    +0.000 A 
ENDBRANCH   4  10
TORSDOF 1
