REMARK  Name = 
REMARK  4 active torsions:
REMARK  status: ('A' for Active; 'I' for Inactive)
REMARK    1  A    between atoms: N_1  and  C_4
REMARK    2  A    between atoms: C_3  and  C_4
REMARK    3  A    between atoms: C_3  and  C_5
REMARK    4  A    between atoms: C_6  and  C_7
REMARK                            x       y       z     vdW  Elec       q    Type
REMARK                         _______ _______ _______ _____ _____    ______ ____
ROOT
ATOM      1  C   UNL     1       3.079   0.206   0.000  0.00  0.00    +0.000 C 
ATOM      2  C   UNL     1       2.364  -0.206   0.000  0.00  0.00    +0.000 C 
ENDROOT
BRANCH   2   4
ATOM      3  N   UNL     1       1.650  -2.269   0.000  0.00  0.00    +0.000 NA
ATOM      4  C   UNL     1       2.364  -1.031   0.000  0.00  0.00    +0.000 A 
ATOM      5  C   UNL     1       3.079  -1.444   0.000  0.00  0.00    +0.000 A 
ATOM      6  C   UNL     1       1.650  -1.444   0.000  0.00  0.00    +0.000 A 
ATOM      7  C   UNL     1       3.079  -2.269   0.000  0.00  0.00    +0.000 A 
ATOM      8  C   UNL     1       2.364  -2.681   0.000  0.00  0.00    +0.000 A 
ENDBRANCH   2   4
BRANCH   1   9
ATOM      9  C   UNL     1       3.079   1.031   0.000  0.00  0.00    +0.000 C 
BRANCH   9  10
ATOM     10  C   UNL     1       3.793   1.444   0.000  0.00  0.00    +0.000 C 
BRANCH  10  11
ATOM     11  N   UNL     1       3.793   2.269   0.000  0.00  0.00    +0.000 NA
ATOM     12  C   UNL     1       4.508   2.681   0.000  0.00  0.00    +0.000 C 
ENDBRANCH  10  11
ENDBRANCH   9  10
ENDBRANCH   1   9
TORSDOF 4
