REMARK  Name = 
REMARK  11 active torsions:
REMARK  status: ('A' for Active; 'I' for Inactive)
REMARK    1  A    between atoms: S_1  and  O_4
REMARK    2  A    between atoms: O_2  and  C_10
REMARK    3  A    between atoms: O_2  and  C_23
REMARK    4  A    between atoms: O_3  and  C_13
REMARK    5  A    between atoms: O_3  and  C_17
REMARK    6  A    between atoms: O_4  and  C_24
REMARK    7  A    between atoms: C_9  and  C_10
REMARK    8  A    between atoms: C_9  and  C_11
REMARK    9  A    between atoms: C_10  and  C_20
REMARK   10  A    between atoms: C_12  and  C_13
REMARK   11  A    between atoms: C_12  and  C_16
REMARK                            x       y       z     vdW  Elec       q    Type
REMARK                         _______ _______ _______ _____ _____    ______ ____
ROOT
ATOM      1  O   UNL     1       5.937  -0.770   0.000  0.00  0.00    +0.000 OA
ENDROOT
BRANCH   1   5
ATOM      2  C   UNL     1       3.793  -2.007   0.000  0.00  0.00    +0.000 A 
ATOM      3  C   UNL     1       3.793  -1.182   0.000  0.00  0.00    +0.000 A 
ATOM      4  C   UNL     1       4.508  -2.420   0.000  0.00  0.00    +0.000 A 
ATOM      5  C   UNL     1       5.222  -1.182   0.000  0.00  0.00    +0.000 A 
ATOM      6  C   UNL     1       4.508  -0.770   0.000  0.00  0.00    +0.000 A 
ATOM      7  C   UNL     1       5.222  -2.007   0.000  0.00  0.00    +0.000 A 
BRANCH   2   8
ATOM      8  C   UNL     1       3.079  -2.420   0.000  0.00  0.00    +0.000 C 
BRANCH   8   9
ATOM      9  C   UNL     1       3.079  -3.245   0.000  0.00  0.00    +0.000 C 
BRANCH   9  12
ATOM     10  O   UNL     1       2.365  -4.482   0.000  0.00  0.00    +0.000 OA
ATOM     11  O   UNL     1       1.650  -3.245   0.000  0.00  0.00    +0.000 OA
ATOM     12  C   UNL     1       2.365  -3.657   0.000  0.00  0.00    +0.000 C 
ENDBRANCH   9  12
BRANCH   9  13
ATOM     13  O   UNL     1       3.793  -3.657   0.000  0.00  0.00    +0.000 OA
BRANCH  13  14
ATOM     14  C   UNL     1       3.793  -4.482   0.000  0.00  0.00    +0.000 C 
ATOM     15  C   UNL     1       4.508  -4.895   0.000  0.00  0.00    +0.000 C 
ENDBRANCH  13  14
ENDBRANCH   9  13
ENDBRANCH   8   9
ENDBRANCH   2   8
ENDBRANCH   1   5
BRANCH   1  16
ATOM     16  C   UNL     1       5.937   0.055   0.000  0.00  0.00    +0.000 C 
BRANCH  16  17
ATOM     17  C   UNL     1       6.652   0.468   0.000  0.00  0.00    +0.000 C 
BRANCH  17  18
ATOM     18  C   UNL     1       6.652   1.293   0.000  0.00  0.00    +0.000 A 
ATOM     19  C   UNL     1       5.937   1.705   0.000  0.00  0.00    +0.000 A 
ATOM     20  C   UNL     1       7.366   1.705   0.000  0.00  0.00    +0.000 A 
ATOM     21  C   UNL     1       6.652   2.943   0.000  0.00  0.00    +0.000 A 
ATOM     22  C   UNL     1       5.937   2.530   0.000  0.00  0.00    +0.000 A 
ATOM     23  C   UNL     1       7.366   2.530   0.000  0.00  0.00    +0.000 A 
BRANCH  21  24
ATOM     24  O   UNL     1       6.652   3.768   0.000  0.00  0.00    +0.000 OA
BRANCH  24  25
ATOM     25  S   UNL     1       7.366   4.180   0.000  0.00  0.00    +0.000 S 
ATOM     26  O   UNL     1       6.953   4.895   0.000  0.00  0.00    +0.000 OA
ATOM     27  O   UNL     1       7.778   3.466   0.000  0.00  0.00    +0.000 OA
ATOM     28  C   UNL     1       8.080   4.593   0.000  0.00  0.00    +0.000 C 
ENDBRANCH  24  25
ENDBRANCH  21  24
ENDBRANCH  17  18
ENDBRANCH  16  17
ENDBRANCH   1  16
TORSDOF 11
