REMARK  Name = 
REMARK  12 active torsions:
REMARK  status: ('A' for Active; 'I' for Inactive)
REMARK    1  A    between atoms: N_2  and  C_3
REMARK    2  A    between atoms: N_2  and  C_26
REMARK    3  A    between atoms: C_3  and  C_4
REMARK    4  A    between atoms: C_4  and  C_5
REMARK    5  A    between atoms: C_5  and  C_6
REMARK    6  A    between atoms: C_6  and  C_7
REMARK    7  A    between atoms: C_7  and  C_8
REMARK    8  A    between atoms: C_8  and  O_9
REMARK    9  A    between atoms: O_9  and  C_10
REMARK   10  A    between atoms: C_13  and  C_17
REMARK   11  A    between atoms: C_17  and  C_19
REMARK   12  A    between atoms: C_26  and  C_27
REMARK                            x       y       z     vdW  Elec       q    Type
REMARK                         _______ _______ _______ _____ _____    ______ ____
ROOT
ATOM      1  C   UNL     1       2.143  -3.712   0.000  0.00  0.00    +0.000 A 
ATOM      2  C   UNL     1       2.143  -4.537   0.000  0.00  0.00    +0.000 A 
ATOM      3  C   UNL     1       1.429  -4.950   0.000  0.00  0.00    +0.000 A 
ATOM      4  C   UNL     1       0.715  -4.537   0.000  0.00  0.00    +0.000 A 
ATOM      5  C   UNL     1       0.715  -3.712   0.000  0.00  0.00    +0.000 A 
ATOM      6  F   UNL     1       0.000  -3.300   0.000  0.00  0.00    +0.000 F 
ATOM      7  C   UNL     1       1.429  -3.300   0.000  0.00  0.00    +0.000 A 
ENDROOT
BRANCH   4   8
ATOM      8  C   UNL     1       0.000  -4.950   0.000  0.00  0.00    +0.000 C 
ATOM      9  O   UNL     1       0.000  -5.775   0.000  0.00  0.00    +0.000 OA
BRANCH   8  10
ATOM     10  C   UNL     1      -0.715  -4.537   0.000  0.00  0.00    +0.000 A 
ATOM     11  C   UNL     1      -1.429  -4.950   0.000  0.00  0.00    +0.000 A 
ATOM     12  C   UNL     1      -2.143  -4.537   0.000  0.00  0.00    +0.000 A 
ATOM     13  C   UNL     1      -2.143  -3.712   0.000  0.00  0.00    +0.000 A 
ATOM     14 BR   UNL     1      -2.858  -3.300   0.000  0.00  0.00    +0.000 Br
ATOM     15  C   UNL     1      -1.429  -3.300   0.000  0.00  0.00    +0.000 A 
ATOM     16  C   UNL     1      -0.715  -3.712   0.000  0.00  0.00    +0.000 A 
ENDBRANCH   8  10
ENDBRANCH   4   8
BRANCH   1  17
ATOM     17  O   UNL     1       2.858  -3.300   0.000  0.00  0.00    +0.000 OA
BRANCH  17  18
ATOM     18  C   UNL     1       3.572  -3.712   0.000  0.00  0.00    +0.000 C 
BRANCH  18  19
ATOM     19  C   UNL     1       4.287  -3.300   0.000  0.00  0.00    +0.000 C 
BRANCH  19  20
ATOM     20  C   UNL     1       5.001  -3.712   0.000  0.00  0.00    +0.000 C 
BRANCH  20  21
ATOM     21  C   UNL     1       5.716  -3.300   0.000  0.00  0.00    +0.000 C 
BRANCH  21  22
ATOM     22  C   UNL     1       6.430  -3.712   0.000  0.00  0.00    +0.000 C 
BRANCH  22  23
ATOM     23  C   UNL     1       7.145  -3.300   0.000  0.00  0.00    +0.000 C 
BRANCH  23  25
ATOM     24  C   UNL     1       7.859  -4.537   0.000  0.00  0.00    +0.000 C 
ATOM     25  N   UNL     1       7.859  -3.712   0.000  0.00  0.00    +0.000 NA
BRANCH  25  26
ATOM     26  C   UNL     1       8.574  -3.300   0.000  0.00  0.00    +0.000 C 
BRANCH  26  27
ATOM     27  C   UNL     1       9.288  -3.712   0.000  0.00  0.00    +0.000 C 
ATOM     28  C   UNL     1      10.003  -3.300   0.000  0.00  0.00    +0.000 C 
ENDBRANCH  26  27
ENDBRANCH  25  26
ENDBRANCH  23  25
ENDBRANCH  22  23
ENDBRANCH  21  22
ENDBRANCH  20  21
ENDBRANCH  19  20
ENDBRANCH  18  19
ENDBRANCH  17  18
ENDBRANCH   1  17
TORSDOF 12
