REMARK  Name = 
REMARK  1 active torsions:
REMARK  status: ('A' for Active; 'I' for Inactive)
REMARK    1  A    between atoms: C_5  and  N_11
REMARK                            x       y       z     vdW  Elec       q    Type
REMARK                         _______ _______ _______ _____ _____    ______ ____
ROOT
ATOM      1  C   UNL     1       3.993   0.825   0.000  0.00  0.00    +0.000 A 
ATOM      2  C   UNL     1       3.279   1.238   0.000  0.00  0.00    +0.000 A 
ATOM      3  C   UNL     1       3.993   0.000   0.000  0.00  0.00    +0.000 A 
ATOM      4  C   UNL     1       2.564   0.825   0.000  0.00  0.00    +0.000 A 
ATOM      5  C   UNL     1       3.279  -0.412   0.000  0.00  0.00    +0.000 A 
ATOM      6  C   UNL     1       2.564   0.000   0.000  0.00  0.00    +0.000 A 
ATOM      7  C   UNL     1       1.780   1.080   0.000  0.00  0.00    +0.000 A 
ATOM      8 BR   UNL     1       1.525   1.865   0.000  0.00  0.00    +0.000 Br
ATOM      9  N   UNL     1       1.780  -0.255   0.000  0.00  0.00    +0.000 NA
ATOM     10  N   UNL     1       1.295   0.412   0.000  0.00  0.00    +0.000 NA
ENDROOT
BRANCH   5  11
ATOM     11  N   UNL     1       3.279  -1.238   0.000  0.00  0.00    +0.000 N 
ATOM     12  O   UNL     1       3.993  -1.650   0.000  0.00  0.00    +0.000 OA
ATOM     13  O   UNL     1       2.564  -1.650   0.000  0.00  0.00    +0.000 OA
ENDBRANCH   5  11
TORSDOF 1
