REMARK  Name = 
REMARK  5 active torsions:
REMARK  status: ('A' for Active; 'I' for Inactive)
REMARK    1  A    between atoms: C_2  and  C_3
REMARK    2  A    between atoms: C_3  and  C_4
REMARK    3  A    between atoms: C_4  and  C_6
REMARK    4  A    between atoms: C_6  and  C_7
REMARK    5  A    between atoms: C_7  and  C_8
REMARK                            x       y       z     vdW  Elec       q    Type
REMARK                         _______ _______ _______ _____ _____    ______ ____
ROOT
ATOM      1  C   UNL     1       3.095  -1.921   0.000  0.00  0.00    +0.000 C 
ATOM      2  C   UNL     1       3.095  -1.096   0.000  0.00  0.00    +0.000 C 
ATOM      3  O   UNL     1       2.380  -0.683   0.000  0.00  0.00    +0.000 OA
ATOM      4  N   UNL     1       3.809  -0.683   0.000  0.00  0.00    +0.000 NA
ATOM      5  C   UNL     1       4.523  -1.096   0.000  0.00  0.00    +0.000 C 
ATOM      6  O   UNL     1       5.238  -0.683   0.000  0.00  0.00    +0.000 OA
ATOM      7  N   UNL     1       4.523  -1.921   0.000  0.00  0.00    +0.000 NA
ATOM      8  C   UNL     1       3.809  -2.333   0.000  0.00  0.00    +0.000 C 
ATOM      9  O   UNL     1       3.809  -3.158   0.000  0.00  0.00    +0.000 OA
ENDROOT
BRANCH   1  10
ATOM     10  C   UNL     1       2.269  -1.921   0.000  0.00  0.00    +0.000 C 
ATOM     11  C   UNL     1       1.857  -1.206   0.000  0.00  0.00    +0.000 C 
BRANCH  10  12
ATOM     12  C   UNL     1       1.857  -2.635   0.000  0.00  0.00    +0.000 C 
BRANCH  12  14
ATOM     13  C   UNL     1       0.620  -3.350   0.000  0.00  0.00    +0.000 C 
ATOM     14  C   UNL     1       1.032  -2.635   0.000  0.00  0.00    +0.000 C 
ENDBRANCH  12  14
ENDBRANCH  10  12
ENDBRANCH   1  10
BRANCH   1  15
ATOM     15  C   UNL     1       2.682  -2.635   0.000  0.00  0.00    +0.000 C 
BRANCH  15  16
ATOM     16  C   UNL     1       3.095  -3.350   0.000  0.00  0.00    +0.000 C 
ATOM     17  C   UNL     1       2.682  -4.064   0.000  0.00  0.00    +0.000 C 
ENDBRANCH  15  16
ENDBRANCH   1  15
TORSDOF 5
