REMARK  Name = 
REMARK  3 active torsions:
REMARK  status: ('A' for Active; 'I' for Inactive)
REMARK    1  A    between atoms: C_2  and  C_4
REMARK    2  A    between atoms: C_2  and  O_12
REMARK    3  A    between atoms: O_12  and  P_13
REMARK                            x       y       z     vdW  Elec       q    Type
REMARK                         _______ _______ _______ _____ _____    ______ ____
ROOT
ATOM      1  C   UNL     1       1.235   0.629   0.000  0.00  0.00    +0.000 C 
ATOM      2  C   UNL     1       0.568   1.114   0.000  0.00  0.00    +0.000 C 
ATOM      3  C   UNL     1       0.155  -0.155   0.000  0.00  0.00    +0.000 C 
ATOM      4  C   UNL     1      -0.100   0.629   0.000  0.00  0.00    +0.000 C 
ATOM      5  O   UNL     1       0.568   1.939   0.000  0.00  0.00    +0.000 OA
ATOM      6  O   UNL     1      -0.884   0.884   0.000  0.00  0.00    +0.000 OA
ATOM      7  O   UNL     1       0.980  -0.155   0.000  0.00  0.00    +0.000 OA
ENDROOT
BRANCH   3   8
ATOM      8  C   UNL     1      -0.330  -0.823   0.000  0.00  0.00    +0.000 C 
BRANCH   8   9
ATOM      9  O   UNL     1      -1.150  -0.737   0.000  0.00  0.00    +0.000 OA
BRANCH   9  13
ATOM     10  O   UNL     1      -2.120  -2.071   0.000  0.00  0.00    +0.000 OA
ATOM     11  O   UNL     1      -2.303  -0.919   0.000  0.00  0.00    +0.000 OA
ATOM     12  O   UNL     1      -0.968  -1.889   0.000  0.00  0.00    +0.000 OA
ATOM     13  P   UNL     1      -1.635  -1.404   0.000  0.00  0.00    +0.000 P 
ENDBRANCH   9  13
ENDBRANCH   8   9
ENDBRANCH   3   8
TORSDOF 3
