REMARK  Name = 
REMARK  3 active torsions:
REMARK  status: ('A' for Active; 'I' for Inactive)
REMARK    1  A    between atoms: P_2  and  C_5
REMARK    2  A    between atoms: C_5  and  C_6
REMARK    3  A    between atoms: C_5  and  P_12
REMARK                            x       y       z     vdW  Elec       q    Type
REMARK                         _______ _______ _______ _____ _____    ______ ____
ROOT
ATOM      1  C   UNL     1       0.715   2.062   0.000  0.00  0.00    +0.000 C 
ENDROOT
BRANCH   1   2
ATOM      2  C   UNL     1       0.715   1.238   0.000  0.00  0.00    +0.000 A 
ATOM      3  C   UNL     1       1.429   0.825   0.000  0.00  0.00    +0.000 A 
ATOM      4  C   UNL     1       1.429   0.000   0.000  0.00  0.00    +0.000 A 
ATOM      5  C   UNL     1       0.715  -0.412   0.000  0.00  0.00    +0.000 A 
ATOM      6  C   UNL     1       0.000   0.000   0.000  0.00  0.00    +0.000 A 
ATOM      7  C   UNL     1       0.000   0.825   0.000  0.00  0.00    +0.000 A 
ENDBRANCH   1   2
BRANCH   1   9
ATOM      8  O   UNL     1      -0.715   2.888   0.000  0.00  0.00    +0.000 OA
ATOM      9  P   UNL     1       0.000   2.475   0.000  0.00  0.00    +0.000 P 
ATOM     10  O   UNL     1      -0.412   1.760   0.000  0.00  0.00    +0.000 OA
ATOM     11  O   UNL     1       0.412   3.189   0.000  0.00  0.00    +0.000 OA
ENDBRANCH   1   9
BRANCH   1  12
ATOM     12  P   UNL     1       1.429   2.475   0.000  0.00  0.00    +0.000 P 
ATOM     13  O   UNL     1       2.143   2.888   0.000  0.00  0.00    +0.000 OA
ATOM     14  O   UNL     1       1.841   1.760   0.000  0.00  0.00    +0.000 OA
ATOM     15  O   UNL     1       1.016   3.189   0.000  0.00  0.00    +0.000 OA
ENDBRANCH   1  12
TORSDOF 3
