REMARK  Name = 
REMARK  4 active torsions:
REMARK  status: ('A' for Active; 'I' for Inactive)
REMARK    1  A    between atoms: CD_2  and  CG_7
REMARK    2  A    between atoms: C_3  and  CA_5
REMARK    3  A    between atoms: CA_5  and  CB_6
REMARK    4  A    between atoms: CB_6  and  CG_7
REMARK                            x       y       z     vdW  Elec       q    Type
REMARK                         _______ _______ _______ _____ _____    ______ ____
ROOT
ATOM      1  CA  GLN A   1       0.715  -0.177   0.000  0.00  0.00    +0.000 C 
ATOM      2  N   GLN A   1       0.714  -1.002   0.000  0.00  0.00    +0.000 NA
ENDROOT
BRANCH   1   3
ATOM      3  C   GLN A   1       1.429   0.236   0.000  0.00  0.00    +0.000 C 
ATOM      4  OXT GLN A   1       2.143  -0.177   0.000  0.00  0.00    +0.000 OA
ATOM      5  O   GLN A   1       1.429   1.061   0.000  0.00  0.00    +0.000 OA
ENDBRANCH   1   3
BRANCH   1   6
ATOM      6  CB  GLN A   1       0.000   0.236   0.000  0.00  0.00    +0.000 C 
BRANCH   6   7
ATOM      7  CG  GLN A   1      -0.715  -0.177   0.000  0.00  0.00    +0.000 C 
BRANCH   7   9
ATOM      8  NE2 GLN A   1      -2.143  -0.177   0.000  0.00  0.00    +0.000 NA
ATOM      9  CD  GLN A   1      -1.429   0.236   0.000  0.00  0.00    +0.000 C 
ATOM     10  OE1 GLN A   1      -1.429   1.061   0.000  0.00  0.00    +0.000 OA
ENDBRANCH   7   9
ENDBRANCH   6   7
ENDBRANCH   1   6
TORSDOF 4
