REMARK  Name = 
REMARK  7 active torsions:
REMARK  status: ('A' for Active; 'I' for Inactive)
REMARK    1  A    between atoms: N_2  and  C_3
REMARK    2  A    between atoms: C_9  and  C_11
REMARK    3  A    between atoms: C_21  and  C_23
REMARK    4  A    between atoms: C_32  and  C_33
REMARK    5  A    between atoms: C_33  and  C_35
REMARK    6  A    between atoms: C_35  and  C_36
REMARK    7  A    between atoms: C_35  and  P_46
REMARK                            x       y       z     vdW  Elec       q    Type
REMARK                         _______ _______ _______ _____ _____    ______ ____
ROOT
ATOM      1  C   UNL     1       2.858  -4.125   0.000  0.00  0.00    +0.000 A 
ATOM      2  C   UNL     1       2.858  -4.950   0.000  0.00  0.00    +0.000 A 
ATOM      3  C   UNL     1       2.143  -5.362   0.000  0.00  0.00    +0.000 A 
ATOM      4  C   UNL     1       2.143  -6.188   0.000  0.00  0.00    +0.000 A 
ATOM      5  C   UNL     1       1.429  -6.600   0.000  0.00  0.00    +0.000 A 
ATOM      6  C   UNL     1       0.715  -6.188   0.000  0.00  0.00    +0.000 A 
ATOM      7  C   UNL     1       0.715  -5.362   0.000  0.00  0.00    +0.000 A 
ATOM      8  C   UNL     1       1.429  -4.950   0.000  0.00  0.00    +0.000 A 
ATOM      9  C   UNL     1       1.429  -4.125   0.000  0.00  0.00    +0.000 A 
ATOM     10  C   UNL     1       2.143  -3.712   0.000  0.00  0.00    +0.000 A 
ENDROOT
BRANCH   1  13
ATOM     11  C   UNL     1       5.001  -3.712   0.000  0.00  0.00    +0.000 C 
ATOM     12  N   UNL     1       4.287  -4.125   0.000  0.00  0.00    +0.000 N 
ATOM     13  C   UNL     1       3.572  -3.712   0.000  0.00  0.00    +0.000 C 
ATOM     14  O   UNL     1       3.572  -2.888   0.000  0.00  0.00    +0.000 OA
BRANCH  12  15
ATOM     15  C   UNL     1       4.287  -4.950   0.000  0.00  0.00    +0.000 C 
ATOM     16  C   UNL     1       5.001  -5.362   0.000  0.00  0.00    +0.000 C 
ATOM     17  C   UNL     1       5.001  -6.188   0.000  0.00  0.00    +0.000 C 
ATOM     18  N   UNL     1       4.287  -6.600   0.000  0.00  0.00    +0.000 N 
ATOM     19  C   UNL     1       3.572  -6.188   0.000  0.00  0.00    +0.000 C 
ATOM     20  C   UNL     1       3.572  -5.362   0.000  0.00  0.00    +0.000 C 
ATOM     21  C   UNL     1       4.287  -7.425   0.000  0.00  0.00    +0.000 C 
ATOM     22  O   UNL     1       5.001  -7.838   0.000  0.00  0.00    +0.000 OA
BRANCH  21  23
ATOM     23  C   UNL     1       3.572  -7.838   0.000  0.00  0.00    +0.000 A 
ATOM     24  C   UNL     1       3.572  -8.662   0.000  0.00  0.00    +0.000 A 
ATOM     25  C   UNL     1       2.858  -9.075   0.000  0.00  0.00    +0.000 A 
ATOM     26  C   UNL     1       2.858  -9.900   0.000  0.00  0.00    +0.000 A 
ATOM     27  C   UNL     1       2.143 -10.312   0.000  0.00  0.00    +0.000 A 
ATOM     28  C   UNL     1       1.429  -9.900   0.000  0.00  0.00    +0.000 A 
ATOM     29  C   UNL     1       1.429  -9.075   0.000  0.00  0.00    +0.000 A 
ATOM     30  C   UNL     1       2.143  -8.662   0.000  0.00  0.00    +0.000 A 
ATOM     31  C   UNL     1       2.143  -7.838   0.000  0.00  0.00    +0.000 A 
ATOM     32  C   UNL     1       2.858  -7.425   0.000  0.00  0.00    +0.000 A 
ENDBRANCH  21  23
ENDBRANCH  12  15
ENDBRANCH   1  13
BRANCH  10  33
ATOM     33  C   UNL     1       2.143  -2.888   0.000  0.00  0.00    +0.000 C 
ATOM     34  O   UNL     1       2.858  -2.475   0.000  0.00  0.00    +0.000 OA
BRANCH  33  35
ATOM     35  C   UNL     1       1.429  -2.475   0.000  0.00  0.00    +0.000 C 
BRANCH  35  36
ATOM     36  C   UNL     1       1.429  -1.650   0.000  0.00  0.00    +0.000 A 
ATOM     37  C   UNL     1       0.715  -1.238   0.000  0.00  0.00    +0.000 A 
ATOM     38  C   UNL     1       0.715  -0.412   0.000  0.00  0.00    +0.000 A 
ATOM     39  C   UNL     1       1.429   0.000   0.000  0.00  0.00    +0.000 A 
ATOM     40  C   UNL     1       2.143  -0.412   0.000  0.00  0.00    +0.000 A 
ATOM     41  C   UNL     1       2.858   0.000   0.000  0.00  0.00    +0.000 A 
ATOM     42  C   UNL     1       3.572  -0.412   0.000  0.00  0.00    +0.000 A 
ATOM     43  C   UNL     1       3.572  -1.238   0.000  0.00  0.00    +0.000 A 
ATOM     44  C   UNL     1       2.858  -1.650   0.000  0.00  0.00    +0.000 A 
ATOM     45  C   UNL     1       2.143  -1.238   0.000  0.00  0.00    +0.000 A 
ENDBRANCH  35  36
BRANCH  35  46
ATOM     46  P   UNL     1       0.715  -2.888   0.000  0.00  0.00    +0.000 P 
ATOM     47  O   UNL     1       0.000  -3.300   0.000  0.00  0.00    +0.000 OA
ATOM     48  O   UNL     1       0.302  -2.173   0.000  0.00  0.00    +0.000 OA
ATOM     49  O   UNL     1       1.127  -3.602   0.000  0.00  0.00    +0.000 OA
ENDBRANCH  35  46
ENDBRANCH  33  35
ENDBRANCH  10  33
TORSDOF 7
