REMARK  Name = 
REMARK  19 active torsions:
REMARK  status: ('A' for Active; 'I' for Inactive)
REMARK    1  A    between atoms: C_2  and  N_3
REMARK    2  A    between atoms: C_2  and  B_39
REMARK    3  A    between atoms: C_4  and  C_6
REMARK    4  A    between atoms: C_6  and  C_7
REMARK    5  A    between atoms: C_6  and  N_22
REMARK    6  A    between atoms: C_7  and  C_8
REMARK    7  A    between atoms: C_8  and  C_9
REMARK    8  A    between atoms: C_9  and  C_10
REMARK    9  A    between atoms: C_10  and  N_11
REMARK   10  A    between atoms: C_12  and  O_14
REMARK   11  A    between atoms: O_14  and  C_15
REMARK   12  A    between atoms: C_15  and  C_16
REMARK   13  A    between atoms: C_23  and  C_25
REMARK   14  A    between atoms: C_25  and  C_26
REMARK   15  A    between atoms: C_26  and  C_27
REMARK   16  A    between atoms: C_27  and  N_28
REMARK   17  A    between atoms: C_27  and  C_36
REMARK   18  A    between atoms: C_29  and  O_31
REMARK   19  A    between atoms: O_31  and  C_32
REMARK                            x       y       z     vdW  Elec       q    Type
REMARK                         _______ _______ _______ _____ _____    ______ ____
ROOT
ATOM      1  C   UNK A   1       4.287  -1.650   0.000  0.00  0.00    +0.000 C 
ENDROOT
BRANCH   1   2
ATOM      2  N   UNK A   1       5.001  -1.238   0.000  0.00  0.00    +0.000 NA
ATOM      3  C   UNK A   1       5.716  -1.650   0.000  0.00  0.00    +0.000 C 
ATOM      4  O   UNK A   1       5.716  -2.475   0.000  0.00  0.00    +0.000 OA
BRANCH   3   5
ATOM      5  C   UNK A   1       6.430  -1.238   0.000  0.00  0.00    +0.000 C 
BRANCH   5   6
ATOM      6  C   UNK A   1       7.145  -1.650   0.000  0.00  0.00    +0.000 C 
BRANCH   6   7
ATOM      7  C   UNK A   1       7.859  -1.238   0.000  0.00  0.00    +0.000 C 
BRANCH   7   8
ATOM      8  C   UNK A   1       7.859  -0.412   0.000  0.00  0.00    +0.000 C 
ATOM      9  O   UNK A   1       8.574   0.000   0.000  0.00  0.00    +0.000 OA
ATOM     10  O   UNK A   1       7.145   0.000   0.000  0.00  0.00    +0.000 OA
ENDBRANCH   7   8
BRANCH   7  11
ATOM     11  N   UNK A   1       8.574  -1.650   0.000  0.00  0.00    +0.000 NA
ATOM     12  C   UNK A   0       9.288  -1.238   0.000  0.00  0.00    +0.000 C 
ATOM     13  O   UNK A   0       9.288  -0.412   0.000  0.00  0.00    +0.000 OA
BRANCH  12  14
ATOM     14  O   UNK A   0      10.003  -1.650   0.000  0.00  0.00    +0.000 OA
BRANCH  14  15
ATOM     15  C   UNK A   0      10.717  -1.238   0.000  0.00  0.00    +0.000 C 
ATOM     16  C   UNK A   0      11.431  -0.825   0.000  0.00  0.00    +0.000 C 
ATOM     17  C   UNK A   0      11.130  -1.952   0.000  0.00  0.00    +0.000 C 
ATOM     18  C   UNK A   0      10.305  -0.523   0.000  0.00  0.00    +0.000 C 
ENDBRANCH  14  15
ENDBRANCH  12  14
ENDBRANCH   7  11
ENDBRANCH   6   7
ENDBRANCH   5   6
ENDBRANCH   3   5
ENDBRANCH   1   2
BRANCH   1  20
ATOM     19  N   UNK A   1       5.001  -2.888   0.000  0.00  0.00    +0.000 NA
ATOM     20  C   UNK A   1       4.287  -2.475   0.000  0.00  0.00    +0.000 C 
ATOM     21  O   UNK A   1       3.572  -2.888   0.000  0.00  0.00    +0.000 OA
BRANCH  19  23
ATOM     22  C   UNK A   1       4.287  -4.125   0.000  0.00  0.00    +0.000 C 
ATOM     23  C   UNK A   1       5.001  -3.712   0.000  0.00  0.00    +0.000 C 
BRANCH  23  24
ATOM     24  B   UNK A   1       5.716  -4.125   0.000  0.00  0.00    +0.000 B 
ATOM     25  O   UNK A   1       6.430  -3.712   0.000  0.00  0.00    +0.000 OA
ATOM     26  O   UNK A   1       5.716  -4.950   0.000  0.00  0.00    +0.000 OA
ENDBRANCH  23  24
ENDBRANCH  19  23
ENDBRANCH   1  20
BRANCH   1  27
ATOM     27  C   UNK A   1       3.572  -1.238   0.000  0.00  0.00    +0.000 C 
BRANCH  27  28
ATOM     28  C   UNK A   1       2.858  -1.650   0.000  0.00  0.00    +0.000 C 
BRANCH  28  29
ATOM     29  C   UNK A   1       2.143  -1.238   0.000  0.00  0.00    +0.000 C 
BRANCH  29  30
ATOM     30  C   UNK A   1       1.429  -1.650   0.000  0.00  0.00    +0.000 C 
BRANCH  30  31
ATOM     31  N   UNK A   1       0.715  -1.238   0.000  0.00  0.00    +0.000 NA
ATOM     32  C   UNK A   1       0.000  -1.650   0.000  0.00  0.00    +0.000 C 
ATOM     33  O   UNK A   1       0.000  -2.475   0.000  0.00  0.00    +0.000 OA
BRANCH  32  34
ATOM     34  O   UNK A   1      -0.715  -1.238   0.000  0.00  0.00    +0.000 OA
BRANCH  34  35
ATOM     35  C   UNK A   1      -1.429  -1.650   0.000  0.00  0.00    +0.000 C 
BRANCH  35  36
ATOM     36  C   UNK A   1      -2.143  -1.238   0.000  0.00  0.00    +0.000 A 
ATOM     37  C   UNK A   1      -2.858  -1.650   0.000  0.00  0.00    +0.000 A 
ATOM     38  C   UNK A   1      -3.572  -1.238   0.000  0.00  0.00    +0.000 A 
ATOM     39  C   UNK A   1      -3.572  -0.412   0.000  0.00  0.00    +0.000 A 
ATOM     40  C   UNK A   1      -2.858   0.000   0.000  0.00  0.00    +0.000 A 
ATOM     41  C   UNK A   1      -2.143  -0.412   0.000  0.00  0.00    +0.000 A 
ENDBRANCH  35  36
ENDBRANCH  34  35
ENDBRANCH  32  34
ENDBRANCH  30  31
ENDBRANCH  29  30
ENDBRANCH  28  29
ENDBRANCH  27  28
ENDBRANCH   1  27
TORSDOF 19
