REMARK  Name = 
REMARK  5 active torsions:
REMARK  status: ('A' for Active; 'I' for Inactive)
REMARK    1  A    between atoms: N_5  and  C_19
REMARK    2  A    between atoms: N_6  and  C_30
REMARK    3  A    between atoms: C_7  and  C_12
REMARK    4  A    between atoms: C_12  and  C_22
REMARK    5  A    between atoms: C_20  and  C_23
REMARK                            x       y       z     vdW  Elec       q    Type
REMARK                         _______ _______ _______ _____ _____    ______ ____
ROOT
ATOM      1  O   UNL     1       6.742  -2.155   0.000  0.00  0.00    +0.000 OA
ATOM      2  N   UNL     1       6.220  -0.825   0.000  0.00  0.00    +0.000 N 
ATOM      3  C   UNL     1       4.549  -0.021   0.000  0.00  0.00    +0.000 C 
ATOM      4  C   UNL     1       5.064   0.625   0.000  0.00  0.00    +0.000 C 
ATOM      5  C   UNL     1       5.889   0.625   0.000  0.00  0.00    +0.000 C 
ATOM      6  C   UNL     1       4.733  -0.825   0.000  0.00  0.00    +0.000 A 
ATOM      7  C   UNL     1       6.403  -0.021   0.000  0.00  0.00    +0.000 C 
ATOM      8  C   UNL     1       5.476  -1.183   0.000  0.00  0.00    +0.000 A 
ATOM      9  C   UNL     1       4.016  -1.298   0.000  0.00  0.00    +0.000 A 
ATOM     10  C   UNL     1       6.865  -1.339   0.000  0.00  0.00    +0.000 C 
ATOM     11  C   UNL     1       5.554  -2.039   0.000  0.00  0.00    +0.000 A 
ATOM     12  C   UNL     1       4.073  -2.155   0.000  0.00  0.00    +0.000 A 
ATOM     13  C   UNL     1       4.847  -2.528   0.000  0.00  0.00    +0.000 A 
ENDROOT
BRANCH  10  16
ATOM     14 CL   UNL     1       8.155  -2.368   0.000  0.00  0.00    +0.000 Cl
ATOM     15  C   UNL     1       9.169  -0.435   0.000  0.00  0.00    +0.000 A 
ATOM     16  C   UNL     1       7.633  -1.038   0.000  0.00  0.00    +0.000 A 
ATOM     17  C   UNL     1       9.046  -1.251   0.000  0.00  0.00    +0.000 A 
ATOM     18  C   UNL     1       8.524   0.079   0.000  0.00  0.00    +0.000 A 
ATOM     19  C   UNL     1       8.278  -1.552   0.000  0.00  0.00    +0.000 A 
ATOM     20  C   UNL     1       7.756  -0.222   0.000  0.00  0.00    +0.000 A 
BRANCH  15  21
ATOM     21  N   UNL     1       9.937  -0.134   0.000  0.00  0.00    +0.000 N 
ATOM     22  C   UNL     1      10.632  -0.578   0.000  0.00  0.00    +0.000 C 
ATOM     23  C   UNL     1      10.144   0.665   0.000  0.00  0.00    +0.000 C 
ATOM     24  C   UNL     1      11.269  -0.054   0.000  0.00  0.00    +0.000 C 
ATOM     25  C   UNL     1      10.968   0.714   0.000  0.00  0.00    +0.000 C 
ENDBRANCH  15  21
ENDBRANCH  10  16
BRANCH   3  26
ATOM     26  C   UNL     1       3.745   0.163   0.000  0.00  0.00    +0.000 C 
BRANCH  26  29
ATOM     27  O   UNL     1       4.063   1.556   0.000  0.00  0.00    +0.000 OA
ATOM     28  N   UNL     1       2.698   1.135   0.000  0.00  0.00    +0.000 NA
ATOM     29  C   UNL     1       3.502   0.952   0.000  0.00  0.00    +0.000 C 
BRANCH  28  30
ATOM     30  C   UNL     1       2.454   1.923   0.000  0.00  0.00    +0.000 C 
ATOM     31  C   UNL     1       3.015   2.528   0.000  0.00  0.00    +0.000 C 
ATOM     32  C   UNL     1       1.650   2.107   0.000  0.00  0.00    +0.000 C 
ENDBRANCH  28  30
ENDBRANCH  26  29
ENDBRANCH   3  26
TORSDOF 5
