REMARK  Name = 
REMARK  3 active torsions:
REMARK  status: ('A' for Active; 'I' for Inactive)
REMARK    1  A    between atoms: C_3  and  O_16
REMARK    2  A    between atoms: C_10  and  C_11
REMARK    3  A    between atoms: C_11  and  C_12
REMARK                            x       y       z     vdW  Elec       q    Type
REMARK                         _______ _______ _______ _____ _____    ______ ____
ROOT
ATOM      1  C   UNL     1      -1.679   1.031   0.000  0.00  0.00    +0.000 A 
ATOM      2  C   UNL     1      -2.394   0.619   0.000  0.00  0.00    +0.000 A 
ATOM      3  C   UNL     1      -2.394  -0.206   0.000  0.00  0.00    +0.000 A 
ATOM      4  C   UNL     1      -1.679  -0.619   0.000  0.00  0.00    +0.000 A 
ATOM      5  C   UNL     1      -0.965  -0.206   0.000  0.00  0.00    +0.000 A 
ATOM      6  C   UNL     1      -0.965   0.619   0.000  0.00  0.00    +0.000 A 
ATOM      7  C   UNL     1      -0.251   1.031   0.000  0.00  0.00    +0.000 A 
ATOM      8  C   UNL     1      -0.251  -0.619   0.000  0.00  0.00    +0.000 A 
ATOM      9  C   UNL     1       0.464  -0.206   0.000  0.00  0.00    +0.000 A 
ATOM     10  C   UNL     1       0.464   0.619   0.000  0.00  0.00    +0.000 A 
ENDROOT
BRANCH  10  11
ATOM     11  C   UNL     1       1.178   1.031   0.000  0.00  0.00    +0.000 C 
ATOM     12  C   UNL     1       1.178   1.856   0.000  0.00  0.00    +0.000 C 
BRANCH  11  13
ATOM     13  C   UNL     1       1.893   0.619   0.000  0.00  0.00    +0.000 C 
ATOM     14  O   UNL     1       1.893  -0.206   0.000  0.00  0.00    +0.000 OA
ATOM     15  O   UNL     1       2.607   1.031   0.000  0.00  0.00    +0.000 OA
ENDBRANCH  11  13
ENDBRANCH  10  11
BRANCH   3  16
ATOM     16  O   UNL     1      -3.108  -0.619   0.000  0.00  0.00    +0.000 OA
ATOM     17  C   UNL     1      -3.108  -1.444   0.000  0.00  0.00    +0.000 C 
ENDBRANCH   3  16
TORSDOF 3
