REMARK  Name = 
REMARK  3 active torsions:
REMARK  status: ('A' for Active; 'I' for Inactive)
REMARK    1  A    between atoms: N_4  and  C_17
REMARK    2  A    between atoms: C_19  and  C_20
REMARK    3  A    between atoms: C_25  and  C_26
REMARK                            x       y       z     vdW  Elec       q    Type
REMARK                         _______ _______ _______ _____ _____    ______ ____
ROOT
ATOM      1  C   UNL     1       2.365  -0.134   0.000  0.00  0.00    +0.000 C 
ATOM      2  C   UNL     1       2.365   1.516   0.000  0.00  0.00    +0.000 C 
ATOM      3  C   UNL     1       1.650   0.278   0.000  0.00  0.00    +0.000 C 
ATOM      4  C   UNL     1       1.650   1.103   0.000  0.00  0.00    +0.000 C 
ATOM      5  C   UNL     1       3.079   0.278   0.000  0.00  0.00    +0.000 A 
ATOM      6  C   UNL     1       3.079   1.103   0.000  0.00  0.00    +0.000 A 
ATOM      7  C   UNL     1       1.952  -0.849   0.000  0.00  0.00    +0.000 C 
ATOM      8  C   UNL     1       2.777  -0.849   0.000  0.00  0.00    +0.000 C 
ATOM      9  C   UNL     1       1.952   2.230   0.000  0.00  0.00    +0.000 C 
ATOM     10  C   UNL     1       2.777   2.230   0.000  0.00  0.00    +0.000 C 
ATOM     11  C   UNL     1       3.817  -0.163   0.000  0.00  0.00    +0.000 A 
ATOM     12  C   UNL     1       3.817   1.544   0.000  0.00  0.00    +0.000 A 
ATOM     13  C   UNL     1       4.564   0.261   0.000  0.00  0.00    +0.000 A 
ATOM     14  C   UNL     1       4.564   1.121   0.000  0.00  0.00    +0.000 A 
ENDROOT
BRANCH  13  16
ATOM     15  O   UNL     1       5.996   1.081   0.000  0.00  0.00    +0.000 OA
ATOM     16  N   UNL     1       5.277  -0.154   0.000  0.00  0.00    +0.000 NA
ATOM     17  C   UNL     1       5.993   0.256   0.000  0.00  0.00    +0.000 C 
BRANCH  17  18
ATOM     18  C   UNL     1       6.706  -0.160   0.000  0.00  0.00    +0.000 A 
ATOM     19  C   UNL     1       7.422   0.250   0.000  0.00  0.00    +0.000 A 
ATOM     20  C   UNL     1       6.703  -0.985   0.000  0.00  0.00    +0.000 A 
ATOM     21  C   UNL     1       8.135  -0.165   0.000  0.00  0.00    +0.000 A 
ATOM     22  C   UNL     1       7.415  -1.400   0.000  0.00  0.00    +0.000 A 
ATOM     23  C   UNL     1       8.132  -0.990   0.000  0.00  0.00    +0.000 A 
BRANCH  23  26
ATOM     24  O   UNL     1       9.560  -0.996   0.000  0.00  0.00    +0.000 OA
ATOM     25  O   UNL     1       8.841  -2.230   0.000  0.00  0.00    +0.000 OA
ATOM     26  C   UNL     1       8.845  -1.405   0.000  0.00  0.00    +0.000 C 
ENDBRANCH  23  26
ENDBRANCH  17  18
ENDBRANCH  13  16
TORSDOF 3
