REMARK  Name = 
REMARK  14 active torsions:
REMARK  status: ('A' for Active; 'I' for Inactive)
REMARK    1  A    between atoms: C_10  and  C_35
REMARK    2  A    between atoms: C_15  and  C_18
REMARK    3  A    between atoms: C_15  and  O_44
REMARK    4  A    between atoms: C_16  and  C_22
REMARK    5  A    between atoms: C_16  and  O_43
REMARK    6  A    between atoms: C_17  and  C_26
REMARK    7  A    between atoms: C_17  and  O_45
REMARK    8  A    between atoms: C_18  and  C_24
REMARK    9  A    between atoms: C_20  and  O_44
REMARK   10  A    between atoms: C_21  and  O_46
REMARK   11  A    between atoms: C_32  and  O_48
REMARK   12  A    between atoms: C_33  and  O_46
REMARK   13  A    between atoms: C_34  and  O_48
REMARK   14  A    between atoms: C_35  and  O_45
REMARK                            x       y       z     vdW  Elec       q    Type
REMARK                         _______ _______ _______ _____ _____    ______ ____
ROOT
ATOM      1  C   UNL     1       2.680   3.462   0.000  0.00  0.00    +0.000 C 
ATOM      2  C   UNL     1       0.702   0.539   0.000  0.00  0.00    +0.000 C 
ATOM      3  C   UNL     1       3.428   1.250   0.000  0.00  0.00    +0.000 C 
ATOM      4  C   UNL     1       3.235   2.052   0.000  0.00  0.00    +0.000 C 
ATOM      5  C   UNL     1      -0.758   1.250   0.000  0.00  0.00    +0.000 C 
ATOM      6  C   UNL     1       1.335   1.039   0.000  0.00  0.00    +0.000 C 
ATOM      7  C   UNL     1       2.097   2.879   0.000  0.00  0.00    +0.000 C 
ATOM      8  C   UNL     1       2.724   0.819   0.000  0.00  0.00    +0.000 C 
ATOM      9  C   UNL     1       2.413   2.116   0.000  0.00  0.00    +0.000 C 
ATOM     10  C   UNL     1      -0.566   2.052   0.000  0.00  0.00    +0.000 C 
ATOM     11  C   UNL     1       2.097   1.354   0.000  0.00  0.00    +0.000 C 
ATOM     12  C   UNL     1      -0.055   0.819   0.000  0.00  0.00    +0.000 C 
ATOM     13  C   UNL     1       0.257   2.116   0.000  0.00  0.00    +0.000 C 
ATOM     14  C   UNL     1       1.335   3.194   0.000  0.00  0.00    +0.000 C 
ATOM     15  C   UNL     1       0.573   2.879   0.000  0.00  0.00    +0.000 C 
ATOM     16  C   UNL     1       0.573   1.354   0.000  0.00  0.00    +0.000 C 
ATOM     17  O   UNL     1       0.010  -0.004   0.000  0.00  0.00    +0.000 OA
ATOM     18  O   UNL     1       1.335   4.019   0.000  0.00  0.00    +0.000 OA
ENDROOT
BRANCH  10  20
ATOM     19  C   UNL     1      -0.826   3.457   0.000  0.00  0.00    +0.000 C 
ATOM     20  C   UNL     1      -1.101   2.679   0.000  0.00  0.00    +0.000 C 
BRANCH  20  21
ATOM     21  C   UNL     1      -1.913   2.529   0.000  0.00  0.00    +0.000 C 
BRANCH  21  22
ATOM     22  O   UNL     1      -2.448   3.156   0.000  0.00  0.00    +0.000 OA
BRANCH  22  24
ATOM     23  C   UNL     1      -3.535   2.228   0.000  0.00  0.00    +0.000 C 
ATOM     24  C   UNL     1      -3.260   3.006   0.000  0.00  0.00    +0.000 C 
ATOM     25  O   UNL     1      -3.795   3.633   0.000  0.00  0.00    +0.000 OA
ENDBRANCH  22  24
ENDBRANCH  21  22
ENDBRANCH  20  21
ENDBRANCH  10  20
BRANCH   8  26
ATOM     26  C   UNL     1       2.660  -0.004   0.000  0.00  0.00    +0.000 C 
BRANCH  26  28
ATOM     27  C   UNL     1       4.084  -0.116   0.000  0.00  0.00    +0.000 C 
ATOM     28  O   UNL     1       3.340  -0.471   0.000  0.00  0.00    +0.000 OA
ENDBRANCH  26  28
ENDBRANCH   8  26
BRANCH  15  29
ATOM     29  O   UNL     1      -0.011   3.462   0.000  0.00  0.00    +0.000 OA
BRANCH  29  34
ATOM     30  C   UNL     1       1.213   5.269   0.000  0.00  0.00    +0.000 C 
ATOM     31  C   UNL     1       0.630   5.853   0.000  0.00  0.00    +0.000 C 
ATOM     32  C   UNL     1      -0.381   4.842   0.000  0.00  0.00    +0.000 C 
ATOM     33  C   UNL     1      -0.167   5.639   0.000  0.00  0.00    +0.000 C 
ATOM     34  C   UNL     1       0.203   4.259   0.000  0.00  0.00    +0.000 C 
ATOM     35  O   UNL     1       0.843   6.650   0.000  0.00  0.00    +0.000 OA
ATOM     36  O   UNL     1      -1.177   4.629   0.000  0.00  0.00    +0.000 OA
ATOM     37  O   UNL     1       1.000   4.473   0.000  0.00  0.00    +0.000 OA
BRANCH  30  38
ATOM     38  C   UNL     1       2.010   5.483   0.000  0.00  0.00    +0.000 C 
BRANCH  38  39
ATOM     39  O   UNL     1       2.224   6.280   0.000  0.00  0.00    +0.000 OA
BRANCH  39  42
ATOM     40  C   UNL     1       2.807   7.290   0.000  0.00  0.00    +0.000 C 
ATOM     41  C   UNL     1       3.234   5.696   0.000  0.00  0.00    +0.000 C 
ATOM     42  C   UNL     1       3.021   6.493   0.000  0.00  0.00    +0.000 C 
BRANCH  42  44
ATOM     43  C   UNL     1       4.031   7.504   0.000  0.00  0.00    +0.000 C 
ATOM     44  C   UNL     1       3.817   6.707   0.000  0.00  0.00    +0.000 C 
ENDBRANCH  42  44
ENDBRANCH  39  42
ENDBRANCH  38  39
ENDBRANCH  30  38
BRANCH  33  45
ATOM     45  O   UNL     1      -0.750   6.223   0.000  0.00  0.00    +0.000 OA
BRANCH  45  47
ATOM     46  C   UNL     1      -2.131   6.592   0.000  0.00  0.00    +0.000 C 
ATOM     47  C   UNL     1      -1.547   6.009   0.000  0.00  0.00    +0.000 C 
ATOM     48  O   UNL     1      -1.761   5.212   0.000  0.00  0.00    +0.000 OA
ENDBRANCH  45  47
ENDBRANCH  33  45
ENDBRANCH  29  34
ENDBRANCH  15  29
TORSDOF 14
