REMARK  Name = 
REMARK  13 active torsions:
REMARK  status: ('A' for Active; 'I' for Inactive)
REMARK    1  A    between atoms: C_2  and  O_4
REMARK    2  A    between atoms: O_4  and  C_5
REMARK    3  A    between atoms: C_5  and  C_6
REMARK    4  A    between atoms: C_6  and  N_7
REMARK    5  A    between atoms: C_8  and  C_10
REMARK    6  A    between atoms: C_10  and  C_11
REMARK    7  A    between atoms: C_11  and  N_12
REMARK    8  A    between atoms: C_13  and  C_15
REMARK    9  A    between atoms: C_15  and  C_17
REMARK   10  A    between atoms: C_17  and  C_20
REMARK   11  A    between atoms: C_20  and  O_21
REMARK   12  A    between atoms: O_21  and  C_22
REMARK   13  A    between atoms: C_22  and  C_24
REMARK                            x       y       z     vdW  Elec       q    Type
REMARK                         _______ _______ _______ _____ _____    ______ ____
ROOT
ATOM      1  N   UNL     1      13.664  -4.589   0.000  0.00  0.00    +0.000 NA
ATOM      2  C   UNL     1      14.378  -5.001   0.000  0.00  0.00    +0.000 C 
ATOM      3  O   UNL     1      14.378  -5.826   0.000  0.00  0.00    +0.000 OA
ENDROOT
BRANCH   2   4
ATOM      4  C   UNL     1      15.093  -4.589   0.000  0.00  0.00    +0.000 C 
ATOM      5  O   UNL     1      15.093  -3.764   0.000  0.00  0.00    +0.000 OA
BRANCH   4   6
ATOM      6  C   UNL     1      15.807  -5.001   0.000  0.00  0.00    +0.000 C 
ATOM      7  C   UNL     1      15.395  -5.716   0.000  0.00  0.00    +0.000 C 
ATOM      8  C   UNL     1      16.220  -4.287   0.000  0.00  0.00    +0.000 C 
BRANCH   6   9
ATOM      9  C   UNL     1      16.522  -5.414   0.000  0.00  0.00    +0.000 C 
BRANCH   9  10
ATOM     10  O   UNL     1      17.236  -5.001   0.000  0.00  0.00    +0.000 OA
BRANCH  10  11
ATOM     11  C   UNL     1      17.951  -5.414   0.000  0.00  0.00    +0.000 C 
ATOM     12  O   UNL     1      17.951  -6.239   0.000  0.00  0.00    +0.000 OA
BRANCH  11  13
ATOM     13  C   UNL     1      18.665  -5.001   0.000  0.00  0.00    +0.000 C 
ATOM     14  C   UNL     1      19.380  -4.589   0.000  0.00  0.00    +0.000 C 
ATOM     15  C   UNL     1      19.078  -5.716   0.000  0.00  0.00    +0.000 C 
ATOM     16  C   UNL     1      18.253  -4.287   0.000  0.00  0.00    +0.000 C 
ENDBRANCH  11  13
ENDBRANCH  10  11
ENDBRANCH   9  10
ENDBRANCH   6   9
ENDBRANCH   4   6
ENDBRANCH   2   4
BRANCH   1  17
ATOM     17  C   UNL     1      12.949  -5.001   0.000  0.00  0.00    +0.000 C 
BRANCH  17  18
ATOM     18  C   UNL     1      12.235  -4.589   0.000  0.00  0.00    +0.000 C 
BRANCH  18  20
ATOM     19  N   UNL     1      10.806  -4.589   0.000  0.00  0.00    +0.000 NA
ATOM     20  C   UNL     1      11.520  -5.001   0.000  0.00  0.00    +0.000 C 
ATOM     21  O   UNL     1      11.520  -5.826   0.000  0.00  0.00    +0.000 OA
BRANCH  19  22
ATOM     22  C   UNL     1      10.091  -5.001   0.000  0.00  0.00    +0.000 C 
BRANCH  22  23
ATOM     23  C   UNL     1       9.377  -4.589   0.000  0.00  0.00    +0.000 C 
BRANCH  23  24
ATOM     24  O   UNL     1       8.662  -5.001   0.000  0.00  0.00    +0.000 OA
BRANCH  24  26
ATOM     25  C   UNL     1       7.234  -5.001   0.000  0.00  0.00    +0.000 C 
ATOM     26  C   UNL     1       7.948  -4.589   0.000  0.00  0.00    +0.000 C 
ATOM     27  O   UNL     1       7.948  -3.764   0.000  0.00  0.00    +0.000 OA
ENDBRANCH  24  26
ENDBRANCH  23  24
ENDBRANCH  22  23
ENDBRANCH  19  22
ENDBRANCH  18  20
ENDBRANCH  17  18
ENDBRANCH   1  17
TORSDOF 13
