REMARK  Name = 
REMARK  2 active torsions:
REMARK  status: ('A' for Active; 'I' for Inactive)
REMARK    1  A    between atoms: C_3  and  C_8
REMARK    2  A    between atoms: C_8  and  N_9
REMARK                            x       y       z     vdW  Elec       q    Type
REMARK                         _______ _______ _______ _____ _____    ______ ____
ROOT
ATOM      1  C   UNL     1       1.429   0.000   0.000  0.00  0.00    +0.000 A 
ATOM      2  C   UNL     1       0.715  -0.412   0.000  0.00  0.00    +0.000 A 
ATOM      3  C   UNL     1       0.000   0.000   0.000  0.00  0.00    +0.000 A 
ATOM      4  C   UNL     1       0.000   0.825   0.000  0.00  0.00    +0.000 A 
ATOM      5  C   UNL     1       0.715   1.238   0.000  0.00  0.00    +0.000 A 
ATOM      6  C   UNL     1       1.429   0.825   0.000  0.00  0.00    +0.000 A 
ATOM      7  I   UNL     1       0.715   2.062   0.000  0.00  0.00    +0.000 I 
ENDROOT
BRANCH   3   8
ATOM      8  C   UNL     1      -0.715  -0.412   0.000  0.00  0.00    +0.000 C 
BRANCH   8   9
ATOM      9  N   UNL     1      -0.715  -1.238   0.000  0.00  0.00    +0.000 NA
ATOM     10  C   UNL     1      -1.429  -1.650   0.000  0.00  0.00    +0.000 C 
ATOM     11  N   UNL     1      -1.429  -2.475   0.000  0.00  0.00    +0.000 NA
ATOM     12  N   UNL     1      -2.143  -1.238   0.000  0.00  0.00    +0.000 NA
ENDBRANCH   8   9
ENDBRANCH   3   8
TORSDOF 2
