REMARK  Name = 
REMARK  6 active torsions:
REMARK  status: ('A' for Active; 'I' for Inactive)
REMARK    1  A    between atoms: C_8  and  C_10
REMARK    2  A    between atoms: C_8  and  C_17
REMARK    3  A    between atoms: C_10  and  O_23
REMARK    4  A    between atoms: C_13  and  C_15
REMARK    5  A    between atoms: C_13  and  N_21
REMARK    6  A    between atoms: C_16  and  O_23
REMARK                            x       y       z     vdW  Elec       q    Type
REMARK                         _______ _______ _______ _____ _____    ______ ____
ROOT
ATOM      1  C   UNL     1      -2.858   8.004   0.000  0.00  0.00    +0.000 A 
ATOM      2  C   UNL     1      -3.572   8.416   0.000  0.00  0.00    +0.000 A 
ATOM      3  C   UNL     1      -3.572   6.766   0.000  0.00  0.00    +0.000 A 
ATOM      4  C   UNL     1      -2.858   7.179   0.000  0.00  0.00    +0.000 A 
ATOM      5  C   UNL     1      -4.287   7.179   0.000  0.00  0.00    +0.000 A 
ATOM      6  N   UNL     1      -4.287   8.004   0.000  0.00  0.00    +0.000 N 
ATOM      7  O   UNL     1      -5.001   6.766   0.000  0.00  0.00    +0.000 OA
ENDROOT
BRANCH   6   8
ATOM      8  C   UNL     1      -5.001   8.416   0.000  0.00  0.00    +0.000 C 
BRANCH   8  14
ATOM      9  C   UNL     1      -3.572   9.241   0.000  0.00  0.00    +0.000 C 
ATOM     10  C   UNL     1      -5.716  10.479   0.000  0.00  0.00    +0.000 A 
ATOM     11  C   UNL     1      -5.716   9.654   0.000  0.00  0.00    +0.000 A 
ATOM     12  C   UNL     1      -5.001  10.891   0.000  0.00  0.00    +0.000 A 
ATOM     13  C   UNL     1      -4.287   9.654   0.000  0.00  0.00    +0.000 A 
ATOM     14  C   UNL     1      -5.001   9.241   0.000  0.00  0.00    +0.000 A 
ATOM     15  C   UNL     1      -4.287  10.479   0.000  0.00  0.00    +0.000 A 
ATOM     16  N   UNL     1      -3.572  10.891   0.000  0.00  0.00    +0.000 NA
ENDBRANCH   8  14
ENDBRANCH   6   8
BRANCH   4  17
ATOM     17  O   UNL     1      -2.143   6.766   0.000  0.00  0.00    +0.000 OA
BRANCH  17  18
ATOM     18  C   UNL     1      -2.143   5.941   0.000  0.00  0.00    +0.000 C 
BRANCH  18  19
ATOM     19  C   UNL     1      -1.429   5.529   0.000  0.00  0.00    +0.000 C 
BRANCH  19  23
ATOM     20  C   UNL     1      -1.016   3.434   0.000  0.00  0.00    +0.000 A 
ATOM     21  C   UNL     1      -0.761   4.219   0.000  0.00  0.00    +0.000 A 
ATOM     22  C   UNL     1      -1.841   3.434   0.000  0.00  0.00    +0.000 A 
ATOM     23  C   UNL     1      -1.429   4.704   0.000  0.00  0.00    +0.000 A 
ATOM     24  S   UNL     1      -2.096   4.219   0.000  0.00  0.00    +0.000 S 
ENDBRANCH  19  23
ENDBRANCH  18  19
ENDBRANCH  17  18
ENDBRANCH   4  17
TORSDOF 6
