REMARK  Name = 
REMARK  6 active torsions:
REMARK  status: ('A' for Active; 'I' for Inactive)
REMARK    1  A    between atoms: N_10  and  C_11
REMARK    2  A    between atoms: C_13  and  C_14
REMARK    3  A    between atoms: C_14  and  O_15
REMARK    4  A    between atoms: O_15  and  P_16
REMARK    5  A    between atoms: P_16  and  O_19
REMARK    6  A    between atoms: O_19  and  P_20
REMARK                            x       y       z     vdW  Elec       q    Type
REMARK                         _______ _______ _______ _____ _____    ______ ____
ROOT
ATOM      1  C   UNL     1       0.606   5.389   0.000  0.00  0.00    +0.000 C 
ATOM      2  O   UNL     1       1.413   5.217   0.000  0.00  0.00    +0.000 OA
ATOM      3  C   UNL     1       1.499   4.397   0.000  0.00  0.00    +0.000 C 
ATOM      4  C   UNL     1       0.745   4.061   0.000  0.00  0.00    +0.000 C 
ATOM      5  O   UNL     1       0.333   3.346   0.000  0.00  0.00    +0.000 OA
ATOM      6  V   UNL     1      -0.474   3.518   0.000  0.00  0.00    +0.000 V 
ATOM      7  O   UNL     1      -0.560   2.698   0.000  0.00  0.00    +0.000 OA
ATOM      8  O   UNL     1      -1.299   3.518   0.000  0.00  0.00    +0.000 OA
ATOM      9  O   UNL     1      -0.560   4.338   0.000  0.00  0.00    +0.000 OA
ATOM     10  C   UNL     1       0.193   4.674   0.000  0.00  0.00    +0.000 C 
ENDROOT
BRANCH   1  20
ATOM     11  N   UNL     1      -0.166   8.867   0.000  0.00  0.00    +0.000 NA
ATOM     12  C   UNL     1       0.386   8.254   0.000  0.00  0.00    +0.000 A 
ATOM     13  N   UNL     1       1.193   8.426   0.000  0.00  0.00    +0.000 NA
ATOM     14  C   UNL     1       1.745   7.813   0.000  0.00  0.00    +0.000 A 
ATOM     15  N   UNL     1       1.490   7.028   0.000  0.00  0.00    +0.000 NA
ATOM     16  C   UNL     1       0.683   6.857   0.000  0.00  0.00    +0.000 A 
ATOM     17  C   UNL     1       0.131   7.470   0.000  0.00  0.00    +0.000 A 
ATOM     18  N   UNL     1      -0.623   7.134   0.000  0.00  0.00    +0.000 NA
ATOM     19  C   UNL     1      -0.537   6.314   0.000  0.00  0.00    +0.000 A 
ATOM     20  N   UNL     1       0.270   6.142   0.000  0.00  0.00    +0.000 N 
ENDBRANCH   1  20
BRANCH   3  21
ATOM     21  C   UNL     1       2.214   3.984   0.000  0.00  0.00    +0.000 C 
BRANCH  21  22
ATOM     22  O   UNL     1       2.928   4.397   0.000  0.00  0.00    +0.000 OA
BRANCH  22  23
ATOM     23  P   UNL     1       3.643   3.984   0.000  0.00  0.00    +0.000 P 
ATOM     24  O   UNL     1       3.230   3.270   0.000  0.00  0.00    +0.000 OA
ATOM     25  O   UNL     1       4.055   4.699   0.000  0.00  0.00    +0.000 OA
BRANCH  23  26
ATOM     26  O   UNL     1       4.357   3.572   0.000  0.00  0.00    +0.000 OA
BRANCH  26  27
ATOM     27  P   UNL     1       5.071   3.984   0.000  0.00  0.00    +0.000 P 
ATOM     28  O   UNL     1       5.786   4.397   0.000  0.00  0.00    +0.000 OA
ATOM     29  O   UNL     1       5.484   3.270   0.000  0.00  0.00    +0.000 OA
ATOM     30  O   UNL     1       4.659   4.699   0.000  0.00  0.00    +0.000 OA
ENDBRANCH  26  27
ENDBRANCH  23  26
ENDBRANCH  22  23
ENDBRANCH  21  22
ENDBRANCH   3  21
TORSDOF 6
