REMARK  Name = 
REMARK  8 active torsions:
REMARK  status: ('A' for Active; 'I' for Inactive)
REMARK    1  A    between atoms: C_4  and  C_8
REMARK    2  A    between atoms: C_5  and  O_22
REMARK    3  A    between atoms: C_6  and  O_23
REMARK    4  A    between atoms: C_9  and  C_10
REMARK    5  A    between atoms: C_10  and  O_22
REMARK    6  A    between atoms: C_10  and  O_24
REMARK    7  A    between atoms: O_23  and  P_25
REMARK    8  A    between atoms: O_24  and  P_26
REMARK                            x       y       z     vdW  Elec       q    Type
REMARK                         _______ _______ _______ _____ _____    ______ ____
ROOT
ATOM      1  C   UNL     1       0.715  -0.412   0.000  0.00  0.00    +0.000 C 
ATOM      2  C   UNL     1       1.429   0.825   0.000  0.00  0.00    +0.000 C 
ATOM      3  C   UNL     1       1.429   0.000   0.000  0.00  0.00    +0.000 C 
ATOM      4  C   UNL     1       0.000   0.000   0.000  0.00  0.00    +0.000 C 
ATOM      5  C   UNL     1       0.715   1.238   0.000  0.00  0.00    +0.000 C 
ATOM      6  C   UNL     1       0.000   0.825   0.000  0.00  0.00    +0.000 C 
ATOM      7  O   UNL     1      -0.715   1.238   0.000  0.00  0.00    +0.000 OA
ENDROOT
BRANCH   3   8
ATOM      8  C   UNL     1       2.143  -0.412   0.000  0.00  0.00    +0.000 C 
ATOM      9  O   UNL     1       2.858   0.000   0.000  0.00  0.00    +0.000 OA
ATOM     10  O   UNL     1       2.143  -1.238   0.000  0.00  0.00    +0.000 OA
ENDBRANCH   3   8
BRANCH   4  11
ATOM     11  O   UNL     1      -0.715  -0.412   0.000  0.00  0.00    +0.000 OA
BRANCH  11  13
ATOM     12  C   UNL     1      -1.016   0.715   0.000  0.00  0.00    +0.000 C 
ATOM     13  C   UNL     1      -1.429   0.000   0.000  0.00  0.00    +0.000 C 
BRANCH  13  14
ATOM     14  C   UNL     1      -1.841  -0.715   0.000  0.00  0.00    +0.000 C 
ATOM     15  O   UNL     1      -1.429  -1.429   0.000  0.00  0.00    +0.000 OA
ATOM     16  O   UNL     1      -2.666  -0.715   0.000  0.00  0.00    +0.000 OA
ENDBRANCH  13  14
BRANCH  13  17
ATOM     17  O   UNL     1      -2.143   0.412   0.000  0.00  0.00    +0.000 OA
BRANCH  17  21
ATOM     18  O   UNL     1      -2.968   1.238   0.000  0.00  0.00    +0.000 OA
ATOM     19  O   UNL     1      -2.143   2.062   0.000  0.00  0.00    +0.000 OA
ATOM     20  O   UNL     1      -1.318   1.238   0.000  0.00  0.00    +0.000 OA
ATOM     21  P   UNL     1      -2.143   1.238   0.000  0.00  0.00    +0.000 P 
ENDBRANCH  17  21
ENDBRANCH  13  17
ENDBRANCH  11  13
ENDBRANCH   4  11
BRANCH   5  22
ATOM     22  O   UNL     1       0.715   2.062   0.000  0.00  0.00    +0.000 OA
BRANCH  22  26
ATOM     23  O   UNL     1       2.143   2.888   0.000  0.00  0.00    +0.000 OA
ATOM     24  O   UNL     1       1.016   3.189   0.000  0.00  0.00    +0.000 OA
ATOM     25  O   UNL     1       1.841   1.760   0.000  0.00  0.00    +0.000 OA
ATOM     26  P   UNL     1       1.429   2.475   0.000  0.00  0.00    +0.000 P 
ENDBRANCH  22  26
ENDBRANCH   5  22
TORSDOF 8
