REMARK  Name = 
REMARK  6 active torsions:
REMARK  status: ('A' for Active; 'I' for Inactive)
REMARK    1  A    between atoms: C_1  and  N_2
REMARK    2  A    between atoms: C_7  and  C_12
REMARK    3  A    between atoms: C_12  and  O_16
REMARK    4  A    between atoms: O_16  and  P_18
REMARK    5  A    between atoms: P_18  and  O_19
REMARK    6  A    between atoms: O_19  and  P_22
REMARK                            x       y       z     vdW  Elec       q    Type
REMARK                         _______ _______ _______ _____ _____    ______ ____
ROOT
ATOM      1  C   UNL     1       1.217   0.000   0.000  0.00  0.00    +0.000 C 
ATOM      2  O   UNL     1       0.574   0.474   0.000  0.00  0.00    +0.000 OA
ATOM      3  C   UNL     1       0.973  -0.804   0.000  0.00  0.00    +0.000 C 
ATOM      4  C   UNL     1      -0.100  -0.017   0.000  0.00  0.00    +0.000 C 
ATOM      5  C   UNL     1       0.148  -0.804   0.000  0.00  0.00    +0.000 C 
ATOM      6  O   UNL     1      -0.340  -1.468   0.000  0.00  0.00    +0.000 OA
ENDROOT
BRANCH   1   7
ATOM      7  N   UNL     1       2.004   0.261   0.000  0.00  0.00    +0.000 N 
ATOM      8  C   UNL     1       2.623  -0.289   0.000  0.00  0.00    +0.000 A 
ATOM      9  C   UNL     1       2.176   1.066   0.000  0.00  0.00    +0.000 A 
ATOM     10  N   UNL     1       3.413  -0.031   0.000  0.00  0.00    +0.000 NA
ATOM     11  O   UNL     1       2.461  -1.097   0.000  0.00  0.00    +0.000 OA
ATOM     12  C   UNL     1       2.956   1.330   0.000  0.00  0.00    +0.000 A 
ATOM     13  C   UNL     1       3.582   0.780   0.000  0.00  0.00    +0.000 A 
ATOM     14  C   UNL     1       3.118   2.138   0.000  0.00  0.00    +0.000 C 
ATOM     15  O   UNL     1       4.365   1.035   0.000  0.00  0.00    +0.000 OA
ENDBRANCH   1   7
BRANCH   4  16
ATOM     16  C   UNL     1      -0.883   0.237   0.000  0.00  0.00    +0.000 C 
BRANCH  16  17
ATOM     17  O   UNL     1      -1.495  -0.313   0.000  0.00  0.00    +0.000 OA
BRANCH  17  18
ATOM     18  P   UNL     1      -2.317  -0.313   0.000  0.00  0.00    +0.000 P 
ATOM     19  O   UNL     1      -2.324  -1.138   0.000  0.00  0.00    +0.000 OA
ATOM     20  O   UNL     1      -2.324   0.509   0.000  0.00  0.00    +0.000 OA
BRANCH  18  21
ATOM     21  O   UNL     1      -3.142  -0.313   0.000  0.00  0.00    +0.000 OA
BRANCH  21  22
ATOM     22  P   UNL     1      -3.963  -0.309   0.000  0.00  0.00    +0.000 P 
ATOM     23  O   UNL     1      -3.967  -1.134   0.000  0.00  0.00    +0.000 OA
ATOM     24  O   UNL     1      -4.785  -0.309   0.000  0.00  0.00    +0.000 OA
ATOM     25  O   UNL     1      -3.967   0.512   0.000  0.00  0.00    +0.000 OA
ENDBRANCH  21  22
ENDBRANCH  18  21
ENDBRANCH  17  18
ENDBRANCH  16  17
ENDBRANCH   4  16
TORSDOF 6
