REMARK  Name = 
REMARK  0 active torsions:
REMARK  status: ('A' for Active; 'I' for Inactive)
REMARK                            x       y       z     vdW  Elec       q    Type
REMARK                         _______ _______ _______ _____ _____    ______ ____
ROOT
ATOM      1 PT   UNL     1       2.586   4.892   0.000  0.00  0.00    +0.000 Pt
ENDROOT
TORSDOF 0
REMARK  Name = 
REMARK  0 active torsions:
REMARK  status: ('A' for Active; 'I' for Inactive)
REMARK                            x       y       z     vdW  Elec       q    Type
REMARK                         _______ _______ _______ _____ _____    ______ ____
ROOT
ATOM      1 CL   UNL     1       2.174   5.606   0.000  0.00  0.00    +0.000 Cl
ENDROOT
TORSDOF 0
REMARK  Name = 
REMARK  0 active torsions:
REMARK  status: ('A' for Active; 'I' for Inactive)
REMARK                            x       y       z     vdW  Elec       q    Type
REMARK                         _______ _______ _______ _____ _____    ______ ____
ROOT
ATOM      1 CL   UNL     1       2.999   4.177   0.000  0.00  0.00    +0.000 Cl
ENDROOT
TORSDOF 0
REMARK  Name = 
REMARK  0 active torsions:
REMARK  status: ('A' for Active; 'I' for Inactive)
REMARK                            x       y       z     vdW  Elec       q    Type
REMARK                         _______ _______ _______ _____ _____    ______ ____
ROOT
ATOM      1  O   UNL     1       3.301   5.304   0.000  0.00  0.00    +0.000 OA
ATOM      2  O   UNL     1       4.015   4.067   0.000  0.00  0.00    +0.000 OA
ATOM      3  C   UNL     1       4.730   5.304   0.000  0.00  0.00    +0.000 C 
ATOM      4  C   UNL     1       4.015   4.892   0.000  0.00  0.00    +0.000 C 
ENDROOT
TORSDOF 0
REMARK  Name = 
REMARK  0 active torsions:
REMARK  status: ('A' for Active; 'I' for Inactive)
REMARK                            x       y       z     vdW  Elec       q    Type
REMARK                         _______ _______ _______ _____ _____    ______ ____
ROOT
ATOM      1  O   UNL     1       1.872   4.479   0.000  0.00  0.00    +0.000 OA
ATOM      2  O   UNL     1       1.157   5.717   0.000  0.00  0.00    +0.000 OA
ATOM      3  C   UNL     1       0.443   4.479   0.000  0.00  0.00    +0.000 C 
ATOM      4  C   UNL     1       1.157   4.892   0.000  0.00  0.00    +0.000 C 
ENDROOT
TORSDOF 0
REMARK  Name = 
REMARK  0 active torsions:
REMARK  status: ('A' for Active; 'I' for Inactive)
REMARK                            x       y       z     vdW  Elec       q    Type
REMARK                         _______ _______ _______ _____ _____    ______ ____
ROOT
ATOM      1  N   UNL     1       8.041  11.591   0.000  0.00  0.00    +0.000 NA
ATOM      2  C   UNL     1       8.041  10.765   0.000  0.00  0.00    +0.000 C 
ATOM      3  C   UNL     1       8.756  10.353   0.000  0.00  0.00    +0.000 C 
ATOM      4  C   UNL     1       7.327  10.353   0.000  0.00  0.00    +0.000 C 
ATOM      5  C   UNL     1       8.756   9.528   0.000  0.00  0.00    +0.000 C 
ATOM      6  C   UNL     1       7.327   9.528   0.000  0.00  0.00    +0.000 C 
ATOM      7  C   UNL     1       8.041   9.116   0.000  0.00  0.00    +0.000 C 
ENDROOT
TORSDOF 0
REMARK  Name = 
REMARK  0 active torsions:
REMARK  status: ('A' for Active; 'I' for Inactive)
REMARK                            x       y       z     vdW  Elec       q    Type
REMARK                         _______ _______ _______ _____ _____    ______ ____
ROOT
ATOM      1  N   UNL     1      11.352   6.051   0.000  0.00  0.00    +0.000 NA
ENDROOT
TORSDOF 0
