REMARK  Name = 
REMARK  0 active torsions:
REMARK  status: ('A' for Active; 'I' for Inactive)
REMARK                            x       y       z     vdW  Elec       q    Type
REMARK                         _______ _______ _______ _____ _____    ______ ____
ROOT
ATOM      1  O   UNL     1       2.143   1.238   0.000  0.00  0.00    +0.000 OA
ATOM      2  C   UNL     1       1.429   0.825   0.000  0.00  0.00    +0.000 C 
ATOM      3  C   UNL     1       1.429   0.000   0.000  0.00  0.00    +0.000 C 
ATOM      4  S   UNL     1       0.715  -0.412   0.000  0.00  0.00    +0.000 S 
ATOM      5  S   UNL     1       0.000   0.000   0.000  0.00  0.00    +0.000 S 
ATOM      6  C   UNL     1       0.000   0.825   0.000  0.00  0.00    +0.000 C 
ATOM      7  C   UNL     1       0.715   1.238   0.000  0.00  0.00    +0.000 C 
ATOM      8  O   UNL     1       0.715   2.062   0.000  0.00  0.00    +0.000 OA
ENDROOT
TORSDOF 0
