REMARK  Name = 
REMARK  7 active torsions:
REMARK  status: ('A' for Active; 'I' for Inactive)
REMARK    1  A    between atoms: C_4  and  N_28
REMARK    2  A    between atoms: C_7  and  C_14
REMARK    3  A    between atoms: C_8  and  C_21
REMARK    4  A    between atoms: C_12  and  C_13
REMARK    5  A    between atoms: C_12  and  O_30
REMARK    6  A    between atoms: C_15  and  O_30
REMARK    7  A    between atoms: C_17  and  C_20
REMARK                            x       y       z     vdW  Elec       q    Type
REMARK                         _______ _______ _______ _____ _____    ______ ____
ROOT
ATOM      1  C   UNL     1       3.993   0.825   0.000  0.00  0.00    +0.000 A 
ATOM      2  C   UNL     1       3.279  -0.412   0.000  0.00  0.00    +0.000 A 
ATOM      3  C   UNL     1       3.279   1.238   0.000  0.00  0.00    +0.000 A 
ATOM      4  C   UNL     1       2.564   0.000   0.000  0.00  0.00    +0.000 A 
ATOM      5  C   UNL     1       2.564   0.825   0.000  0.00  0.00    +0.000 A 
ATOM      6  C   UNL     1       1.295   0.412   0.000  0.00  0.00    +0.000 A 
ATOM      7  N   UNL     1       3.993   0.000   0.000  0.00  0.00    +0.000 NA
ATOM      8  N   UNL     1       1.780  -0.255   0.000  0.00  0.00    +0.000 NA
ATOM      9  N   UNL     1       1.780   1.080   0.000  0.00  0.00    +0.000 N 
ENDROOT
BRANCH   6  10
ATOM     10  C   UNL     1       0.470   0.412   0.000  0.00  0.00    +0.000 A 
ATOM     11  C   UNL     1      -0.015   1.080   0.000  0.00  0.00    +0.000 A 
ATOM     12  N   UNL     1       0.240   1.865   0.000  0.00  0.00    +0.000 NA
ATOM     13  N   UNL     1      -0.015  -0.255   0.000  0.00  0.00    +0.000 NA
ATOM     14  N   UNL     1      -0.800   0.825   0.000  0.00  0.00    +0.000 NA
ATOM     15  O   UNL     1      -0.800   0.000   0.000  0.00  0.00    +0.000 OA
ENDBRANCH   6  10
BRANCH   9  17
ATOM     16  C   UNL     1       0.718   2.036   0.000  0.00  0.00    +0.000 C 
ATOM     17  C   UNL     1       1.525   1.865   0.000  0.00  0.00    +0.000 C 
ENDBRANCH   9  17
BRANCH   2  18
ATOM     18  C   UNL     1       3.279  -1.238   0.000  0.00  0.00    +0.000 C 
ATOM     19  C   UNL     1       3.279  -2.062   0.000  0.00  0.00    +0.000 C 
BRANCH  19  22
ATOM     20  C   UNL     1       3.279  -3.712   0.000  0.00  0.00    +0.000 C 
ATOM     21  C   UNL     1       4.104  -2.888   0.000  0.00  0.00    +0.000 C 
ATOM     22  C   UNL     1       3.279  -2.888   0.000  0.00  0.00    +0.000 C 
ATOM     23  O   UNL     1       2.454  -2.888   0.000  0.00  0.00    +0.000 OA
ENDBRANCH  19  22
ENDBRANCH   2  18
BRANCH   3  24
ATOM     24  O   UNL     1       3.279   2.062   0.000  0.00  0.00    +0.000 OA
BRANCH  24  25
ATOM     25  C   UNL     1       2.564   2.475   0.000  0.00  0.00    +0.000 C 
BRANCH  25  30
ATOM     26  C   UNL     1       1.850   4.537   0.000  0.00  0.00    +0.000 C 
ATOM     27  C   UNL     1       1.850   3.712   0.000  0.00  0.00    +0.000 C 
ATOM     28  C   UNL     1       2.564   4.950   0.000  0.00  0.00    +0.000 C 
ATOM     29  C   UNL     1       3.279   3.712   0.000  0.00  0.00    +0.000 C 
ATOM     30  C   UNL     1       2.564   3.300   0.000  0.00  0.00    +0.000 C 
ATOM     31  N   UNL     1       3.279   4.537   0.000  0.00  0.00    +0.000 NA
ENDBRANCH  25  30
ENDBRANCH  24  25
ENDBRANCH   3  24
TORSDOF 7
