REMARK  Name = 
REMARK  0 active torsions:
REMARK  status: ('A' for Active; 'I' for Inactive)
REMARK                            x       y       z     vdW  Elec       q    Type
REMARK                         _______ _______ _______ _____ _____    ______ ____
ROOT
ATOM      1  C   UNL     1       4.523  -0.773   0.000  0.00  0.00    +0.000 C 
ATOM      2  N   UNL     1       4.523   0.045   0.000  0.00  0.00    +0.000 N 
ATOM      3  C   UNL     1       3.076   0.045   0.000  0.00  0.00    +0.000 A 
ATOM      4  N   UNL     1       3.786  -1.194   0.000  0.00  0.00    +0.000 NA
ATOM      5  C   UNL     1       3.076  -0.773   0.000  0.00  0.00    +0.000 A 
ATOM      6  C   UNL     1       3.786   0.472   0.000  0.00  0.00    +0.000 C 
ATOM      7  C   UNL     1       2.359   0.455   0.000  0.00  0.00    +0.000 A 
ATOM      8  C   UNL     1       1.660   0.045   0.000  0.00  0.00    +0.000 A 
ATOM      9  C   UNL     1       2.359  -1.183   0.000  0.00  0.00    +0.000 A 
ATOM     10  C   UNL     1       1.660  -0.773   0.000  0.00  0.00    +0.000 A 
ATOM     11 CL   UNL     1       2.359   1.273   0.000  0.00  0.00    +0.000 Cl
ATOM     12 CL   UNL     1       0.944   0.455   0.000  0.00  0.00    +0.000 Cl
ATOM     13  C   UNL     1       5.308   0.307   0.000  0.00  0.00    +0.000 C 
ATOM     14  N   UNL     1       5.308  -1.028   0.000  0.00  0.00    +0.000 NA
ATOM     15  C   UNL     1       5.793  -0.361   0.000  0.00  0.00    +0.000 C 
ATOM     16  O   UNL     1       6.618  -0.361   0.000  0.00  0.00    +0.000 OA
ENDROOT
TORSDOF 0
