REMARK  Name = 
REMARK  1 active torsions:
REMARK  status: ('A' for Active; 'I' for Inactive)
REMARK    1  A    between atoms: S_2  and  C_3
REMARK                            x       y       z     vdW  Elec       q    Type
REMARK                         _______ _______ _______ _____ _____    ______ ____
ROOT
ATOM      1  C   UNL     1      -0.628  -0.698   0.000  0.00  0.00    +0.000 A 
ATOM      2  N   UNL     1      -0.143  -1.365   0.000  0.00  0.00    +0.000 NA
ATOM      3  C   UNL     1       0.641  -1.110   0.000  0.00  0.00    +0.000 A 
ATOM      4  C   UNL     1       0.641  -0.285   0.000  0.00  0.00    +0.000 A 
ATOM      5  N   UNL     1      -0.143  -0.030   0.000  0.00  0.00    +0.000 NA
ATOM      6  C   UNL     1       1.356   0.127   0.000  0.00  0.00    +0.000 A 
ATOM      7 BR   UNL     1       1.356   0.952   0.000  0.00  0.00    +0.000 Br
ATOM      8  C   UNL     1       2.070  -0.285   0.000  0.00  0.00    +0.000 A 
ATOM      9 BR   UNL     1       2.784   0.127   0.000  0.00  0.00    +0.000 Br
ATOM     10  C   UNL     1       2.070  -1.110   0.000  0.00  0.00    +0.000 A 
ATOM     11 BR   UNL     1       2.784  -1.523   0.000  0.00  0.00    +0.000 Br
ATOM     12  C   UNL     1       1.356  -1.523   0.000  0.00  0.00    +0.000 A 
ATOM     13 BR   UNL     1       1.356  -2.348   0.000  0.00  0.00    +0.000 Br
ENDROOT
BRANCH   1  15
ATOM     14  C   UNL     1      -1.866  -1.412   0.000  0.00  0.00    +0.000 C 
ATOM     15  S   UNL     1      -1.453  -0.698   0.000  0.00  0.00    +0.000 S 
ENDBRANCH   1  15
TORSDOF 1
