REMARK  Name = 
REMARK  32 active torsions:
REMARK  status: ('A' for Active; 'I' for Inactive)
REMARK    1  A    between atoms: C_1  and  N_38
REMARK    2  A    between atoms: C_4  and  C_32
REMARK    3  A    between atoms: C_5  and  O_33
REMARK    4  A    between atoms: C_7  and  C_8
REMARK    5  A    between atoms: C_7  and  N_9
REMARK    6  A    between atoms: C_8  and  S_48
REMARK    7  A    between atoms: C_10  and  C_13
REMARK    8  A    between atoms: C_12  and  C_13
REMARK    9  A    between atoms: C_12  and  N_14
REMARK   10  A    between atoms: C_16  and  C_21
REMARK   11  A    between atoms: C_17  and  C_19
REMARK   12  A    between atoms: C_17  and  O_23
REMARK   13  A    between atoms: C_19  and  C_21
REMARK   14  A    between atoms: O_23  and  P_30
REMARK   15  A    between atoms: O_24  and  P_30
REMARK   16  A    between atoms: O_24  and  P_31
REMARK   17  A    between atoms: O_25  and  P_31
REMARK   18  A    between atoms: O_25  and  C_32
REMARK   19  A    between atoms: O_33  and  P_36
REMARK   20  A    between atoms: S_48  and  C_50
REMARK   21  A    between atoms: C_50  and  C_51
REMARK   22  A    between atoms: C_51  and  C_52
REMARK   23  A    between atoms: C_52  and  C_53
REMARK   24  A    between atoms: C_53  and  C_54
REMARK   25  A    between atoms: C_54  and  C_55
REMARK   26  A    between atoms: C_55  and  C_56
REMARK   27  A    between atoms: C_56  and  C_57
REMARK   28  A    between atoms: C_57  and  C_58
REMARK   29  A    between atoms: C_58  and  C_59
REMARK   30  A    between atoms: C_59  and  C_60
REMARK   31  A    between atoms: C_60  and  C_61
REMARK   32  A    between atoms: C_61  and  C_62
REMARK                            x       y       z     vdW  Elec       q    Type
REMARK                         _______ _______ _______ _____ _____    ______ ____
ROOT
ATOM      1  C   UNL     1      28.544  -2.333   0.000  0.00  0.00    +0.000 C 
ENDROOT
BRANCH   1   3
ATOM      2  C   UNL     1      27.417  -1.206   0.000  0.00  0.00    +0.000 C 
ATOM      3  C   UNL     1      27.830  -1.921   0.000  0.00  0.00    +0.000 C 
ATOM      4  C   UNL     1      28.242  -1.206   0.000  0.00  0.00    +0.000 C 
BRANCH   3   5
ATOM      5  C   UNL     1      27.115  -2.333   0.000  0.00  0.00    +0.000 C 
ATOM      6  O   UNL     1      26.401  -1.921   0.000  0.00  0.00    +0.000 OA
BRANCH   5   9
ATOM      7  N   UNL     1      27.830  -3.571   0.000  0.00  0.00    +0.000 NA
ATOM      8  O   UNL     1      26.401  -3.571   0.000  0.00  0.00    +0.000 OA
ATOM      9  C   UNL     1      27.115  -3.158   0.000  0.00  0.00    +0.000 C 
BRANCH   7  10
ATOM     10  C   UNL     1      27.830  -4.396   0.000  0.00  0.00    +0.000 C 
BRANCH  10  11
ATOM     11  C   UNL     1      27.087  -4.809   0.000  0.00  0.00    +0.000 C 
BRANCH  11  13
ATOM     12  N   UNL     1      27.801  -6.046   0.000  0.00  0.00    +0.000 NA
ATOM     13  C   UNL     1      27.087  -5.633   0.000  0.00  0.00    +0.000 C 
ATOM     14  O   UNL     1      26.372  -6.046   0.000  0.00  0.00    +0.000 OA
BRANCH  12  15
ATOM     15  C   UNL     1      28.516  -5.633   0.000  0.00  0.00    +0.000 C 
BRANCH  15  16
ATOM     16  C   UNL     1      29.259  -6.046   0.000  0.00  0.00    +0.000 C 
BRANCH  16  17
ATOM     17  S   UNL     1      29.973  -5.633   0.000  0.00  0.00    +0.000 S 
BRANCH  17  19
ATOM     18  O   UNL     1      30.688  -6.871   0.000  0.00  0.00    +0.000 OA
ATOM     19  C   UNL     1      30.688  -6.046   0.000  0.00  0.00    +0.000 C 
BRANCH  19  20
ATOM     20  C   UNL     1      31.402  -5.633   0.000  0.00  0.00    +0.000 C 
BRANCH  20  21
ATOM     21  C   UNL     1      32.117  -6.046   0.000  0.00  0.00    +0.000 C 
BRANCH  21  22
ATOM     22  C   UNL     1      32.831  -5.633   0.000  0.00  0.00    +0.000 C 
BRANCH  22  23
ATOM     23  C   UNL     1      33.545  -6.046   0.000  0.00  0.00    +0.000 C 
BRANCH  23  24
ATOM     24  C   UNL     1      34.260  -5.633   0.000  0.00  0.00    +0.000 C 
BRANCH  24  25
ATOM     25  C   UNL     1      34.974  -6.046   0.000  0.00  0.00    +0.000 C 
BRANCH  25  26
ATOM     26  C   UNL     1      35.689  -5.633   0.000  0.00  0.00    +0.000 C 
BRANCH  26  27
ATOM     27  C   UNL     1      36.403  -6.046   0.000  0.00  0.00    +0.000 C 
BRANCH  27  28
ATOM     28  C   UNL     1      37.118  -5.633   0.000  0.00  0.00    +0.000 C 
BRANCH  28  29
ATOM     29  C   UNL     1      37.832  -6.046   0.000  0.00  0.00    +0.000 C 
BRANCH  29  30
ATOM     30  C   UNL     1      38.547  -5.633   0.000  0.00  0.00    +0.000 C 
BRANCH  30  31
ATOM     31  C   UNL     1      39.261  -6.046   0.000  0.00  0.00    +0.000 C 
ATOM     32  C   UNL     1      39.976  -5.633   0.000  0.00  0.00    +0.000 C 
ENDBRANCH  30  31
ENDBRANCH  29  30
ENDBRANCH  28  29
ENDBRANCH  27  28
ENDBRANCH  26  27
ENDBRANCH  25  26
ENDBRANCH  24  25
ENDBRANCH  23  24
ENDBRANCH  22  23
ENDBRANCH  21  22
ENDBRANCH  20  21
ENDBRANCH  19  20
ENDBRANCH  17  19
ENDBRANCH  16  17
ENDBRANCH  15  16
ENDBRANCH  12  15
ENDBRANCH  11  13
ENDBRANCH  10  11
ENDBRANCH   7  10
ENDBRANCH   5   9
ENDBRANCH   3   5
ENDBRANCH   1   3
BRANCH   1  33
ATOM     33  O   UNL     1      29.259  -1.921   0.000  0.00  0.00    +0.000 OA
BRANCH  33  36
ATOM     34  O   UNL     1      30.084  -1.096   0.000  0.00  0.00    +0.000 OA
ATOM     35  O   UNL     1      30.084  -2.746   0.000  0.00  0.00    +0.000 OA
ATOM     36  P   UNL     1      30.084  -1.921   0.000  0.00  0.00    +0.000 P 
BRANCH  36  37
ATOM     37  O   UNL     1      30.909  -1.921   0.000  0.00  0.00    +0.000 OA
BRANCH  37  40
ATOM     38  O   UNL     1      31.734  -1.096   0.000  0.00  0.00    +0.000 OA
ATOM     39  O   UNL     1      31.734  -2.746   0.000  0.00  0.00    +0.000 OA
ATOM     40  P   UNL     1      31.734  -1.921   0.000  0.00  0.00    +0.000 P 
BRANCH  40  41
ATOM     41  O   UNL     1      32.559  -1.921   0.000  0.00  0.00    +0.000 OA
BRANCH  41  42
ATOM     42  C   UNL     1      33.142  -1.338   0.000  0.00  0.00    +0.000 C 
BRANCH  42  46
ATOM     43  C   UNL     1      35.261  -1.593   0.000  0.00  0.00    +0.000 C 
ATOM     44  O   UNL     1      34.594  -1.108   0.000  0.00  0.00    +0.000 OA
ATOM     45  C   UNL     1      35.007  -2.377   0.000  0.00  0.00    +0.000 C 
ATOM     46  C   UNL     1      33.927  -1.593   0.000  0.00  0.00    +0.000 C 
ATOM     47  C   UNL     1      34.182  -2.377   0.000  0.00  0.00    +0.000 C 
ATOM     48  O   UNL     1      35.492  -3.045   0.000  0.00  0.00    +0.000 OA
BRANCH  43  49
ATOM     49  N   UNL     1      36.046  -1.338   0.000  0.00  0.00    +0.000 N 
ATOM     50  C   UNL     1      36.659  -1.890   0.000  0.00  0.00    +0.000 A 
ATOM     51  C   UNL     1      36.382  -0.584   0.000  0.00  0.00    +0.000 A 
ATOM     52  C   UNL     1      37.374  -1.477   0.000  0.00  0.00    +0.000 A 
ATOM     53  N   UNL     1      36.659  -2.715   0.000  0.00  0.00    +0.000 NA
ATOM     54  N   UNL     1      37.202  -0.670   0.000  0.00  0.00    +0.000 NA
ATOM     55  C   UNL     1      38.088  -1.889   0.000  0.00  0.00    +0.000 A 
ATOM     56  C   UNL     1      37.374  -3.127   0.000  0.00  0.00    +0.000 A 
ATOM     57  N   UNL     1      38.088  -2.715   0.000  0.00  0.00    +0.000 NA
ATOM     58  N   UNL     1      38.803  -1.477   0.000  0.00  0.00    +0.000 NA
ENDBRANCH  43  49
BRANCH  47  59
ATOM     59  O   UNL     1      33.697  -3.045   0.000  0.00  0.00    +0.000 OA
BRANCH  59  62
ATOM     60  O   UNL     1      32.872  -3.870   0.000  0.00  0.00    +0.000 OA
ATOM     61  O   UNL     1      34.522  -3.870   0.000  0.00  0.00    +0.000 OA
ATOM     62  P   UNL     1      33.697  -3.870   0.000  0.00  0.00    +0.000 P 
ATOM     63  O   UNL     1      33.697  -4.695   0.000  0.00  0.00    +0.000 OA
ENDBRANCH  59  62
ENDBRANCH  47  59
ENDBRANCH  42  46
ENDBRANCH  41  42
ENDBRANCH  40  41
ENDBRANCH  37  40
ENDBRANCH  36  37
ENDBRANCH  33  36
ENDBRANCH   1  33
TORSDOF 32
