REMARK  Name = 
REMARK  11 active torsions:
REMARK  status: ('A' for Active; 'I' for Inactive)
REMARK    1  A    between atoms: C_2  and  C_4
REMARK    2  A    between atoms: C_4  and  N_5
REMARK    3  A    between atoms: C_4  and  C_22
REMARK    4  A    between atoms: C_6  and  C_8
REMARK    5  A    between atoms: C_11  and  C_14
REMARK    6  A    between atoms: C_28  and  C_29
REMARK    7  A    between atoms: N_31  and  C_32
REMARK    8  A    between atoms: C_32  and  C_33
REMARK    9  A    between atoms: C_32  and  C_36
REMARK   10  A    between atoms: C_36  and  C_38
REMARK   11  A    between atoms: C_38  and  C_41
REMARK                            x       y       z     vdW  Elec       q    Type
REMARK                         _______ _______ _______ _____ _____    ______ ____
ROOT
ATOM      1  C   UNL     1       2.442  -7.548   0.000  0.00  0.00    +0.000 C 
ATOM      2  O   UNL     1       3.267  -7.521   0.000  0.00  0.00    +0.000 OA
ATOM      3  N   UNL     1       2.006  -6.848   0.000  0.00  0.00    +0.000 N 
ATOM      4  C   UNL     1       1.184  -6.789   0.000  0.00  0.00    +0.000 C 
ATOM      5  C   UNL     1       0.986  -5.988   0.000  0.00  0.00    +0.000 C 
ATOM      6  C   UNL     1       1.686  -5.552   0.000  0.00  0.00    +0.000 C 
ATOM      7  C   UNL     1       2.317  -6.084   0.000  0.00  0.00    +0.000 C 
ENDROOT
BRANCH   7   8
ATOM      8  C   UNL     1       3.118  -5.886   0.000  0.00  0.00    +0.000 C 
ATOM      9  O   UNL     1       3.347  -5.093   0.000  0.00  0.00    +0.000 OA
ATOM     10  N   UNL     1       3.690  -6.480   0.000  0.00  0.00    +0.000 NA
BRANCH  10  11
ATOM     11  C   UNL     1       4.491  -6.282   0.000  0.00  0.00    +0.000 C 
BRANCH  11  12
ATOM     12  C   UNL     1       4.720  -5.489   0.000  0.00  0.00    +0.000 C 
ATOM     13  C   UNL     1       5.520  -5.291   0.000  0.00  0.00    +0.000 C 
ATOM     14  C   UNL     1       4.147  -4.895   0.000  0.00  0.00    +0.000 C 
ENDBRANCH  11  12
BRANCH  11  15
ATOM     15  C   UNL     1       5.063  -6.876   0.000  0.00  0.00    +0.000 C 
ATOM     16  O   UNL     1       4.834  -7.669   0.000  0.00  0.00    +0.000 OA
BRANCH  15  17
ATOM     17  C   UNL     1       5.864  -6.678   0.000  0.00  0.00    +0.000 C 
ATOM     18  F   UNL     1       5.665  -5.877   0.000  0.00  0.00    +0.000 F 
ATOM     19  F   UNL     1       6.062  -7.479   0.000  0.00  0.00    +0.000 F 
BRANCH  17  20
ATOM     20  C   UNL     1       6.664  -6.480   0.000  0.00  0.00    +0.000 C 
ATOM     21  F   UNL     1       7.465  -6.282   0.000  0.00  0.00    +0.000 F 
ATOM     22  F   UNL     1       6.863  -7.281   0.000  0.00  0.00    +0.000 F 
ATOM     23  F   UNL     1       6.466  -5.679   0.000  0.00  0.00    +0.000 F 
ENDBRANCH  17  20
ENDBRANCH  15  17
ENDBRANCH  11  15
ENDBRANCH  10  11
ENDBRANCH   7   8
BRANCH   1  24
ATOM     24  C   UNL     1       2.054  -8.276   0.000  0.00  0.00    +0.000 C 
BRANCH  24  25
ATOM     25  N   UNL     1       2.490  -8.977   0.000  0.00  0.00    +0.000 NA
ATOM     26  C   UNL     1       2.101  -9.704   0.000  0.00  0.00    +0.000 C 
ATOM     27  O   UNL     1       1.277  -9.732   0.000  0.00  0.00    +0.000 OA
BRANCH  26  28
ATOM     28  C   UNL     1       2.537 -10.405   0.000  0.00  0.00    +0.000 A 
ATOM     29  C   UNL     1       3.362 -10.377   0.000  0.00  0.00    +0.000 A 
ATOM     30  C   UNL     1       3.798 -11.078   0.000  0.00  0.00    +0.000 A 
ATOM     31  C   UNL     1       3.409 -11.806   0.000  0.00  0.00    +0.000 A 
ATOM     32  C   UNL     1       2.584 -11.833   0.000  0.00  0.00    +0.000 A 
ATOM     33  C   UNL     1       2.148 -11.133   0.000  0.00  0.00    +0.000 A 
BRANCH  31  34
ATOM     34  C   UNL     1       3.845 -12.506   0.000  0.00  0.00    +0.000 C 
ATOM     35  O   UNL     1       4.670 -12.479   0.000  0.00  0.00    +0.000 OA
ATOM     36  N   UNL     1       3.456 -13.234   0.000  0.00  0.00    +0.000 N 
ATOM     37  C   UNL     1       3.892 -13.934   0.000  0.00  0.00    +0.000 C 
ATOM     38  C   UNL     1       3.504 -14.662   0.000  0.00  0.00    +0.000 C 
ATOM     39  O   UNL     1       2.679 -14.689   0.000  0.00  0.00    +0.000 OA
ATOM     40  C   UNL     1       2.243 -13.989   0.000  0.00  0.00    +0.000 C 
ATOM     41  C   UNL     1       2.632 -13.261   0.000  0.00  0.00    +0.000 C 
ENDBRANCH  31  34
ENDBRANCH  26  28
ENDBRANCH  24  25
BRANCH  24  43
ATOM     42  C   UNL     1       0.793  -7.603   0.000  0.00  0.00    +0.000 C 
ATOM     43  C   UNL     1       1.229  -8.304   0.000  0.00  0.00    +0.000 C 
ATOM     44  C   UNL     1       0.841  -9.031   0.000  0.00  0.00    +0.000 C 
ENDBRANCH  24  43
ENDBRANCH   1  24
TORSDOF 11
