REMARK  Name = 
REMARK  7 active torsions:
REMARK  status: ('A' for Active; 'I' for Inactive)
REMARK    1  A    between atoms: O_1  and  C_12
REMARK    2  A    between atoms: O_1  and  C_23
REMARK    3  A    between atoms: N_4  and  C_11
REMARK    4  A    between atoms: N_5  and  C_17
REMARK    5  A    between atoms: C_11  and  C_12
REMARK    6  A    between atoms: C_13  and  C_19
REMARK    7  A    between atoms: C_17  and  C_18
REMARK                            x       y       z     vdW  Elec       q    Type
REMARK                         _______ _______ _______ _____ _____    ______ ____
ROOT
ATOM      1  O   UNL     1       2.093  -3.929   0.000  0.00  0.00    +0.000 OA
ATOM      2  N   UNL     1       5.017  -2.440   0.000  0.00  0.00    +0.000 N 
ATOM      3  C   UNL     1       5.499  -3.104   0.000  0.00  0.00    +0.000 A 
ATOM      4  C   UNL     1       4.237  -2.691   0.000  0.00  0.00    +0.000 A 
ATOM      5  C   UNL     1       5.017  -3.767   0.000  0.00  0.00    +0.000 A 
ATOM      6  C   UNL     1       4.237  -3.516   0.000  0.00  0.00    +0.000 A 
ATOM      7  C   UNL     1       3.522  -2.279   0.000  0.00  0.00    +0.000 A 
ATOM      8  C   UNL     1       3.522  -3.929   0.000  0.00  0.00    +0.000 A 
ATOM      9  C   UNL     1       5.273  -4.552   0.000  0.00  0.00    +0.000 C 
ATOM     10  C   UNL     1       2.808  -3.516   0.000  0.00  0.00    +0.000 A 
ATOM     11  C   UNL     1       2.808  -2.691   0.000  0.00  0.00    +0.000 A 
ENDROOT
BRANCH   3  13
ATOM     12  O   UNL     1       8.799  -3.104   0.000  0.00  0.00    +0.000 OA
ATOM     13  C   UNL     1       6.324  -3.104   0.000  0.00  0.00    +0.000 A 
ATOM     14  C   UNL     1       6.736  -2.389   0.000  0.00  0.00    +0.000 A 
ATOM     15  C   UNL     1       6.736  -3.818   0.000  0.00  0.00    +0.000 A 
ATOM     16  C   UNL     1       7.561  -2.389   0.000  0.00  0.00    +0.000 A 
ATOM     17  C   UNL     1       7.561  -3.818   0.000  0.00  0.00    +0.000 A 
ATOM     18  C   UNL     1       7.974  -3.104   0.000  0.00  0.00    +0.000 A 
ENDBRANCH   3  13
BRANCH   2  19
ATOM     19  C   UNL     1       5.273  -1.655   0.000  0.00  0.00    +0.000 C 
BRANCH  19  20
ATOM     20  C   UNL     1       4.723  -1.041   0.000  0.00  0.00    +0.000 A 
ATOM     21  C   UNL     1       3.620   0.187   0.000  0.00  0.00    +0.000 A 
ATOM     22  C   UNL     1       3.915  -1.212   0.000  0.00  0.00    +0.000 A 
ATOM     23  C   UNL     1       4.979  -0.257   0.000  0.00  0.00    +0.000 A 
ATOM     24  C   UNL     1       3.364  -0.598   0.000  0.00  0.00    +0.000 A 
ATOM     25  C   UNL     1       4.428   0.357   0.000  0.00  0.00    +0.000 A 
BRANCH  21  26
ATOM     26  O   UNL     1       3.070   0.801   0.000  0.00  0.00    +0.000 OA
BRANCH  26  27
ATOM     27  C   UNL     1       3.326   1.585   0.000  0.00  0.00    +0.000 C 
BRANCH  27  28
ATOM     28  C   UNL     1       2.775   2.199   0.000  0.00  0.00    +0.000 C 
BRANCH  28  29
ATOM     29  N   UNL     1       3.031   2.983   0.000  0.00  0.00    +0.000 NA
ATOM     30  C   UNL     1       2.480   3.597   0.000  0.00  0.00    +0.000 C 
ATOM     31  C   UNL     1       3.838   3.153   0.000  0.00  0.00    +0.000 C 
ATOM     32  C   UNL     1       2.736   4.381   0.000  0.00  0.00    +0.000 C 
ATOM     33  C   UNL     1       4.095   3.938   0.000  0.00  0.00    +0.000 C 
ATOM     34  C   UNL     1       3.544   4.552   0.000  0.00  0.00    +0.000 C 
ENDBRANCH  28  29
ENDBRANCH  27  28
ENDBRANCH  26  27
ENDBRANCH  21  26
ENDBRANCH  19  20
ENDBRANCH   2  19
TORSDOF 7
