REMARK  Name = 
REMARK  11 active torsions:
REMARK  status: ('A' for Active; 'I' for Inactive)
REMARK    1  A    between atoms: C_6  and  C_23
REMARK    2  A    between atoms: C_11  and  C_13
REMARK    3  A    between atoms: C_11  and  C_28
REMARK    4  A    between atoms: C_13  and  C_30
REMARK    5  A    between atoms: C_20  and  C_25
REMARK    6  A    between atoms: C_20  and  N_38
REMARK    7  A    between atoms: C_21  and  C_32
REMARK    8  A    between atoms: C_23  and  C_37
REMARK    9  A    between atoms: C_33  and  O_43
REMARK   10  A    between atoms: C_34  and  O_44
REMARK   11  A    between atoms: C_37  and  O_44
REMARK                            x       y       z     vdW  Elec       q    Type
REMARK                         _______ _______ _______ _____ _____    ______ ____
ROOT
ATOM      1  C   UNL     1      -5.001  -0.412   0.000  0.00  0.00    +0.000 C 
ATOM      2  C   UNL     1      -5.716  -1.650   0.000  0.00  0.00    +0.000 C 
ATOM      3  C   UNL     1      -5.716   0.000   0.000  0.00  0.00    +0.000 C 
ATOM      4  C   UNL     1      -5.001  -1.238   0.000  0.00  0.00    +0.000 C 
ATOM      5  C   UNL     1      -6.430  -1.238   0.000  0.00  0.00    +0.000 C 
ATOM      6  N   UNL     1      -6.430  -0.412   0.000  0.00  0.00    +0.000 N 
ATOM      7  O   UNL     1      -4.287  -1.650   0.000  0.00  0.00    +0.000 OA
ATOM      8  O   UNL     1      -7.145  -1.650   0.000  0.00  0.00    +0.000 OA
ENDROOT
BRANCH   6   9
ATOM      9  C   UNL     1      -7.145   0.000   0.000  0.00  0.00    +0.000 C 
BRANCH   9  15
ATOM     10  C   UNL     1      -7.859  -1.238   0.000  0.00  0.00    +0.000 A 
ATOM     11  C   UNL     1     -10.003   0.000   0.000  0.00  0.00    +0.000 A 
ATOM     12  C   UNL     1      -8.574  -1.650   0.000  0.00  0.00    +0.000 A 
ATOM     13  C   UNL     1     -10.717  -0.412   0.000  0.00  0.00    +0.000 A 
ATOM     14  C   UNL     1      -8.574   0.000   0.000  0.00  0.00    +0.000 A 
ATOM     15  C   UNL     1      -7.859  -0.412   0.000  0.00  0.00    +0.000 A 
ATOM     16  C   UNL     1      -9.288  -0.412   0.000  0.00  0.00    +0.000 A 
ATOM     17  C   UNL     1      -9.288  -1.238   0.000  0.00  0.00    +0.000 A 
ATOM     18  C   UNL     1     -10.003  -1.650   0.000  0.00  0.00    +0.000 A 
ATOM     19  C   UNL     1     -10.717  -1.238   0.000  0.00  0.00    +0.000 A 
BRANCH  19  21
ATOM     20  C   UNL     1     -12.146  -1.238   0.000  0.00  0.00    +0.000 C 
ATOM     21  O   UNL     1     -11.431  -1.650   0.000  0.00  0.00    +0.000 OA
ENDBRANCH  19  21
BRANCH  18  22
ATOM     22  C   UNL     1     -10.003  -2.475   0.000  0.00  0.00    +0.000 C 
ATOM     23  O   UNL     1     -10.717  -2.888   0.000  0.00  0.00    +0.000 OA
ENDBRANCH  18  22
ENDBRANCH   9  15
ENDBRANCH   6   9
BRANCH   3  24
ATOM     24  C   UNL     1      -5.716   0.825   0.000  0.00  0.00    +0.000 C 
BRANCH  24  25
ATOM     25  C   UNL     1      -5.001   1.238   0.000  0.00  0.00    +0.000 C 
BRANCH  25  35
ATOM     26  C   UNL     1      -2.143   3.712   0.000  0.00  0.00    +0.000 C 
ATOM     27  C   UNL     1      -6.430   2.062   0.000  0.00  0.00    +0.000 C 
ATOM     28  C   UNL     1      -5.716   3.300   0.000  0.00  0.00    +0.000 C 
ATOM     29  C   UNL     1      -5.001   3.712   0.000  0.00  0.00    +0.000 C 
ATOM     30  C   UNL     1      -3.572   3.712   0.000  0.00  0.00    +0.000 C 
ATOM     31  C   UNL     1      -2.858   2.475   0.000  0.00  0.00    +0.000 C 
ATOM     32  C   UNL     1      -2.858   3.300   0.000  0.00  0.00    +0.000 C 
ATOM     33  C   UNL     1      -5.716   2.475   0.000  0.00  0.00    +0.000 C 
ATOM     34  C   UNL     1      -4.287   3.300   0.000  0.00  0.00    +0.000 C 
ATOM     35  C   UNL     1      -5.001   2.062   0.000  0.00  0.00    +0.000 C 
ATOM     36  C   UNL     1      -3.572   2.062   0.000  0.00  0.00    +0.000 C 
ATOM     37  C   UNL     1      -4.287   2.475   0.000  0.00  0.00    +0.000 C 
BRANCH  36  38
ATOM     38  O   UNL     1      -3.572   1.238   0.000  0.00  0.00    +0.000 OA
BRANCH  38  39
ATOM     39  C   UNL     1      -2.858   0.825   0.000  0.00  0.00    +0.000 C 
ATOM     40  O   UNL     1      -2.143   1.238   0.000  0.00  0.00    +0.000 OA
BRANCH  39  42
ATOM     41  C   UNL     1      -3.572  -0.412   0.000  0.00  0.00    +0.000 C 
ATOM     42  C   UNL     1      -2.858   0.000   0.000  0.00  0.00    +0.000 C 
BRANCH  42  44
ATOM     43  C   UNL     1      -2.143  -1.238   0.000  0.00  0.00    +0.000 C 
ATOM     44  C   UNL     1      -2.143  -0.412   0.000  0.00  0.00    +0.000 C 
ENDBRANCH  42  44
ENDBRANCH  39  42
ENDBRANCH  38  39
ENDBRANCH  36  38
ENDBRANCH  25  35
ENDBRANCH  24  25
ENDBRANCH   3  24
TORSDOF 11
