REMARK  Name = 
REMARK  1 active torsions:
REMARK  status: ('A' for Active; 'I' for Inactive)
REMARK    1  A    between atoms: C_19  and  C_24
REMARK                            x       y       z     vdW  Elec       q    Type
REMARK                         _______ _______ _______ _____ _____    ______ ____
ROOT
ATOM      1  C   UNL     1      12.527  -9.517   0.000  0.00  0.00    +0.000 C 
ATOM      2  C   UNL     1      12.527 -10.342   0.000  0.00  0.00    +0.000 C 
ATOM      3  C   UNL     1      13.242 -10.755   0.000  0.00  0.00    +0.000 C 
ATOM      4  C   UNL     1      13.956 -10.342   0.000  0.00  0.00    +0.000 C 
ATOM      5  C   UNL     1      13.956  -9.517   0.000  0.00  0.00    +0.000 C 
ATOM      6  C   UNL     1      13.242  -9.105   0.000  0.00  0.00    +0.000 C 
ATOM      7  C   UNL     1      14.671 -10.755   0.000  0.00  0.00    +0.000 C 
ATOM      8  C   UNL     1      15.385 -10.342   0.000  0.00  0.00    +0.000 C 
ATOM      9  C   UNL     1      15.385  -9.517   0.000  0.00  0.00    +0.000 C 
ATOM     10  C   UNL     1      14.671  -9.105   0.000  0.00  0.00    +0.000 C 
ATOM     11  C   UNL     1      15.385  -7.867   0.000  0.00  0.00    +0.000 C 
ATOM     12  C   UNL     1      14.671  -8.280   0.000  0.00  0.00    +0.000 C 
ATOM     13  O   UNL     1      11.813 -10.755   0.000  0.00  0.00    +0.000 OA
ATOM     14  C   UNL     1      13.956  -8.692   0.000  0.00  0.00    +0.000 C 
ATOM     15  C   UNL     1      16.100  -7.455   0.000  0.00  0.00    +0.000 C 
ATOM     16  C   UNL     1      16.884  -8.025   0.000  0.00  0.00    +0.000 C 
ATOM     17  C   UNL     1      16.100  -8.280   0.000  0.00  0.00    +0.000 C 
ATOM     18  C   UNL     1      16.100  -9.105   0.000  0.00  0.00    +0.000 C 
ATOM     19  C   UNL     1      16.884  -9.360   0.000  0.00  0.00    +0.000 C 
ATOM     20  C   UNL     1      17.369  -8.692   0.000  0.00  0.00    +0.000 C 
ENDROOT
BRANCH  16  21
ATOM     21  C   UNL     1      17.139  -7.240   0.000  0.00  0.00    +0.000 A 
ATOM     22  C   UNL     1      16.587  -6.627   0.000  0.00  0.00    +0.000 A 
ATOM     23  C   UNL     1      17.946  -7.069   0.000  0.00  0.00    +0.000 A 
ATOM     24  N   UNL     1      16.842  -5.842   0.000  0.00  0.00    +0.000 NA
ATOM     25  C   UNL     1      18.201  -6.284   0.000  0.00  0.00    +0.000 A 
ATOM     26  C   UNL     1      17.649  -5.671   0.000  0.00  0.00    +0.000 A 
ENDBRANCH  16  21
TORSDOF 1
