REMARK  Name = 
REMARK  3 active torsions:
REMARK  status: ('A' for Active; 'I' for Inactive)
REMARK    1  A    between atoms: CB_3  and  CA_6
REMARK    2  A    between atoms: CB_3  and  CG_8
REMARK    3  A    between atoms: C_4  and  CA_6
REMARK                            x       y       z     vdW  Elec       q    Type
REMARK                         _______ _______ _______ _____ _____    ______ ____
ROOT
ATOM      1  CA  LEU A   1       0.357  -0.206   0.000  0.00  0.00    +0.000 C 
ATOM      2  N   LEU A   1       0.357  -1.031   0.000  0.00  0.00    +0.000 NA
ENDROOT
BRANCH   1   4
ATOM      3  O   LEU A   1       1.786  -0.206   0.000  0.00  0.00    +0.000 OA
ATOM      4  C   LEU A   1       1.072   0.206   0.000  0.00  0.00    +0.000 C 
ATOM      5  OXT LEU A   1       1.072   1.031   0.000  0.00  0.00    +0.000 OA
ENDBRANCH   1   4
BRANCH   1   6
ATOM      6  CB  LEU A   1      -0.357   0.206   0.000  0.00  0.00    +0.000 C 
BRANCH   6   8
ATOM      7  CD1 LEU A   1      -1.786   0.206   0.000  0.00  0.00    +0.000 C 
ATOM      8  CG  LEU A   1      -1.072  -0.206   0.000  0.00  0.00    +0.000 C 
ATOM      9  CD2 LEU A   1      -1.072  -1.031   0.000  0.00  0.00    +0.000 C 
ENDBRANCH   6   8
ENDBRANCH   1   6
TORSDOF 3
