REMARK  Name = 
REMARK  1 active torsions:
REMARK  status: ('A' for Active; 'I' for Inactive)
REMARK    1  A    between atoms: C_9  and  C_12
REMARK                            x       y       z     vdW  Elec       q    Type
REMARK                         _______ _______ _______ _____ _____    ______ ____
ROOT
ATOM      1  C   UNL     1      10.873  -9.567   0.000  0.00  0.00    +0.000 A 
ATOM      2  C   UNL     1      10.873  -8.742   0.000  0.00  0.00    +0.000 A 
ATOM      3  N   UNL     1      10.158  -9.979   0.000  0.00  0.00    +0.000 NA
ATOM      4  C   UNL     1      10.158  -8.329   0.000  0.00  0.00    +0.000 A 
ATOM      5  C   UNL     1       9.444  -9.567   0.000  0.00  0.00    +0.000 A 
ATOM      6  N   UNL     1       9.444  -8.742   0.000  0.00  0.00    +0.000 NA
ATOM      7  N   UNL     1      11.658  -9.822   0.000  0.00  0.00    +0.000 NA
ATOM      8  C   UNL     1      12.142  -9.155   0.000  0.00  0.00    +0.000 A 
ATOM      9  C   UNL     1      11.657  -8.487   0.000  0.00  0.00    +0.000 A 
ATOM     10  O   UNL     1      10.158  -7.505   0.000  0.00  0.00    +0.000 OA
ATOM     11  N   UNL     1       8.729  -9.979   0.000  0.00  0.00    +0.000 NA
ENDROOT
BRANCH   9  12
ATOM     12  C   UNL     1      11.912  -7.702   0.000  0.00  0.00    +0.000 C 
ATOM     13  N   UNL     1      12.719  -7.531   0.000  0.00  0.00    +0.000 NA
ENDBRANCH   9  12
TORSDOF 1
