REMARK  Name = 
REMARK  3 active torsions:
REMARK  status: ('A' for Active; 'I' for Inactive)
REMARK    1  A    between atoms: C_2  and  C_3
REMARK    2  A    between atoms: C_2  and  C_5
REMARK    3  A    between atoms: C_5  and  C_7
REMARK                            x       y       z     vdW  Elec       q    Type
REMARK                         _______ _______ _______ _____ _____    ______ ____
ROOT
ATOM      1  O   UNL     1       1.238  -0.111   0.000  0.00  0.00    +0.000 OA
ATOM      2  C   UNL     1       1.238   0.715   0.000  0.00  0.00    +0.000 C 
ENDROOT
BRANCH   2   3
ATOM      3  C   UNL     1       0.523   1.127   0.000  0.00  0.00    +0.000 C 
ATOM      4  S   UNL     1      -0.191   0.715   0.000  0.00  0.00    +0.000 S 
ENDBRANCH   2   3
BRANCH   2   5
ATOM      5  C   UNL     1       1.952   1.127   0.000  0.00  0.00    +0.000 C 
ATOM      6  O   UNL     1       1.952   1.952   0.000  0.00  0.00    +0.000 OA
BRANCH   5   7
ATOM      7  C   UNL     1       2.666   0.715   0.000  0.00  0.00    +0.000 C 
ATOM      8  S   UNL     1       3.381   1.127   0.000  0.00  0.00    +0.000 S 
ENDBRANCH   5   7
ENDBRANCH   2   5
TORSDOF 3
