REMARK  Name = 
REMARK  5 active torsions:
REMARK  status: ('A' for Active; 'I' for Inactive)
REMARK    1  A    between atoms: C_4  and  C_7
REMARK    2  A    between atoms: C_7  and  C_16
REMARK    3  A    between atoms: C_9  and  C_10
REMARK    4  A    between atoms: C_10  and  C_14
REMARK    5  A    between atoms: N_11  and  C_14
REMARK                            x       y       z     vdW  Elec       q    Type
REMARK                         _______ _______ _______ _____ _____    ______ ____
ROOT
ATOM      1  C   UNL     1       0.000  -0.825   0.000  0.00  0.00    +0.000 A 
ATOM      2  C   UNL     1       0.715  -0.412   0.000  0.00  0.00    +0.000 A 
ATOM      3  C   UNL     1       0.000   0.825   0.000  0.00  0.00    +0.000 A 
ATOM      4  C   UNL     1      -0.715  -0.412   0.000  0.00  0.00    +0.000 A 
ATOM      5  C   UNL     1      -0.715   0.412   0.000  0.00  0.00    +0.000 A 
ATOM      6  C   UNL     1       0.715   0.412   0.000  0.00  0.00    +0.000 A 
ATOM      7  C   UNL     1       1.984   0.000   0.000  0.00  0.00    +0.000 A 
ATOM      8  C   UNL     1       1.499  -0.667   0.000  0.00  0.00    +0.000 A 
ATOM      9  N   UNL     1       1.499   0.667   0.000  0.00  0.00    +0.000 NA
ENDROOT
BRANCH   4  10
ATOM     10  C   UNL     1      -1.429  -0.825   0.000  0.00  0.00    +0.000 C 
BRANCH  10  11
ATOM     11  C   UNL     1      -2.143  -0.412   0.000  0.00  0.00    +0.000 C 
ATOM     12  N   UNL     1      -2.811  -0.897   0.000  0.00  0.00    +0.000 NA
ATOM     13  C   UNL     1      -3.478  -0.413   0.000  0.00  0.00    +0.000 C 
ATOM     14  O   UNL     1      -3.223   0.372   0.000  0.00  0.00    +0.000 OA
ATOM     15  O   UNL     1      -4.263  -0.667   0.000  0.00  0.00    +0.000 OA
ATOM     16  C   UNL     1      -2.398   0.372   0.000  0.00  0.00    +0.000 C 
ENDBRANCH  10  11
ENDBRANCH   4  10
BRANCH   8  17
ATOM     17  C   UNL     1       1.754  -1.452   0.000  0.00  0.00    +0.000 C 
BRANCH  17  18
ATOM     18  C   UNL     1       2.561  -1.623   0.000  0.00  0.00    +0.000 C 
BRANCH  18  19
ATOM     19  N   UNL     1       2.816  -2.408   0.000  0.00  0.00    +0.000 NA
ATOM     20  C   UNL     1       2.264  -3.021   0.000  0.00  0.00    +0.000 C 
ATOM     21  C   UNL     1       3.623  -2.580   0.000  0.00  0.00    +0.000 C 
ENDBRANCH  18  19
ENDBRANCH  17  18
ENDBRANCH   8  17
TORSDOF 5
