REMARK  Name = 
REMARK  1 active torsions:
REMARK  status: ('A' for Active; 'I' for Inactive)
REMARK    1  A    between atoms: C_2  and  C_3
REMARK                            x       y       z     vdW  Elec       q    Type
REMARK                         _______ _______ _______ _____ _____    ______ ____
ROOT
ATOM      1  C   UNK     1       1.235   0.629   0.000  0.00  0.00    +0.000 C 
ATOM      2  N   UNK     1       0.980  -0.155   0.000  0.00  0.00    +0.000 NA
ATOM      3  C   UNK     1       0.155  -0.155   0.000  0.00  0.00    +0.000 C 
ATOM      4  C   UNK     1      -0.100   0.629   0.000  0.00  0.00    +0.000 C 
ATOM      5  O   UNK     1      -0.884   0.884   0.000  0.00  0.00    +0.000 OA
ATOM      6  C   UNK     1       0.568   1.114   0.000  0.00  0.00    +0.000 C 
ATOM      7  O   UNK     1       0.568   1.939   0.000  0.00  0.00    +0.000 OA
ENDROOT
BRANCH   1   9
ATOM      8  O   UNK     1       2.633   0.332   0.000  0.00  0.00    +0.000 OA
ATOM      9  C   UNK     1       2.020   0.884   0.000  0.00  0.00    +0.000 C 
ENDBRANCH   1   9
TORSDOF 1
