REMARK  Name = 
REMARK  1 active torsions:
REMARK  status: ('A' for Active; 'I' for Inactive)
REMARK    1  A    between atoms: C_5  and  C_6
REMARK                            x       y       z     vdW  Elec       q    Type
REMARK                         _______ _______ _______ _____ _____    ______ ____
ROOT
ATOM      1  N   UNL     1      21.733 -18.439   0.000  0.00  0.00    +0.000 NA
ATOM      2  C   UNL     1      22.447 -17.201   0.000  0.00  0.00    +0.000 A 
ATOM      3  C   UNL     1      21.733 -17.614   0.000  0.00  0.00    +0.000 A 
ATOM      4  C   UNL     1      22.447 -18.851   0.000  0.00  0.00    +0.000 A 
ATOM      5  C   UNL     1      23.162 -17.614   0.000  0.00  0.00    +0.000 A 
ATOM      6  C   UNL     1      23.162 -18.439   0.000  0.00  0.00    +0.000 A 
ENDROOT
BRANCH   2  10
ATOM      7  O   UNL     1      21.733 -15.964   0.000  0.00  0.00    +0.000 OA
ATOM      8  N   UNL     1      23.162 -15.964   0.000  0.00  0.00    +0.000 NA
ATOM      9  C   UNL     1      23.162 -15.139   0.000  0.00  0.00    +0.000 C 
ATOM     10  C   UNL     1      22.447 -16.376   0.000  0.00  0.00    +0.000 C 
ENDBRANCH   2  10
TORSDOF 1
