REMARK  Name = 
REMARK  3 active torsions:
REMARK  status: ('A' for Active; 'I' for Inactive)
REMARK    1  A    between atoms: C_10  and  C_13
REMARK    2  A    between atoms: C_12  and  C_17
REMARK    3  A    between atoms: C_14  and  N_21
REMARK                            x       y       z     vdW  Elec       q    Type
REMARK                         _______ _______ _______ _____ _____    ______ ____
ROOT
ATOM      1  C   UNL     1       0.884   0.071   0.000  0.00  0.00    +0.000 C 
ATOM      2  C   UNL     1       3.352   1.110   0.000  0.00  0.00    +0.000 C 
ATOM      3  C   UNL     1       1.139   2.190   0.000  0.00  0.00    +0.000 A 
ATOM      4  C   UNL     1       3.352   1.935   0.000  0.00  0.00    +0.000 C 
ATOM      5  C   UNL     1       2.638   0.698   0.000  0.00  0.00    +0.000 C 
ATOM      6  C   UNL     1       1.923   1.935   0.000  0.00  0.00    +0.000 A 
ATOM      7  C   UNL     1       0.654   1.523   0.000  0.00  0.00    +0.000 A 
ATOM      8  C   UNL     1       1.923   1.110   0.000  0.00  0.00    +0.000 A 
ATOM      9  C   UNL     1       2.638   2.348   0.000  0.00  0.00    +0.000 C 
ATOM     10  N   UNL     1       1.139   0.856   0.000  0.00  0.00    +0.000 N 
ATOM     11  O   UNL     1       2.638  -0.127   0.000  0.00  0.00    +0.000 OA
ATOM     12  O   UNL     1       2.638   3.173   0.000  0.00  0.00    +0.000 OA
ENDROOT
BRANCH   7  18
ATOM     13  C   UNL     1      -1.821   1.523   0.000  0.00  0.00    +0.000 A 
ATOM     14  C   UNL     1      -1.409   0.808   0.000  0.00  0.00    +0.000 A 
ATOM     15  C   UNL     1      -1.409   2.237   0.000  0.00  0.00    +0.000 A 
ATOM     16  C   UNL     1      -0.584   0.808   0.000  0.00  0.00    +0.000 A 
ATOM     17  C   UNL     1      -0.584   2.237   0.000  0.00  0.00    +0.000 A 
ATOM     18  C   UNL     1      -0.171   1.523   0.000  0.00  0.00    +0.000 A 
ENDBRANCH   7  18
BRANCH   4  22
ATOM     19  C   UNL     1       4.479   3.887   0.000  0.00  0.00    +0.000 C 
ATOM     20  C   UNL     1       4.892   2.348   0.000  0.00  0.00    +0.000 C 
ATOM     21  C   UNL     1       4.479   3.062   0.000  0.00  0.00    +0.000 C 
ATOM     22  N   UNL     1       4.067   2.348   0.000  0.00  0.00    +0.000 N 
ENDBRANCH   4  22
BRANCH   3  23
ATOM     23  C   UNL     1       0.884   2.975   0.000  0.00  0.00    +0.000 C 
ATOM     24  O   UNL     1       0.077   3.147   0.000  0.00  0.00    +0.000 OA
ENDBRANCH   3  23
TORSDOF 3
