REMARK  Name = 
REMARK  6 active torsions:
REMARK  status: ('A' for Active; 'I' for Inactive)
REMARK    1  A    between atoms: C_4  and  C_5
REMARK    2  A    between atoms: C_4  and  N_15
REMARK    3  A    between atoms: C_6  and  C_7
REMARK    4  A    between atoms: C_6  and  C_9
REMARK    5  A    between atoms: C_8  and  C_10
REMARK    6  A    between atoms: C_10  and  C_12
REMARK                            x       y       z     vdW  Elec       q    Type
REMARK                         _______ _______ _______ _____ _____    ______ ____
ROOT
ATOM      1  C   UNL     1       0.155  -0.155   0.000  0.00  0.00    +0.000 C 
ATOM      2  C   UNL     1       0.980  -0.155   0.000  0.00  0.00    +0.000 C 
ATOM      3  C   UNL     1       0.568   1.114   0.000  0.00  0.00    +0.000 C 
ATOM      4  N   UNL     1      -0.100   0.629   0.000  0.00  0.00    +0.000 NA
ATOM      5  N   UNL     1       1.235   0.629   0.000  0.00  0.00    +0.000 N 
ATOM      6  O   UNL     1       1.465  -0.823   0.000  0.00  0.00    +0.000 OA
ATOM      7  O   UNL     1       1.120   1.727   0.000  0.00  0.00    +0.000 OA
ENDROOT
BRANCH   3   8
ATOM      8  C   UNL     1       0.016   1.727   0.000  0.00  0.00    +0.000 C 
ATOM      9  N   UNL     1       0.271   2.512   0.000  0.00  0.00    +0.000 NA
BRANCH   8  11
ATOM     10  C   UNL     1      -1.046   0.771   0.000  0.00  0.00    +0.000 C 
ATOM     11  C   UNL     1      -0.791   1.556   0.000  0.00  0.00    +0.000 C 
ATOM     12  O   UNL     1      -1.343   2.169   0.000  0.00  0.00    +0.000 OA
ENDBRANCH   8  11
ENDBRANCH   3   8
BRANCH   1  13
ATOM     13  C   UNL     1      -0.330  -0.823   0.000  0.00  0.00    +0.000 C 
BRANCH  13  16
ATOM     14  C   UNL     1      -0.479  -2.244   0.000  0.00  0.00    +0.000 C 
ATOM     15  C   UNL     1       0.826  -1.663   0.000  0.00  0.00    +0.000 C 
ATOM     16  C   UNL     1       0.006  -1.576   0.000  0.00  0.00    +0.000 C 
ENDBRANCH  13  16
ENDBRANCH   1  13
BRANCH   5  17
ATOM     17  C   UNL     1       2.020   0.884   0.000  0.00  0.00    +0.000 C 
BRANCH  17  18
ATOM     18  C   UNL     1       2.191   1.691   0.000  0.00  0.00    +0.000 C 
ATOM     19  O   UNL     1       2.976   1.946   0.000  0.00  0.00    +0.000 OA
ENDBRANCH  17  18
ENDBRANCH   5  17
TORSDOF 6
