REMARK  Name = 
REMARK  4 active torsions:
REMARK  status: ('A' for Active; 'I' for Inactive)
REMARK    1  A    between atoms: C_15  and  C_16
REMARK    2  A    between atoms: C_15  and  N_28
REMARK    3  A    between atoms: C_17  and  C_22
REMARK    4  A    between atoms: N_30  and  S_35
REMARK                            x       y       z     vdW  Elec       q    Type
REMARK                         _______ _______ _______ _____ _____    ______ ____
ROOT
ATOM      1  C   UNL     1       0.641  -2.760   0.000  0.00  0.00    +0.000 C 
ATOM      2  C   UNL     1       2.070  -2.760   0.000  0.00  0.00    +0.000 C 
ATOM      3  C   UNL     1       0.641  -3.585   0.000  0.00  0.00    +0.000 C 
ATOM      4  C   UNL     1       2.070  -3.585   0.000  0.00  0.00    +0.000 C 
ATOM      5  C   UNL     1      -0.143  -0.030   0.000  0.00  0.00    +0.000 A 
ATOM      6  C   UNL     1      -0.628  -0.698   0.000  0.00  0.00    +0.000 A 
ATOM      7  C   UNL     1       0.641  -0.285   0.000  0.00  0.00    +0.000 A 
ATOM      8  C   UNL     1       0.641  -1.110   0.000  0.00  0.00    +0.000 A 
ATOM      9  C   UNL     1       2.070  -0.285   0.000  0.00  0.00    +0.000 A 
ATOM     10  C   UNL     1       1.356  -1.523   0.000  0.00  0.00    +0.000 A 
ATOM     11  N   UNL     1       1.356   0.127   0.000  0.00  0.00    +0.000 NA
ATOM     12  N   UNL     1       2.070  -1.110   0.000  0.00  0.00    +0.000 NA
ATOM     13  N   UNL     1       1.356  -2.348   0.000  0.00  0.00    +0.000 N 
ATOM     14  O   UNL     1       1.356  -3.998   0.000  0.00  0.00    +0.000 OA
ATOM     15  S   UNL     1      -0.143  -1.365   0.000  0.00  0.00    +0.000 S 
ENDROOT
BRANCH   9  20
ATOM     16  C   UNL     1       3.499   1.365   0.000  0.00  0.00    +0.000 A 
ATOM     17  C   UNL     1       2.784   0.952   0.000  0.00  0.00    +0.000 A 
ATOM     18  C   UNL     1       4.213   0.952   0.000  0.00  0.00    +0.000 A 
ATOM     19  C   UNL     1       3.671  -1.092   0.000  0.00  0.00    +0.000 A 
ATOM     20  C   UNL     1       2.784   0.127   0.000  0.00  0.00    +0.000 A 
ATOM     21  C   UNL     1       3.499  -0.285   0.000  0.00  0.00    +0.000 A 
ATOM     22  C   UNL     1       4.213   0.127   0.000  0.00  0.00    +0.000 A 
ATOM     23  N   UNL     1       4.491  -1.179   0.000  0.00  0.00    +0.000 NA
ATOM     24  N   UNL     1       4.827  -0.425   0.000  0.00  0.00    +0.000 NA
ENDBRANCH   9  20
BRANCH   6  25
ATOM     25  C   UNL     1      -1.453  -0.698   0.000  0.00  0.00    +0.000 C 
BRANCH  25  30
ATOM     26  C   UNL     1      -2.691  -1.412   0.000  0.00  0.00    +0.000 C 
ATOM     27  C   UNL     1      -1.453  -2.127   0.000  0.00  0.00    +0.000 C 
ATOM     28  C   UNL     1      -3.103  -2.127   0.000  0.00  0.00    +0.000 C 
ATOM     29  C   UNL     1      -1.866  -2.841   0.000  0.00  0.00    +0.000 C 
ATOM     30  N   UNL     1      -1.866  -1.412   0.000  0.00  0.00    +0.000 NA
ATOM     31  N   UNL     1      -2.691  -2.841   0.000  0.00  0.00    +0.000 NA
BRANCH  31  35
ATOM     32  C   UNL     1      -3.516  -4.270   0.000  0.00  0.00    +0.000 C 
ATOM     33  O   UNL     1      -2.389  -3.968   0.000  0.00  0.00    +0.000 OA
ATOM     34  O   UNL     1      -3.818  -3.143   0.000  0.00  0.00    +0.000 OA
ATOM     35  S   UNL     1      -3.103  -3.556   0.000  0.00  0.00    +0.000 S 
ENDBRANCH  31  35
ENDBRANCH  25  30
ENDBRANCH   6  25
TORSDOF 4
