REMARK  Name = 
REMARK  1 active torsions:
REMARK  status: ('A' for Active; 'I' for Inactive)
REMARK    1  A    between atoms: C_4  and  C_8
REMARK                            x       y       z     vdW  Elec       q    Type
REMARK                         _______ _______ _______ _____ _____    ______ ____
ROOT
ATOM      1  O   UNL     1      17.863  -3.480   0.000  0.00  0.00    +0.000 OA
ATOM      2  O   UNL     1      20.776  -3.460   0.000  0.00  0.00    +0.000 OA
ATOM      3  C   UNL     1      17.149  -4.718   0.000  0.00  0.00    +0.000 C 
ATOM      4  C   UNL     1      17.863  -5.130   0.000  0.00  0.00    +0.000 C 
ATOM      5  C   UNL     1      17.149  -3.893   0.000  0.00  0.00    +0.000 C 
ATOM      6  C   UNL     1      18.578  -4.718   0.000  0.00  0.00    +0.000 A 
ATOM      7  C   UNL     1      18.578  -3.893   0.000  0.00  0.00    +0.000 A 
ATOM      8  C   UNL     1      19.315  -5.159   0.000  0.00  0.00    +0.000 A 
ATOM      9  C   UNL     1      19.315  -3.451   0.000  0.00  0.00    +0.000 A 
ATOM     10  C   UNL     1      20.063  -4.735   0.000  0.00  0.00    +0.000 A 
ATOM     11  C   UNL     1      20.063  -3.875   0.000  0.00  0.00    +0.000 A 
ENDROOT
BRANCH   3  13
ATOM     12  O   UNL     1      14.291  -6.367   0.000  0.00  0.00    +0.000 OA
ATOM     13  C   UNL     1      16.434  -5.130   0.000  0.00  0.00    +0.000 A 
ATOM     14  C   UNL     1      15.720  -4.718   0.000  0.00  0.00    +0.000 A 
ATOM     15  C   UNL     1      16.434  -5.955   0.000  0.00  0.00    +0.000 A 
ATOM     16  C   UNL     1      15.005  -5.130   0.000  0.00  0.00    +0.000 A 
ATOM     17  C   UNL     1      15.720  -6.367   0.000  0.00  0.00    +0.000 A 
ATOM     18  C   UNL     1      15.005  -5.955   0.000  0.00  0.00    +0.000 A 
ENDBRANCH   3  13
TORSDOF 1
