REMARK  Name = 
REMARK  8 active torsions:
REMARK  status: ('A' for Active; 'I' for Inactive)
REMARK    1  A    between atoms: C_2  and  C_5
REMARK    2  A    between atoms: C_4  and  C_10
REMARK    3  A    between atoms: C_6  and  N_13
REMARK    4  A    between atoms: C_8  and  O_29
REMARK    5  A    between atoms: C_9  and  O_28
REMARK    6  A    between atoms: C_12  and  O_28
REMARK    7  A    between atoms: N_13  and  S_30
REMARK    8  A    between atoms: O_29  and  S_31
REMARK                            x       y       z     vdW  Elec       q    Type
REMARK                         _______ _______ _______ _____ _____    ______ ____
ROOT
ATOM      1  O   UNL     1      -2.143  -2.888   0.000  0.00  0.00    +0.000 OA
ENDROOT
BRANCH   1   5
ATOM      2  C   UNL     1      -1.429  -4.125   0.000  0.00  0.00    +0.000 C 
ATOM      3  C   UNL     1      -2.858  -4.950   0.000  0.00  0.00    +0.000 C 
ATOM      4  C   UNL     1      -2.858  -4.125   0.000  0.00  0.00    +0.000 C 
ATOM      5  C   UNL     1      -2.143  -3.712   0.000  0.00  0.00    +0.000 C 
ATOM      6  C   UNL     1      -2.143  -5.362   0.000  0.00  0.00    +0.000 C 
ATOM      7  O   UNL     1      -3.572  -3.712   0.000  0.00  0.00    +0.000 OA
ATOM      8  O   UNL     1      -2.143  -6.188   0.000  0.00  0.00    +0.000 OA
ATOM      9  O   UNL     1      -1.429  -4.950   0.000  0.00  0.00    +0.000 OA
BRANCH   2  10
ATOM     10  C   UNL     1      -0.715  -3.712   0.000  0.00  0.00    +0.000 C 
ATOM     11  O   UNL     1       0.000  -4.125   0.000  0.00  0.00    +0.000 OA
ENDBRANCH   2  10
BRANCH   3  12
ATOM     12  N   UNL     1      -3.572  -5.362   0.000  0.00  0.00    +0.000 NA
BRANCH  12  16
ATOM     13  O   UNL     1      -3.572  -7.013   0.000  0.00  0.00    +0.000 OA
ATOM     14  O   UNL     1      -4.397  -6.188   0.000  0.00  0.00    +0.000 OA
ATOM     15  O   UNL     1      -2.747  -6.188   0.000  0.00  0.00    +0.000 OA
ATOM     16  S   UNL     1      -3.572  -6.188   0.000  0.00  0.00    +0.000 S 
ENDBRANCH  12  16
ENDBRANCH   3  12
ENDBRANCH   1   5
BRANCH   1  21
ATOM     17  C   UNL     1       0.000  -1.650   0.000  0.00  0.00    +0.000 C 
ATOM     18  C   UNL     1      -0.715  -1.238   0.000  0.00  0.00    +0.000 C 
ATOM     19  C   UNL     1       0.000  -2.475   0.000  0.00  0.00    +0.000 C 
ATOM     20  C   UNL     1      -1.429  -1.650   0.000  0.00  0.00    +0.000 C 
ATOM     21  C   UNL     1      -1.429  -2.475   0.000  0.00  0.00    +0.000 C 
ATOM     22  O   UNL     1      -0.715  -0.412   0.000  0.00  0.00    +0.000 OA
ATOM     23  O   UNL     1      -0.715  -2.888   0.000  0.00  0.00    +0.000 OA
BRANCH  19  24
ATOM     24  C   UNL     1       0.715  -2.888   0.000  0.00  0.00    +0.000 C 
ATOM     25  O   UNL     1       1.429  -2.475   0.000  0.00  0.00    +0.000 OA
ATOM     26  O   UNL     1       0.715  -3.712   0.000  0.00  0.00    +0.000 OA
ENDBRANCH  19  24
BRANCH  20  27
ATOM     27  O   UNL     1      -2.143  -1.238   0.000  0.00  0.00    +0.000 OA
BRANCH  27  31
ATOM     28  O   UNL     1      -1.318  -0.412   0.000  0.00  0.00    +0.000 OA
ATOM     29  O   UNL     1      -2.968  -0.412   0.000  0.00  0.00    +0.000 OA
ATOM     30  O   UNL     1      -2.143   0.412   0.000  0.00  0.00    +0.000 OA
ATOM     31  S   UNL     1      -2.143  -0.412   0.000  0.00  0.00    +0.000 S 
ENDBRANCH  27  31
ENDBRANCH  20  27
ENDBRANCH   1  21
TORSDOF 8
