REMARK  Name = 
REMARK  4 active torsions:
REMARK  status: ('A' for Active; 'I' for Inactive)
REMARK    1  A    between atoms: C_2  and  C_3
REMARK    2  A    between atoms: C_5  and  O_23
REMARK    3  A    between atoms: C_12  and  O_23
REMARK    4  A    between atoms: C_13  and  C_14
REMARK                            x       y       z     vdW  Elec       q    Type
REMARK                         _______ _______ _______ _____ _____    ______ ____
ROOT
ATOM      1  O   UNL     1       0.469  -1.589   0.000  0.00  0.00    +0.000 OA
ENDROOT
BRANCH   1   4
ATOM      2  C   UNL     1      -1.675  -2.001   0.000  0.00  0.00    +0.000 C 
ATOM      3  O   UNL     1      -0.960  -1.589   0.000  0.00  0.00    +0.000 OA
ATOM      4  C   UNL     1      -0.246  -2.001   0.000  0.00  0.00    +0.000 C 
ATOM      5  C   UNL     1      -0.246  -2.826   0.000  0.00  0.00    +0.000 C 
ATOM      6  O   UNL     1       0.469  -3.239   0.000  0.00  0.00    +0.000 OA
ATOM      7  C   UNL     1      -0.960  -3.239   0.000  0.00  0.00    +0.000 C 
ATOM      8  O   UNL     1      -0.960  -4.064   0.000  0.00  0.00    +0.000 OA
ATOM      9  C   UNL     1      -1.675  -2.826   0.000  0.00  0.00    +0.000 C 
ATOM     10  O   UNL     1      -2.389  -3.239   0.000  0.00  0.00    +0.000 OA
BRANCH   2  12
ATOM     11  O   UNL     1      -3.104  -2.001   0.000  0.00  0.00    +0.000 OA
ATOM     12  C   UNL     1      -2.389  -1.589   0.000  0.00  0.00    +0.000 C 
ENDBRANCH   2  12
ENDBRANCH   1   4
BRANCH   1  13
ATOM     13  C   UNL     1       0.469  -0.764   0.000  0.00  0.00    +0.000 C 
ATOM     14  C   UNL     1      -0.246  -0.351   0.000  0.00  0.00    +0.000 C 
ATOM     15  O   UNL     1      -0.246   0.474   0.000  0.00  0.00    +0.000 OA
ATOM     16  C   UNL     1       0.469   0.886   0.000  0.00  0.00    +0.000 C 
ATOM     17  O   UNL     1       0.469   1.711   0.000  0.00  0.00    +0.000 OA
ATOM     18  C   UNL     1       1.183   0.474   0.000  0.00  0.00    +0.000 C 
ATOM     19  O   UNL     1       1.897   0.886   0.000  0.00  0.00    +0.000 OA
ATOM     20  C   UNL     1       1.183  -0.351   0.000  0.00  0.00    +0.000 C 
ATOM     21  O   UNL     1       1.897  -0.764   0.000  0.00  0.00    +0.000 OA
BRANCH  14  22
ATOM     22  C   UNL     1      -0.960  -0.764   0.000  0.00  0.00    +0.000 C 
ATOM     23  O   UNL     1      -1.675  -0.351   0.000  0.00  0.00    +0.000 OA
ENDBRANCH  14  22
ENDBRANCH   1  13
TORSDOF 4
