REMARK  Name = 
REMARK  12 active torsions:
REMARK  status: ('A' for Active; 'I' for Inactive)
REMARK    1  A    between atoms: C_2  and  C_3
REMARK    2  A    between atoms: C_5  and  O_6
REMARK    3  A    between atoms: O_6  and  C_7
REMARK    4  A    between atoms: C_8  and  C_9
REMARK    5  A    between atoms: C_12  and  O_13
REMARK    6  A    between atoms: O_13  and  C_14
REMARK    7  A    between atoms: C_22  and  O_23
REMARK    8  A    between atoms: O_23  and  C_24
REMARK    9  A    between atoms: C_26  and  C_27
REMARK   10  A    between atoms: C_40  and  O_41
REMARK   11  A    between atoms: O_41  and  C_42
REMARK   12  A    between atoms: C_44  and  C_45
REMARK                            x       y       z     vdW  Elec       q    Type
REMARK                         _______ _______ _______ _____ _____    ______ ____
ROOT
ATOM      1  C   UNL     1      -3.466  -1.422   0.000  0.00  0.00    +0.000 C 
ATOM      2  C   UNL     1      -4.133  -1.907   0.000  0.00  0.00    +0.000 C 
ATOM      3  O   UNL     1      -3.878  -2.692   0.000  0.00  0.00    +0.000 OA
ATOM      4  C   UNL     1      -3.053  -2.692   0.000  0.00  0.00    +0.000 C 
ATOM      5  C   UNL     1      -2.798  -1.907   0.000  0.00  0.00    +0.000 C 
ATOM      6  O   UNL     1      -2.014  -1.652   0.000  0.00  0.00    +0.000 OA
ENDROOT
BRANCH   2   7
ATOM      7  C   UNL     1      -4.918  -1.652   0.000  0.00  0.00    +0.000 C 
ATOM      8  O   UNL     1      -5.531  -2.204   0.000  0.00  0.00    +0.000 OA
ENDBRANCH   2   7
BRANCH   1   9
ATOM      9  O   UNL     1      -3.466  -0.597   0.000  0.00  0.00    +0.000 OA
BRANCH   9  12
ATOM     10  C   UNL     1      -5.609  -0.185   0.000  0.00  0.00    +0.000 C 
ATOM     11  O   UNL     1      -4.895  -0.597   0.000  0.00  0.00    +0.000 OA
ATOM     12  C   UNL     1      -4.180  -0.185   0.000  0.00  0.00    +0.000 C 
ATOM     13  C   UNL     1      -4.180   0.640   0.000  0.00  0.00    +0.000 C 
ATOM     14  N   UNL     1      -3.466   1.053   0.000  0.00  0.00    +0.000 NA
ATOM     15  C   UNL     1      -4.895   1.053   0.000  0.00  0.00    +0.000 C 
ATOM     16  O   UNL     1      -4.895   1.878   0.000  0.00  0.00    +0.000 OA
ATOM     17  C   UNL     1      -5.609   0.640   0.000  0.00  0.00    +0.000 C 
BRANCH  10  19
ATOM     18  N   UNL     1      -6.324  -1.422   0.000  0.00  0.00    +0.000 NA
ATOM     19  C   UNL     1      -6.324  -0.597   0.000  0.00  0.00    +0.000 C 
ENDBRANCH  10  19
BRANCH  17  20
ATOM     20  O   UNL     1      -6.324   1.053   0.000  0.00  0.00    +0.000 OA
BRANCH  20  21
ATOM     21  C   UNL     1      -7.038   0.640   0.000  0.00  0.00    +0.000 C 
ATOM     22  O   UNL     1      -7.038  -0.185   0.000  0.00  0.00    +0.000 OA
ATOM     23  C   UNL     1      -7.753  -0.597   0.000  0.00  0.00    +0.000 C 
ATOM     24  C   UNL     1      -8.467  -0.185   0.000  0.00  0.00    +0.000 C 
ATOM     25  O   UNL     1      -9.181  -0.597   0.000  0.00  0.00    +0.000 OA
ATOM     26  C   UNL     1      -8.467   0.640   0.000  0.00  0.00    +0.000 C 
ATOM     27  O   UNL     1      -9.181   1.053   0.000  0.00  0.00    +0.000 OA
ATOM     28  C   UNL     1      -7.753   1.053   0.000  0.00  0.00    +0.000 C 
ATOM     29  O   UNL     1      -7.753   1.878   0.000  0.00  0.00    +0.000 OA
BRANCH  23  30
ATOM     30  C   UNL     1      -7.753  -1.422   0.000  0.00  0.00    +0.000 C 
ATOM     31  O   UNL     1      -8.467  -1.835   0.000  0.00  0.00    +0.000 OA
ENDBRANCH  23  30
ENDBRANCH  20  21
ENDBRANCH  17  20
ENDBRANCH   9  12
ENDBRANCH   1   9
BRANCH   4  32
ATOM     32  O   UNL     1      -2.568  -3.359   0.000  0.00  0.00    +0.000 OA
BRANCH  32  33
ATOM     33  C   UNL     1      -2.904  -4.113   0.000  0.00  0.00    +0.000 C 
ATOM     34  C   UNL     1      -2.419  -4.780   0.000  0.00  0.00    +0.000 C 
ATOM     35  O   UNL     1      -1.598  -4.694   0.000  0.00  0.00    +0.000 OA
ATOM     36  C   UNL     1      -2.754  -5.534   0.000  0.00  0.00    +0.000 C 
ATOM     37  N   UNL     1      -2.269  -6.202   0.000  0.00  0.00    +0.000 NA
ATOM     38  C   UNL     1      -3.575  -5.620   0.000  0.00  0.00    +0.000 C 
ATOM     39  C   UNL     1      -4.060  -4.953   0.000  0.00  0.00    +0.000 C 
ATOM     40  N   UNL     1      -4.880  -5.039   0.000  0.00  0.00    +0.000 NA
ATOM     41  C   UNL     1      -3.724  -4.199   0.000  0.00  0.00    +0.000 C 
BRANCH  41  42
ATOM     42  O   UNL     1      -4.209  -3.532   0.000  0.00  0.00    +0.000 OA
BRANCH  42  43
ATOM     43  C   UNL     1      -5.030  -3.618   0.000  0.00  0.00    +0.000 C 
ATOM     44  O   UNL     1      -5.365  -4.372   0.000  0.00  0.00    +0.000 OA
ATOM     45  C   UNL     1      -6.186  -4.458   0.000  0.00  0.00    +0.000 C 
ATOM     46  C   UNL     1      -6.671  -3.791   0.000  0.00  0.00    +0.000 C 
ATOM     47  O   UNL     1      -7.491  -3.877   0.000  0.00  0.00    +0.000 OA
ATOM     48  C   UNL     1      -6.335  -3.037   0.000  0.00  0.00    +0.000 C 
ATOM     49  C   UNL     1      -5.515  -2.951   0.000  0.00  0.00    +0.000 C 
ATOM     50  N   UNL     1      -5.179  -2.197   0.000  0.00  0.00    +0.000 NA
BRANCH  45  51
ATOM     51  C   UNL     1      -6.521  -5.212   0.000  0.00  0.00    +0.000 C 
ATOM     52  O   UNL     1      -7.342  -5.298   0.000  0.00  0.00    +0.000 OA
ENDBRANCH  45  51
ENDBRANCH  42  43
ENDBRANCH  41  42
ENDBRANCH  32  33
ENDBRANCH   4  32
TORSDOF 12
