REMARK  Name = 
REMARK  7 active torsions:
REMARK  status: ('A' for Active; 'I' for Inactive)
REMARK    1  A    between atoms: C_2  and  C_4
REMARK    2  A    between atoms: C_2  and  C_6
REMARK    3  A    between atoms: C_6  and  C_7
REMARK    4  A    between atoms: C_7  and  O_8
REMARK    5  A    between atoms: O_8  and  P_9
REMARK    6  A    between atoms: P_9  and  O_12
REMARK    7  A    between atoms: O_12  and  P_13
REMARK                            x       y       z     vdW  Elec       q    Type
REMARK                         _______ _______ _______ _____ _____    ______ ____
ROOT
ATOM      1  O   UNL     1       5.856  -1.731   0.000  0.00  0.00    +0.000 OA
ENDROOT
BRANCH   1   2
ATOM      2  P   UNL     1       6.570  -2.143   0.000  0.00  0.00    +0.000 P 
ATOM      3  O   UNL     1       6.158  -2.858   0.000  0.00  0.00    +0.000 OA
ATOM      4  O   UNL     1       6.983  -1.429   0.000  0.00  0.00    +0.000 OA
BRANCH   2   5
ATOM      5  O   UNL     1       7.285  -2.556   0.000  0.00  0.00    +0.000 OA
BRANCH   5   6
ATOM      6  P   UNL     1       7.999  -2.143   0.000  0.00  0.00    +0.000 P 
ATOM      7  O   UNL     1       8.714  -1.731   0.000  0.00  0.00    +0.000 OA
ATOM      8  O   UNL     1       8.412  -2.858   0.000  0.00  0.00    +0.000 OA
ATOM      9  O   UNL     1       7.587  -1.429   0.000  0.00  0.00    +0.000 OA
ENDBRANCH   5   6
ENDBRANCH   2   5
ENDBRANCH   1   2
BRANCH   1  10
ATOM     10  C   UNL     1       5.141  -2.143   0.000  0.00  0.00    +0.000 C 
BRANCH  10  11
ATOM     11  C   UNL     1       4.427  -1.731   0.000  0.00  0.00    +0.000 C 
BRANCH  11  13
ATOM     12  C   UNL     1       4.125  -2.858   0.000  0.00  0.00    +0.000 C 
ATOM     13  C   UNL     1       3.712  -2.143   0.000  0.00  0.00    +0.000 C 
ATOM     14  O   UNL     1       3.300  -1.429   0.000  0.00  0.00    +0.000 OA
BRANCH  13  15
ATOM     15  C   UNL     1       2.998  -2.556   0.000  0.00  0.00    +0.000 C 
ATOM     16 BR   UNL     1       2.284  -2.143   0.000  0.00  0.00    +0.000 Br
ENDBRANCH  13  15
ENDBRANCH  11  13
ENDBRANCH  10  11
ENDBRANCH   1  10
TORSDOF 7
