REMARK  Name = 
REMARK  3 active torsions:
REMARK  status: ('A' for Active; 'I' for Inactive)
REMARK    1  A    between atoms: C_9  and  O_10
REMARK    2  A    between atoms: O_10  and  C_11
REMARK    3  A    between atoms: C_13  and  C_14
REMARK                            x       y       z     vdW  Elec       q    Type
REMARK                         _______ _______ _______ _____ _____    ______ ____
ROOT
ATOM      1  C   UNL     1       1.429  -2.475   0.000  0.00  0.00    +0.000 C 
ATOM      2  C   UNL     1       1.429  -1.650   0.000  0.00  0.00    +0.000 A 
ATOM      3  C   UNL     1       0.715  -1.238   0.000  0.00  0.00    +0.000 A 
ATOM      4  C   UNL     1       0.715  -0.412   0.000  0.00  0.00    +0.000 A 
ATOM      5  O   UNL     1       0.000   0.000   0.000  0.00  0.00    +0.000 OA
ATOM      6  O   UNL     1       1.429   0.000   0.000  0.00  0.00    +0.000 OA
ATOM      7  C   UNL     1       2.143  -0.412   0.000  0.00  0.00    +0.000 A 
ATOM      8  C   UNL     1       2.858   0.000   0.000  0.00  0.00    +0.000 A 
ATOM      9  C   UNL     1       3.572  -0.412   0.000  0.00  0.00    +0.000 A 
ATOM     10  C   UNL     1       3.572  -1.238   0.000  0.00  0.00    +0.000 A 
ATOM     11  C   UNL     1       2.858  -1.650   0.000  0.00  0.00    +0.000 A 
ATOM     12  C   UNL     1       2.143  -1.238   0.000  0.00  0.00    +0.000 A 
ENDROOT
BRANCH   9  13
ATOM     13  O   UNL     1       4.287   0.000   0.000  0.00  0.00    +0.000 OA
BRANCH  13  14
ATOM     14  C   UNL     1       5.001  -0.412   0.000  0.00  0.00    +0.000 C 
ATOM     15  O   UNL     1       5.716   0.000   0.000  0.00  0.00    +0.000 OA
ATOM     16  C   UNL     1       6.430  -0.412   0.000  0.00  0.00    +0.000 C 
ATOM     17  C   UNL     1       6.430  -1.238   0.000  0.00  0.00    +0.000 C 
ATOM     18  O   UNL     1       7.145  -1.650   0.000  0.00  0.00    +0.000 OA
ATOM     19  C   UNL     1       5.716  -1.650   0.000  0.00  0.00    +0.000 C 
ATOM     20  O   UNL     1       5.716  -2.475   0.000  0.00  0.00    +0.000 OA
ATOM     21  C   UNL     1       5.001  -1.238   0.000  0.00  0.00    +0.000 C 
ATOM     22  O   UNL     1       4.287  -1.650   0.000  0.00  0.00    +0.000 OA
BRANCH  16  23
ATOM     23  C   UNL     1       7.145   0.000   0.000  0.00  0.00    +0.000 C 
ATOM     24  O   UNL     1       7.145   0.825   0.000  0.00  0.00    +0.000 OA
ENDBRANCH  16  23
ENDBRANCH  13  14
ENDBRANCH   9  13
TORSDOF 3
