REMARK  Name = 
REMARK  2 active torsions:
REMARK  status: ('A' for Active; 'I' for Inactive)
REMARK    1  A    between atoms: C_9  and  C_10
REMARK    2  A    between atoms: C_10  and  C_11
REMARK                            x       y       z     vdW  Elec       q    Type
REMARK                         _______ _______ _______ _____ _____    ______ ____
ROOT
ATOM      1  N   UNL     1       4.067   2.348   0.000  0.00  0.00    +0.000 NA
ATOM      2  C   UNL     1       3.352   1.935   0.000  0.00  0.00    +0.000 A 
ATOM      3  N   UNL     1       3.352   1.110   0.000  0.00  0.00    +0.000 NA
ATOM      4  C   UNL     1       2.638   0.698   0.000  0.00  0.00    +0.000 A 
ATOM      5  O   UNL     1       2.638  -0.127   0.000  0.00  0.00    +0.000 OA
ATOM      6  C   UNL     1       1.923   1.110   0.000  0.00  0.00    +0.000 A 
ATOM      7  C   UNL     1       1.923   1.935   0.000  0.00  0.00    +0.000 A 
ATOM      8  N   UNL     1       2.638   2.348   0.000  0.00  0.00    +0.000 NA
ATOM      9  C   UNL     1       1.139   2.190   0.000  0.00  0.00    +0.000 A 
ATOM     10  C   UNL     1       0.654   1.523   0.000  0.00  0.00    +0.000 A 
ATOM     11  N   UNL     1       1.139   0.856   0.000  0.00  0.00    +0.000 NA
ENDROOT
BRANCH   9  12
ATOM     12  C   UNL     1       0.884   2.975   0.000  0.00  0.00    +0.000 C 
BRANCH  12  13
ATOM     13  C   UNL     1       1.436   3.588   0.000  0.00  0.00    +0.000 A 
ATOM     14  C   UNL     1       1.181   4.373   0.000  0.00  0.00    +0.000 A 
ATOM     15  N   UNL     1       1.733   4.986   0.000  0.00  0.00    +0.000 NA
ATOM     16  C   UNL     1       2.540   4.814   0.000  0.00  0.00    +0.000 A 
ATOM     17  C   UNL     1       2.795   4.030   0.000  0.00  0.00    +0.000 A 
ATOM     18  C   UNL     1       2.243   3.417   0.000  0.00  0.00    +0.000 A 
ENDBRANCH  12  13
ENDBRANCH   9  12
TORSDOF 2
