REMARK  Name = 
REMARK  4 active torsions:
REMARK  status: ('A' for Active; 'I' for Inactive)
REMARK    1  A    between atoms: P_1  and  O_2
REMARK    2  A    between atoms: P_1  and  O_3
REMARK    3  A    between atoms: O_2  and  C_6
REMARK    4  A    between atoms: O_3  and  C_7
REMARK                            x       y       z     vdW  Elec       q    Type
REMARK                         _______ _______ _______ _____ _____    ______ ____
ROOT
ATOM      1  P   UNL     1       0.308   0.377   0.000  0.00  0.00    +0.000 P 
ATOM      2  O   UNL     1       0.962   0.880   0.000  0.00  0.00    +0.000 OA
ATOM      3  S   UNL     1      -0.274  -0.209   0.000  0.00  0.00    +0.000 S 
ENDROOT
BRANCH   1   4
ATOM      4  O   UNL     1      -0.404   0.784   0.000  0.00  0.00    +0.000 OA
BRANCH   4   5
ATOM      5  C   UNL     1      -1.119   0.373   0.000  0.00  0.00    +0.000 C 
ATOM      6  C   UNL     1      -1.831   0.784   0.000  0.00  0.00    +0.000 C 
ENDBRANCH   4   5
ENDBRANCH   1   4
BRANCH   1   7
ATOM      7  O   UNL     1       0.308  -0.448   0.000  0.00  0.00    +0.000 OA
BRANCH   7   8
ATOM      8  C   UNL     1       1.024  -0.859   0.000  0.00  0.00    +0.000 C 
ATOM      9  C   UNL     1       1.024  -1.684   0.000  0.00  0.00    +0.000 C 
ENDBRANCH   7   8
ENDBRANCH   1   7
TORSDOF 4
