REMARK  Name = 
REMARK  4 active torsions:
REMARK  status: ('A' for Active; 'I' for Inactive)
REMARK    1  A    between atoms: C_17  and  N_34
REMARK    2  A    between atoms: C_20  and  C_25
REMARK    3  A    between atoms: C_21  and  C_26
REMARK    4  A    between atoms: C_22  and  C_23
REMARK                            x       y       z     vdW  Elec       q    Type
REMARK                         _______ _______ _______ _____ _____    ______ ____
ROOT
ATOM      1  C   UNL     1      -0.715  -0.412   0.000  0.00  0.00    +0.000 A 
ATOM      2  C   UNL     1      -0.715  -1.238   0.000  0.00  0.00    +0.000 A 
ATOM      3  C   UNL     1       0.000   0.000   0.000  0.00  0.00    +0.000 A 
ATOM      4  C   UNL     1       0.000  -1.650   0.000  0.00  0.00    +0.000 A 
ATOM      5  C   UNL     1       2.143  -3.712   0.000  0.00  0.00    +0.000 C 
ATOM      6  C   UNL     1       0.715  -3.712   0.000  0.00  0.00    +0.000 C 
ATOM      7  C   UNL     1       2.143  -2.888   0.000  0.00  0.00    +0.000 C 
ATOM      8  C   UNL     1       0.715  -2.888   0.000  0.00  0.00    +0.000 C 
ATOM      9  C   UNL     1       1.429  -4.125   0.000  0.00  0.00    +0.000 C 
ATOM     10  C   UNL     1       0.715  -0.412   0.000  0.00  0.00    +0.000 A 
ATOM     11  C   UNL     1       0.715  -1.238   0.000  0.00  0.00    +0.000 A 
ATOM     12  C   UNL     1       1.429   0.000   0.000  0.00  0.00    +0.000 A 
ATOM     13  C   UNL     1       1.429  -1.650   0.000  0.00  0.00    +0.000 A 
ATOM     14  N   UNL     1       2.143  -0.412   0.000  0.00  0.00    +0.000 NA
ATOM     15  N   UNL     1       2.143  -1.238   0.000  0.00  0.00    +0.000 NA
ATOM     16  N   UNL     1       1.429  -2.475   0.000  0.00  0.00    +0.000 N 
ENDROOT
BRANCH  12  20
ATOM     17  C   UNL     1      -0.023   1.055   0.000  0.00  0.00    +0.000 C 
ATOM     18  C   UNL     1       2.096   1.310   0.000  0.00  0.00    +0.000 A 
ATOM     19  C   UNL     1       1.841   2.095   0.000  0.00  0.00    +0.000 A 
ATOM     20  C   UNL     1       1.429   0.825   0.000  0.00  0.00    +0.000 A 
ATOM     21  N   UNL     1       1.016   2.095   0.000  0.00  0.00    +0.000 NA
ATOM     22  N   UNL     1       0.761   1.310   0.000  0.00  0.00    +0.000 N 
ENDBRANCH  12  20
BRANCH   9  25
ATOM     23  C   UNL     1       0.715  -5.362   0.000  0.00  0.00    +0.000 C 
ATOM     24  C   UNL     1       2.143  -5.362   0.000  0.00  0.00    +0.000 C 
ATOM     25  N   UNL     1       1.429  -4.950   0.000  0.00  0.00    +0.000 N 
ATOM     26  O   UNL     1       2.858  -4.950   0.000  0.00  0.00    +0.000 OA
BRANCH  24  31
ATOM     27  C   UNL     1       1.429  -7.425   0.000  0.00  0.00    +0.000 A 
ATOM     28  C   UNL     1       1.429  -6.600   0.000  0.00  0.00    +0.000 A 
ATOM     29  C   UNL     1       2.858  -7.425   0.000  0.00  0.00    +0.000 A 
ATOM     30  C   UNL     1       2.143  -7.838   0.000  0.00  0.00    +0.000 A 
ATOM     31  C   UNL     1       2.143  -6.188   0.000  0.00  0.00    +0.000 A 
ATOM     32  C   UNL     1       2.858  -6.600   0.000  0.00  0.00    +0.000 A 
ATOM     33  F   UNL     1       2.143  -8.662   0.000  0.00  0.00    +0.000 F 
BRANCH  32  34
ATOM     34  C   UNL     1       3.572  -6.188   0.000  0.00  0.00    +0.000 C 
ATOM     35  F   UNL     1       4.287  -5.775   0.000  0.00  0.00    +0.000 F 
ATOM     36  F   UNL     1       3.160  -5.473   0.000  0.00  0.00    +0.000 F 
ATOM     37  F   UNL     1       3.985  -6.902   0.000  0.00  0.00    +0.000 F 
ENDBRANCH  32  34
ENDBRANCH  24  31
ENDBRANCH   9  25
TORSDOF 4
