REMARK  Name = 
REMARK  8 active torsions:
REMARK  status: ('A' for Active; 'I' for Inactive)
REMARK    1  A    between atoms: C_5  and  C_10
REMARK    2  A    between atoms: C_5  and  C_11
REMARK    3  A    between atoms: C_10  and  O_23
REMARK    4  A    between atoms: C_11  and  O_24
REMARK    5  A    between atoms: C_12  and  C_16
REMARK    6  A    between atoms: C_12  and  S_25
REMARK    7  A    between atoms: C_17  and  O_24
REMARK    8  A    between atoms: C_18  and  S_25
REMARK                            x       y       z     vdW  Elec       q    Type
REMARK                         _______ _______ _______ _____ _____    ______ ____
ROOT
ATOM      1  C   UNL     1      12.181   6.528   0.000  0.00  0.00    +0.000 C 
ATOM      2  C   UNL     1      11.466   4.466   0.000  0.00  0.00    +0.000 A 
ATOM      3  C   UNL     1      12.181   4.053   0.000  0.00  0.00    +0.000 A 
ATOM      4  C   UNL     1      12.181   5.703   0.000  0.00  0.00    +0.000 A 
ATOM      5  C   UNL     1      12.895   5.291   0.000  0.00  0.00    +0.000 A 
ATOM      6  C   UNL     1      11.466   5.291   0.000  0.00  0.00    +0.000 A 
ATOM      7  N   UNL     1      12.895   4.466   0.000  0.00  0.00    +0.000 NA
ENDROOT
BRANCH   5   8
ATOM      8  C   UNL     1      13.610   5.703   0.000  0.00  0.00    +0.000 C 
BRANCH   8  10
ATOM      9  O   UNL     1      14.324   4.466   0.000  0.00  0.00    +0.000 OA
ATOM     10  S   UNL     1      14.324   5.291   0.000  0.00  0.00    +0.000 S 
BRANCH  10  17
ATOM     11  C   UNL     1      17.582   6.695   0.000  0.00  0.00    +0.000 A 
ATOM     12  C   UNL     1      17.169   7.410   0.000  0.00  0.00    +0.000 A 
ATOM     13  C   UNL     1      17.169   5.981   0.000  0.00  0.00    +0.000 A 
ATOM     14  C   UNL     1      16.344   7.410   0.000  0.00  0.00    +0.000 A 
ATOM     15  C   UNL     1      16.344   5.981   0.000  0.00  0.00    +0.000 A 
ATOM     16  C   UNL     1      15.932   6.695   0.000  0.00  0.00    +0.000 A 
ATOM     17  C   UNL     1      15.039   5.703   0.000  0.00  0.00    +0.000 A 
ATOM     18  N   UNL     1      15.792   5.367   0.000  0.00  0.00    +0.000 NA
ATOM     19  N   UNL     1      15.125   6.524   0.000  0.00  0.00    +0.000 NA
ENDBRANCH  10  17
ENDBRANCH   8  10
ENDBRANCH   5   8
BRANCH   6  20
ATOM     20  O   UNL     1      10.752   5.703   0.000  0.00  0.00    +0.000 OA
BRANCH  20  21
ATOM     21  C   UNL     1      10.037   5.291   0.000  0.00  0.00    +0.000 C 
BRANCH  21  22
ATOM     22  C   UNL     1       9.323   5.703   0.000  0.00  0.00    +0.000 C 
BRANCH  22  23
ATOM     23  C   UNL     1       8.608   5.291   0.000  0.00  0.00    +0.000 C 
BRANCH  23  25
ATOM     24  C   UNL     1       7.179   5.291   0.000  0.00  0.00    +0.000 C 
ATOM     25  O   UNL     1       7.894   5.703   0.000  0.00  0.00    +0.000 OA
ENDBRANCH  23  25
ENDBRANCH  22  23
ENDBRANCH  21  22
ENDBRANCH  20  21
ENDBRANCH   6  20
TORSDOF 8
