REMARK  Name = 
REMARK  5 active torsions:
REMARK  status: ('A' for Active; 'I' for Inactive)
REMARK    1  A    between atoms: N_3  and  C_5
REMARK    2  A    between atoms: C_5  and  C_6
REMARK    3  A    between atoms: C_5  and  C_7
REMARK    4  A    between atoms: C_8  and  C_9
REMARK    5  A    between atoms: C_14  and  C_18
REMARK                            x       y       z     vdW  Elec       q    Type
REMARK                         _______ _______ _______ _____ _____    ______ ____
ROOT
ATOM      1  O   UNL     1       3.079   0.412   0.000  0.00  0.00    +0.000 OA
ATOM      2  N   UNL     1       4.508   2.062   0.000  0.00  0.00    +0.000 NA
ATOM      3  C   UNL     1       4.508   0.412   0.000  0.00  0.00    +0.000 A 
ATOM      4  C   UNL     1       5.222   0.825   0.000  0.00  0.00    +0.000 A 
ATOM      5  C   UNL     1       3.793   0.825   0.000  0.00  0.00    +0.000 A 
ATOM      6  C   UNL     1       5.222   1.650   0.000  0.00  0.00    +0.000 A 
ATOM      7  C   UNL     1       3.793   1.650   0.000  0.00  0.00    +0.000 A 
ATOM      8  C   UNL     1       5.960   0.384   0.000  0.00  0.00    +0.000 A 
ATOM      9  C   UNL     1       5.960   2.091   0.000  0.00  0.00    +0.000 A 
ATOM     10  C   UNL     1       6.707   0.808   0.000  0.00  0.00    +0.000 A 
ATOM     11  C   UNL     1       6.707   1.667   0.000  0.00  0.00    +0.000 A 
ENDROOT
BRANCH   7  12
ATOM     12  C   UNL     1       3.079   2.062   0.000  0.00  0.00    +0.000 A 
ATOM     13  C   UNL     1       3.079   2.888   0.000  0.00  0.00    +0.000 A 
ATOM     14  C   UNL     1       2.364   1.650   0.000  0.00  0.00    +0.000 A 
ATOM     15  C   UNL     1       2.364   3.300   0.000  0.00  0.00    +0.000 A 
ATOM     16  C   UNL     1       1.650   2.062   0.000  0.00  0.00    +0.000 A 
ATOM     17  C   UNL     1       1.650   2.888   0.000  0.00  0.00    +0.000 A 
ENDBRANCH   7  12
BRANCH   3  20
ATOM     18  O   UNL     1       5.222  -0.825   0.000  0.00  0.00    +0.000 OA
ATOM     19  N   UNL     1       3.793  -0.825   0.000  0.00  0.00    +0.000 NA
ATOM     20  C   UNL     1       4.508  -0.412   0.000  0.00  0.00    +0.000 C 
BRANCH  19  21
ATOM     21  C   UNL     1       3.793  -1.650   0.000  0.00  0.00    +0.000 C 
BRANCH  21  22
ATOM     22  C   UNL     1       3.079  -2.062   0.000  0.00  0.00    +0.000 A 
ATOM     23  C   UNL     1       2.364  -1.650   0.000  0.00  0.00    +0.000 A 
ATOM     24  C   UNL     1       3.079  -2.888   0.000  0.00  0.00    +0.000 A 
ATOM     25  C   UNL     1       1.650  -2.062   0.000  0.00  0.00    +0.000 A 
ATOM     26  C   UNL     1       2.364  -3.300   0.000  0.00  0.00    +0.000 A 
ATOM     27  C   UNL     1       1.650  -2.888   0.000  0.00  0.00    +0.000 A 
ENDBRANCH  21  22
BRANCH  21  28
ATOM     28  C   UNL     1       4.508  -2.062   0.000  0.00  0.00    +0.000 C 
ATOM     29  C   UNL     1       4.508  -2.888   0.000  0.00  0.00    +0.000 C 
ENDBRANCH  21  28
ENDBRANCH  19  21
ENDBRANCH   3  20
TORSDOF 5
