REMARK  Name = 
REMARK  7 active torsions:
REMARK  status: ('A' for Active; 'I' for Inactive)
REMARK    1  A    between atoms: C_3  and  S_48
REMARK    2  A    between atoms: C_5  and  N_6
REMARK    3  A    between atoms: N_6  and  C_7
REMARK    4  A    between atoms: C_10  and  N_11
REMARK    5  A    between atoms: N_18  and  C_19
REMARK    6  A    between atoms: C_24  and  S_25
REMARK    7  A    between atoms: C_30  and  S_32
REMARK                            x       y       z     vdW  Elec       q    Type
REMARK                         _______ _______ _______ _____ _____    ______ ____
ROOT
ATOM      1  C   UNL     1       4.287   2.475   0.000  0.00  0.00    +0.000 A 
ATOM      2  C   UNL     1       4.287   3.300   0.000  0.00  0.00    +0.000 A 
ATOM      3  C   UNL     1       5.001   3.712   0.000  0.00  0.00    +0.000 A 
ATOM      4  C   UNL     1       5.716   3.300   0.000  0.00  0.00    +0.000 A 
ATOM      5  C   UNL     1       5.716   2.475   0.000  0.00  0.00    +0.000 A 
ATOM      6  C   UNL     1       5.001   2.062   0.000  0.00  0.00    +0.000 A 
ENDROOT
BRANCH   4   7
ATOM      7  N   UNL     1       6.430   3.712   0.000  0.00  0.00    +0.000 NA
ATOM      8  C   UNL     1       7.145   3.300   0.000  0.00  0.00    +0.000 A 
ATOM      9  N   UNL     1       7.859   3.712   0.000  0.00  0.00    +0.000 NA
ATOM     10  C   UNL     1       8.574   3.300   0.000  0.00  0.00    +0.000 A 
ATOM     11 CL   UNL     1       9.288   3.712   0.000  0.00  0.00    +0.000 Cl
ATOM     12  N   UNL     1       8.574   2.475   0.000  0.00  0.00    +0.000 NA
ATOM     13  C   UNL     1       7.859   2.062   0.000  0.00  0.00    +0.000 A 
ATOM     14  N   UNL     1       7.859   1.238   0.000  0.00  0.00    +0.000 NA
ATOM     15  N   UNL     1       7.145   2.475   0.000  0.00  0.00    +0.000 NA
BRANCH  14  16
ATOM     16  C   UNL     1       8.574   0.825   0.000  0.00  0.00    +0.000 A 
ATOM     17  C   UNL     1       9.288   1.238   0.000  0.00  0.00    +0.000 A 
ATOM     18  C   UNL     1      10.003   0.825   0.000  0.00  0.00    +0.000 A 
ATOM     19  C   UNL     1      10.003   0.000   0.000  0.00  0.00    +0.000 A 
ATOM     20  C   UNL     1       9.288  -0.412   0.000  0.00  0.00    +0.000 A 
ATOM     21  C   UNL     1       8.574   0.000   0.000  0.00  0.00    +0.000 A 
BRANCH  21  22
ATOM     22  S   UNL     1       7.859  -0.412   0.000  0.00  0.00    +0.000 S 
ATOM     23  O   UNL     1       7.145  -0.825   0.000  0.00  0.00    +0.000 OA
ATOM     24  O   UNL     1       7.447   0.302   0.000  0.00  0.00    +0.000 OA
ATOM     25  O   UNL     1       8.272  -1.127   0.000  0.00  0.00    +0.000 OA
ENDBRANCH  21  22
ENDBRANCH  14  16
ENDBRANCH   4   7
BRANCH   5  26
ATOM     26  S   UNL     1       6.430   2.062   0.000  0.00  0.00    +0.000 S 
ATOM     27  O   UNL     1       7.145   1.650   0.000  0.00  0.00    +0.000 OA
ATOM     28  O   UNL     1       6.018   1.348   0.000  0.00  0.00    +0.000 OA
ATOM     29  O   UNL     1       6.843   2.777   0.000  0.00  0.00    +0.000 OA
ENDBRANCH   5  26
BRANCH   1  30
ATOM     30  N   UNL     1       3.572   2.062   0.000  0.00  0.00    +0.000 NA
BRANCH  30  35
ATOM     31  N   UNL     1       3.572  -1.238   0.000  0.00  0.00    +0.000 NA
ATOM     32  C   UNL     1       3.572  -0.412   0.000  0.00  0.00    +0.000 A 
ATOM     33  C   UNL     1       4.287   0.000   0.000  0.00  0.00    +0.000 A 
ATOM     34  C   UNL     1       4.287   0.825   0.000  0.00  0.00    +0.000 A 
ATOM     35  C   UNL     1       3.572   1.238   0.000  0.00  0.00    +0.000 A 
ATOM     36  C   UNL     1       2.858   0.825   0.000  0.00  0.00    +0.000 A 
ATOM     37  C   UNL     1       2.858   0.000   0.000  0.00  0.00    +0.000 A 
ATOM     38  C   UNL     1       2.143  -0.412   0.000  0.00  0.00    +0.000 C 
ATOM     39  O   UNL     1       2.143  -1.238   0.000  0.00  0.00    +0.000 OA
ATOM     40  C   UNL     1       1.429   0.000   0.000  0.00  0.00    +0.000 A 
ATOM     41  C   UNL     1       0.715  -0.412   0.000  0.00  0.00    +0.000 A 
ATOM     42  C   UNL     1       0.000   0.000   0.000  0.00  0.00    +0.000 A 
ATOM     43  C   UNL     1       0.000   0.825   0.000  0.00  0.00    +0.000 A 
ATOM     44  C   UNL     1       0.715   1.238   0.000  0.00  0.00    +0.000 A 
ATOM     45  C   UNL     1       1.429   0.825   0.000  0.00  0.00    +0.000 A 
ATOM     46  C   UNL     1       2.143   1.238   0.000  0.00  0.00    +0.000 C 
ATOM     47  O   UNL     1       2.143   2.062   0.000  0.00  0.00    +0.000 OA
BRANCH  33  48
ATOM     48  S   UNL     1       5.001  -0.412   0.000  0.00  0.00    +0.000 S 
ATOM     49  O   UNL     1       5.716  -0.825   0.000  0.00  0.00    +0.000 OA
ATOM     50  O   UNL     1       5.414   0.302   0.000  0.00  0.00    +0.000 OA
ATOM     51  O   UNL     1       4.589  -1.127   0.000  0.00  0.00    +0.000 OA
ENDBRANCH  33  48
ENDBRANCH  30  35
ENDBRANCH   1  30
TORSDOF 7
