REMARK  Name = 
REMARK  3 active torsions:
REMARK  status: ('A' for Active; 'I' for Inactive)
REMARK    1  A    between atoms: SE_1  and  C_6
REMARK    2  A    between atoms: CA_5  and  C_6
REMARK    3  A    between atoms: CA_5  and  C_8
REMARK                            x       y       z     vdW  Elec       q    Type
REMARK                         _______ _______ _______ _____ _____    ______ ____
ROOT
ATOM      1  N   UNL     1      27.408 -12.069   0.000  0.00  0.00    +0.000 NA
ATOM      2  CA  UNL     1      28.123 -12.482   0.000  0.00  0.00    +0.000 C 
ENDROOT
BRANCH   2   5
ATOM      3  O   UNL     1      29.552 -12.482   0.000  0.00  0.00    +0.000 OA
ATOM      4  OXT UNL     1      28.837 -11.244   0.000  0.00  0.00    +0.000 OA
ATOM      5  C   UNL     1      28.837 -12.069   0.000  0.00  0.00    +0.000 C 
ENDBRANCH   2   5
BRANCH   2   6
ATOM      6  C   UNL     1      28.123 -13.307   0.000  0.00  0.00    +0.000 C 
BRANCH   6   7
ATOM      7 SE   UNL     1      27.408 -13.719   0.000  0.00  0.00    +0.000 Se
ATOM      8  C   UNL     1      27.408 -14.544   0.000  0.00  0.00    +0.000 C 
ENDBRANCH   6   7
ENDBRANCH   2   6
TORSDOF 3
