REMARK  Name = 
REMARK  3 active torsions:
REMARK  status: ('A' for Active; 'I' for Inactive)
REMARK    1  A    between atoms: C_4  and  C_9
REMARK    2  A    between atoms: C_5  and  C_6
REMARK    3  A    between atoms: C_8  and  C_9
REMARK                            x       y       z     vdW  Elec       q    Type
REMARK                         _______ _______ _______ _____ _____    ______ ____
ROOT
ATOM      1  N   UNL     1       3.079   1.423   0.000  0.00  0.00    +0.000 N 
ATOM      2  N   UNL     1       3.860   1.675   0.000  0.00  0.00    +0.000 NA
ATOM      3  C   UNL     1       3.860   0.347   0.000  0.00  0.00    +0.000 A 
ATOM      4  C   UNL     1       4.341   1.011   0.000  0.00  0.00    +0.000 A 
ATOM      5  C   UNL     1       3.079   0.598   0.000  0.00  0.00    +0.000 A 
ATOM      6  C   UNL     1       2.365   0.186   0.000  0.00  0.00    +0.000 A 
ATOM      7  C   UNL     1       2.365   1.836   0.000  0.00  0.00    +0.000 A 
ATOM      8  C   UNL     1       1.650   0.598   0.000  0.00  0.00    +0.000 A 
ATOM      9  C   UNL     1       1.650   1.423   0.000  0.00  0.00    +0.000 A 
ENDROOT
BRANCH   4  10
ATOM     10  C   UNL     1       5.166   1.011   0.000  0.00  0.00    +0.000 C 
ATOM     11  C   UNL     1       5.579   1.725   0.000  0.00  0.00    +0.000 C 
ATOM     12  C   UNL     1       5.579   0.296   0.000  0.00  0.00    +0.000 C 
ENDBRANCH   4  10
BRANCH   3  14
ATOM     13  O   UNL     1       4.923  -0.608   0.000  0.00  0.00    +0.000 OA
ATOM     14  C   UNL     1       4.116  -0.437   0.000  0.00  0.00    +0.000 C 
BRANCH  14  15
ATOM     15  C   UNL     1       3.565  -1.052   0.000  0.00  0.00    +0.000 C 
ATOM     16  C   UNL     1       3.821  -1.836   0.000  0.00  0.00    +0.000 C 
ATOM     17  C   UNL     1       2.758  -0.881   0.000  0.00  0.00    +0.000 C 
ENDBRANCH  14  15
ENDBRANCH   3  14
TORSDOF 3
