REMARK  Name = 
REMARK  7 active torsions:
REMARK  status: ('A' for Active; 'I' for Inactive)
REMARK    1  A    between atoms: C_2  and  C_5
REMARK    2  A    between atoms: C_3  and  C_6
REMARK    3  A    between atoms: C_4  and  N_9
REMARK    4  A    between atoms: C_5  and  C_7
REMARK    5  A    between atoms: C_5  and  N_9
REMARK    6  A    between atoms: C_6  and  C_8
REMARK    7  A    between atoms: C_7  and  C_8
REMARK                            x       y       z     vdW  Elec       q    Type
REMARK                         _______ _______ _______ _____ _____    ______ ____
ROOT
ATOM      1  C   UNK A   1       5.443   1.016   0.000  0.00  0.00    +0.000 C 
ATOM      2  O   UNK A   1       5.443   0.191   0.000  0.00  0.00    +0.000 OA
ENDROOT
BRANCH   1   3
ATOM      3  C   UNK A   1       4.729   1.429   0.000  0.00  0.00    +0.000 C 
ATOM      4  O   UNK A   1       4.729   2.254   0.000  0.00  0.00    +0.000 OA
BRANCH   3   5
ATOM      5  C   UNK A   1       4.014   1.016   0.000  0.00  0.00    +0.000 C 
ATOM      6  O   UNK A   1       4.014   0.191   0.000  0.00  0.00    +0.000 OA
BRANCH   5   7
ATOM      7  C   UNK A   1       3.300   1.429   0.000  0.00  0.00    +0.000 C 
ATOM      8  O   UNK A   1       2.586   1.016   0.000  0.00  0.00    +0.000 OA
ENDBRANCH   5   7
ENDBRANCH   3   5
ENDBRANCH   1   3
BRANCH   1   9
ATOM      9  C   UNK A   1       6.158   1.429   0.000  0.00  0.00    +0.000 C 
BRANCH   9  10
ATOM     10  C   UNK A   1       6.158   2.254   0.000  0.00  0.00    +0.000 C 
ATOM     11  O   UNK A   1       6.872   2.666   0.000  0.00  0.00    +0.000 OA
ENDBRANCH   9  10
BRANCH   9  12
ATOM     12  N   UNK A   1       6.872   1.016   0.000  0.00  0.00    +0.000 NA
BRANCH  12  14
ATOM     13  C   UNK A   0       8.301   1.016   0.000  0.00  0.00    +0.000 C 
ATOM     14  C   UNK A   0       7.587   1.429   0.000  0.00  0.00    +0.000 C 
ATOM     15  O   UNK A   0       7.587   2.254   0.000  0.00  0.00    +0.000 OA
ENDBRANCH  12  14
ENDBRANCH   9  12
ENDBRANCH   1   9
TORSDOF 7
