REMARK  Name = 
REMARK  7 active torsions:
REMARK  status: ('A' for Active; 'I' for Inactive)
REMARK    1  A    between atoms: C_2  and  C_3
REMARK    2  A    between atoms: C_5  and  S_6
REMARK    3  A    between atoms: S_6  and  C_7
REMARK    4  A    between atoms: C_7  and  C_8
REMARK    5  A    between atoms: C_8  and  C_9
REMARK    6  A    between atoms: N_15  and  O_16
REMARK    7  A    between atoms: O_16  and  S_17
REMARK                            x       y       z     vdW  Elec       q    Type
REMARK                         _______ _______ _______ _____ _____    ______ ____
ROOT
ATOM      1  C   UNL     1       0.715  -3.712   0.000  0.00  0.00    +0.000 C 
ATOM      2  N   UNL     1       0.715  -2.888   0.000  0.00  0.00    +0.000 NA
ENDROOT
BRANCH   1   3
ATOM      3  S   UNL     1       1.429  -4.125   0.000  0.00  0.00    +0.000 S 
BRANCH   3   6
ATOM      4  C   UNL     1       2.858  -2.475   0.000  0.00  0.00    +0.000 C 
ATOM      5  C   UNL     1       2.143  -2.888   0.000  0.00  0.00    +0.000 C 
ATOM      6  C   UNL     1       2.143  -3.712   0.000  0.00  0.00    +0.000 C 
ATOM      7  C   UNL     1       2.858  -4.125   0.000  0.00  0.00    +0.000 C 
ATOM      8  O   UNL     1       2.858  -4.950   0.000  0.00  0.00    +0.000 OA
ATOM      9  C   UNL     1       3.572  -3.712   0.000  0.00  0.00    +0.000 C 
ATOM     10  O   UNL     1       4.287  -4.125   0.000  0.00  0.00    +0.000 OA
ATOM     11  C   UNL     1       3.572  -2.888   0.000  0.00  0.00    +0.000 C 
ATOM     12  O   UNL     1       4.287  -2.475   0.000  0.00  0.00    +0.000 OA
BRANCH   4  14
ATOM     13  O   UNL     1       3.572  -1.238   0.000  0.00  0.00    +0.000 OA
ATOM     14  C   UNL     1       2.858  -1.650   0.000  0.00  0.00    +0.000 C 
ENDBRANCH   4  14
ENDBRANCH   3   6
ENDBRANCH   1   3
BRANCH   2  15
ATOM     15  O   UNL     1       1.429  -2.475   0.000  0.00  0.00    +0.000 OA
BRANCH  15  16
ATOM     16  S   UNL     1       1.429  -1.650   0.000  0.00  0.00    +0.000 S 
ATOM     17  O   UNL     1       0.604  -1.650   0.000  0.00  0.00    +0.000 OA
ATOM     18  O   UNL     1       1.429  -0.825   0.000  0.00  0.00    +0.000 OA
ATOM     19  O   UNL     1       2.254  -1.650   0.000  0.00  0.00    +0.000 OA
ENDBRANCH  15  16
ENDBRANCH   2  15
BRANCH   1  20
ATOM     20  C   UNL     1       0.000  -4.125   0.000  0.00  0.00    +0.000 C 
BRANCH  20  21
ATOM     21  C   UNL     1      -0.715  -3.712   0.000  0.00  0.00    +0.000 A 
ATOM     22  C   UNL     1      -1.429  -4.125   0.000  0.00  0.00    +0.000 A 
ATOM     23  C   UNL     1      -2.143  -3.712   0.000  0.00  0.00    +0.000 A 
ATOM     24  C   UNL     1      -2.143  -2.888   0.000  0.00  0.00    +0.000 A 
ATOM     25  C   UNL     1      -1.429  -2.475   0.000  0.00  0.00    +0.000 A 
ATOM     26  C   UNL     1      -0.715  -2.888   0.000  0.00  0.00    +0.000 A 
ENDBRANCH  20  21
ENDBRANCH   1  20
TORSDOF 7
