REMARK  Name = 
REMARK  6 active torsions:
REMARK  status: ('A' for Active; 'I' for Inactive)
REMARK    1  A    between atoms: N_3  and  C_24
REMARK    2  A    between atoms: C_7  and  C_12
REMARK    3  A    between atoms: C_14  and  C_15
REMARK    4  A    between atoms: C_17  and  C_18
REMARK    5  A    between atoms: C_19  and  C_20
REMARK    6  A    between atoms: C_21  and  C_23
REMARK                            x       y       z     vdW  Elec       q    Type
REMARK                         _______ _______ _______ _____ _____    ______ ____
ROOT
ATOM      1  C   UNL     1       4.619  -0.747   0.000  0.00  0.00    +0.000 C 
ATOM      2  C   UNL     1       5.333  -0.334   0.000  0.00  0.00    +0.000 C 
ENDROOT
BRANCH   2   3
ATOM      3  C   UNL     1       5.333   0.491   0.000  0.00  0.00    +0.000 C 
ATOM      4  C   UNL     1       6.048   0.903   0.000  0.00  0.00    +0.000 C 
ATOM      5  C   UNL     1       4.619   0.903   0.000  0.00  0.00    +0.000 C 
BRANCH   4   8
ATOM      6  O   UNL     1       5.333   2.141   0.000  0.00  0.00    +0.000 OA
ATOM      7  N   UNL     1       6.762   2.141   0.000  0.00  0.00    +0.000 NA
ATOM      8  C   UNL     1       6.048   1.728   0.000  0.00  0.00    +0.000 C 
BRANCH   7  10
ATOM      9  O   UNL     1       6.762   5.441   0.000  0.00  0.00    +0.000 OA
ATOM     10  C   UNL     1       6.762   2.966   0.000  0.00  0.00    +0.000 A 
ATOM     11  C   UNL     1       6.048   3.378   0.000  0.00  0.00    +0.000 A 
ATOM     12  C   UNL     1       7.476   3.378   0.000  0.00  0.00    +0.000 A 
ATOM     13  C   UNL     1       6.048   4.204   0.000  0.00  0.00    +0.000 A 
ATOM     14  C   UNL     1       7.476   4.204   0.000  0.00  0.00    +0.000 A 
ATOM     15  C   UNL     1       6.762   4.616   0.000  0.00  0.00    +0.000 A 
ENDBRANCH   7  10
ENDBRANCH   4   8
ENDBRANCH   2   3
BRANCH   1  18
ATOM     16  C   UNL     1       3.904  -1.984   0.000  0.00  0.00    +0.000 C 
ATOM     17  C   UNL     1       3.189  -1.572   0.000  0.00  0.00    +0.000 C 
ATOM     18  C   UNL     1       4.619  -1.572   0.000  0.00  0.00    +0.000 C 
BRANCH  16  20
ATOM     19  C   UNL     1       3.189  -3.222   0.000  0.00  0.00    +0.000 C 
ATOM     20  C   UNL     1       3.904  -2.809   0.000  0.00  0.00    +0.000 C 
BRANCH  19  24
ATOM     21  C   UNL     1       2.475  -4.459   0.000  0.00  0.00    +0.000 C 
ATOM     22  C   UNL     1       2.475  -5.284   0.000  0.00  0.00    +0.000 C 
ATOM     23  C   UNL     1       3.189  -5.697   0.000  0.00  0.00    +0.000 C 
ATOM     24  C   UNL     1       3.189  -4.047   0.000  0.00  0.00    +0.000 C 
ATOM     25  C   UNL     1       3.904  -5.284   0.000  0.00  0.00    +0.000 C 
ATOM     26  C   UNL     1       3.904  -4.459   0.000  0.00  0.00    +0.000 C 
ATOM     27  C   UNL     1       1.650  -4.459   0.000  0.00  0.00    +0.000 C 
ATOM     28  C   UNL     1       2.062  -3.745   0.000  0.00  0.00    +0.000 C 
ATOM     29  C   UNL     1       4.619  -4.047   0.000  0.00  0.00    +0.000 C 
ENDBRANCH  19  24
ENDBRANCH  16  20
ENDBRANCH   1  18
TORSDOF 6
