REMARK  Name = 
REMARK  2 active torsions:
REMARK  status: ('A' for Active; 'I' for Inactive)
REMARK    1  A    between atoms: C_17  and  N_29
REMARK    2  A    between atoms: C_26  and  O_34
REMARK                            x       y       z     vdW  Elec       q    Type
REMARK                         _______ _______ _______ _____ _____    ______ ____
ROOT
ATOM      1  C   UNL     1       3.236   0.487   0.000  0.00  0.00    +0.000 C 
ATOM      2  C   UNL     1       7.968   2.697   0.000  0.00  0.00    +0.000 A 
ATOM      3  C   UNL     1       1.728   2.680   0.000  0.00  0.00    +0.000 A 
ATOM      4  C   UNL     1       8.043   1.875   0.000  0.00  0.00    +0.000 A 
ATOM      5  C   UNL     1       1.674   1.857   0.000  0.00  0.00    +0.000 A 
ATOM      6  C   UNL     1       7.220   3.043   0.000  0.00  0.00    +0.000 A 
ATOM      7  C   UNL     1       2.468   3.045   0.000  0.00  0.00    +0.000 A 
ATOM      8  C   UNL     1       7.369   1.400   0.000  0.00  0.00    +0.000 A 
ATOM      9  C   UNL     1       2.360   1.398   0.000  0.00  0.00    +0.000 A 
ATOM     10  C   UNL     1       5.457  -0.450   0.000  0.00  0.00    +0.000 C 
ATOM     11  C   UNL     1       4.168   4.303   0.000  0.00  0.00    +0.000 C 
ATOM     12  C   UNL     1       6.545   2.567   0.000  0.00  0.00    +0.000 A 
ATOM     13  C   UNL     1       3.154   2.586   0.000  0.00  0.00    +0.000 A 
ATOM     14  C   UNL     1       4.428   3.521   0.000  0.00  0.00    +0.000 A 
ATOM     15  C   UNL     1       4.702  -0.865   0.000  0.00  0.00    +0.000 C 
ATOM     16  C   UNL     1       6.620   1.746   0.000  0.00  0.00    +0.000 A 
ATOM     17  C   UNL     1       3.100   1.763   0.000  0.00  0.00    +0.000 A 
ATOM     18  C   UNL     1       5.554   0.471   0.000  0.00  0.00    +0.000 C 
ATOM     19  C   UNL     1       3.980   2.811   0.000  0.00  0.00    +0.000 A 
ATOM     20  C   UNL     1       5.718   2.790   0.000  0.00  0.00    +0.000 A 
ATOM     21  C   UNL     1       5.253   3.526   0.000  0.00  0.00    +0.000 A 
ATOM     22  C   UNL     1       5.278   2.077   0.000  0.00  0.00    +0.000 A 
ATOM     23  C   UNL     1       4.433   2.114   0.000  0.00  0.00    +0.000 A 
ATOM     24  C   UNL     1       4.020  -0.355   0.000  0.00  0.00    +0.000 C 
ATOM     25  C   UNL     1       5.503   4.312   0.000  0.00  0.00    +0.000 C 
ATOM     26  C   UNL     1       4.059   0.541   0.000  0.00  0.00    +0.000 C 
ATOM     27  N   UNL     1       4.832   4.793   0.000  0.00  0.00    +0.000 NA
ATOM     28  N   UNL     1       5.802   1.375   0.000  0.00  0.00    +0.000 N 
ATOM     29  N   UNL     1       3.901   1.438   0.000  0.00  0.00    +0.000 N 
ATOM     30  O   UNL     1       6.286   4.572   0.000  0.00  0.00    +0.000 OA
ATOM     31  O   UNL     1       4.802   0.557   0.000  0.00  0.00    +0.000 OA
ENDROOT
BRANCH  15  33
ATOM     32  C   UNL     1       3.903  -2.050   0.000  0.00  0.00    +0.000 C 
ATOM     33  N   UNL     1       4.645  -1.688   0.000  0.00  0.00    +0.000 NA
ENDBRANCH  15  33
BRANCH  24  35
ATOM     34  C   UNL     1       2.596  -0.239   0.000  0.00  0.00    +0.000 C 
ATOM     35  O   UNL     1       3.275  -0.708   0.000  0.00  0.00    +0.000 OA
ENDBRANCH  24  35
TORSDOF 2
