REMARK  Name = 
REMARK  10 active torsions:
REMARK  status: ('A' for Active; 'I' for Inactive)
REMARK    1  A    between atoms: C_5  and  C_6
REMARK    2  A    between atoms: C_6  and  O_7
REMARK    3  A    between atoms: O_7  and  P_8
REMARK    4  A    between atoms: C_12  and  C_13
REMARK    5  A    between atoms: C_13  and  N_14
REMARK    6  A    between atoms: N_14  and  C_15
REMARK    7  A    between atoms: C_15  and  C_17
REMARK    8  A    between atoms: C_15  and  C_22
REMARK    9  A    between atoms: C_17  and  C_18
REMARK   10  A    between atoms: C_18  and  C_19
REMARK                            x       y       z     vdW  Elec       q    Type
REMARK                         _______ _______ _______ _____ _____    ______ ____
ROOT
ATOM      1  C   UNL     1      -0.460  -1.387   0.000  0.00  0.00    +0.000 C 
ATOM      2  C   UNL     1       0.112  -0.793   0.000  0.00  0.00    +0.000 A 
ATOM      3  N   UNL     1      -0.117   0.000   0.000  0.00  0.00    +0.000 NA
ATOM      4  C   UNL     1       0.455   0.595   0.000  0.00  0.00    +0.000 A 
ATOM      5  C   UNL     1       1.256   0.396   0.000  0.00  0.00    +0.000 A 
ATOM      6  C   UNL     1       1.485  -0.396   0.000  0.00  0.00    +0.000 A 
ATOM      7  C   UNL     1       0.913  -0.991   0.000  0.00  0.00    +0.000 A 
ATOM      8  O   UNL     1       1.142  -1.783   0.000  0.00  0.00    +0.000 OA
ENDROOT
BRANCH   6   9
ATOM      9  C   UNL     1       2.286  -0.595   0.000  0.00  0.00    +0.000 C 
BRANCH   9  10
ATOM     10  N   UNL     1       2.858   0.000   0.000  0.00  0.00    +0.000 NA
BRANCH  10  11
ATOM     11  C   UNL     1       3.659  -0.198   0.000  0.00  0.00    +0.000 C 
ATOM     12  C   UNL     1       3.461  -0.999   0.000  0.00  0.00    +0.000 C 
BRANCH  11  13
ATOM     13  C   UNL     1       3.857   0.603   0.000  0.00  0.00    +0.000 C 
ATOM     14  O   UNL     1       4.649   0.832   0.000  0.00  0.00    +0.000 OA
ATOM     15  O   UNL     1       3.262   1.175   0.000  0.00  0.00    +0.000 OA
ENDBRANCH  11  13
BRANCH  11  16
ATOM     16  C   UNL     1       4.460  -0.396   0.000  0.00  0.00    +0.000 C 
BRANCH  16  17
ATOM     17  C   UNL     1       5.032   0.198   0.000  0.00  0.00    +0.000 C 
BRANCH  17  18
ATOM     18  C   UNL     1       5.832   0.000   0.000  0.00  0.00    +0.000 C 
ATOM     19  O   UNL     1       6.404   0.595   0.000  0.00  0.00    +0.000 OA
ATOM     20  O   UNL     1       6.061  -0.793   0.000  0.00  0.00    +0.000 OA
ENDBRANCH  17  18
ENDBRANCH  16  17
ENDBRANCH  11  16
ENDBRANCH  10  11
ENDBRANCH   9  10
ENDBRANCH   6   9
BRANCH   5  21
ATOM     21  C   UNL     1       1.828   0.991   0.000  0.00  0.00    +0.000 C 
BRANCH  21  22
ATOM     22  O   UNL     1       1.599   1.783   0.000  0.00  0.00    +0.000 OA
BRANCH  22  23
ATOM     23  P   UNL     1       2.171   2.378   0.000  0.00  0.00    +0.000 P 
ATOM     24  O   UNL     1       2.744   2.972   0.000  0.00  0.00    +0.000 OA
ATOM     25  O   UNL     1       1.577   2.950   0.000  0.00  0.00    +0.000 OA
ATOM     26  O   UNL     1       2.766   1.806   0.000  0.00  0.00    +0.000 OA
ENDBRANCH  22  23
ENDBRANCH  21  22
ENDBRANCH   5  21
TORSDOF 10
