REMARK  Name = 
REMARK  8 active torsions:
REMARK  status: ('A' for Active; 'I' for Inactive)
REMARK    1  A    between atoms: C_3  and  C_23
REMARK    2  A    between atoms: C_4  and  C_14
REMARK    3  A    between atoms: C_5  and  C_10
REMARK    4  A    between atoms: C_6  and  C_8
REMARK    5  A    between atoms: C_10  and  O_12
REMARK    6  A    between atoms: C_16  and  N_20
REMARK    7  A    between atoms: C_23  and  O_25
REMARK    8  A    between atoms: O_25  and  C_26
REMARK                            x       y       z     vdW  Elec       q    Type
REMARK                         _______ _______ _______ _____ _____    ______ ____
ROOT
ATOM      1  C   UNL     1       0.715  -0.412   0.000  0.00  0.00    +0.000 C 
ATOM      2  C   UNL     1       0.715  -1.238   0.000  0.00  0.00    +0.000 C 
ATOM      3  C   UNL     1       1.429  -1.650   0.000  0.00  0.00    +0.000 C 
ATOM      4  C   UNL     1       1.429  -2.475   0.000  0.00  0.00    +0.000 C 
ATOM      5  C   UNL     1       0.715  -2.888   0.000  0.00  0.00    +0.000 C 
ATOM      6  C   UNL     1       0.000  -2.475   0.000  0.00  0.00    +0.000 C 
ATOM      7  N   UNL     1       0.000  -1.650   0.000  0.00  0.00    +0.000 NA
ENDROOT
BRANCH   4   8
ATOM      8  C   UNL     1       2.143  -2.888   0.000  0.00  0.00    +0.000 A 
ATOM      9  C   UNL     1       2.858  -2.475   0.000  0.00  0.00    +0.000 A 
ATOM     10  C   UNL     1       3.572  -2.888   0.000  0.00  0.00    +0.000 A 
ATOM     11  C   UNL     1       3.572  -3.712   0.000  0.00  0.00    +0.000 A 
ATOM     12  C   UNL     1       2.858  -4.125   0.000  0.00  0.00    +0.000 A 
ATOM     13  C   UNL     1       2.143  -3.712   0.000  0.00  0.00    +0.000 A 
BRANCH  10  14
ATOM     14  N   UNL     1       4.287  -2.475   0.000  0.00  0.00    +0.000 N 
ATOM     15  O   UNL     1       5.001  -2.888   0.000  0.00  0.00    +0.000 OA
ATOM     16  O   UNL     1       4.287  -1.650   0.000  0.00  0.00    +0.000 OA
ENDBRANCH  10  14
ENDBRANCH   4   8
BRANCH   6  17
ATOM     17  C   UNL     1      -0.715  -2.888   0.000  0.00  0.00    +0.000 C 
ATOM     18  N   UNL     1      -1.429  -3.300   0.000  0.00  0.00    +0.000 NA
ENDBRANCH   6  17
BRANCH   3  19
ATOM     19  C   UNL     1       2.143  -1.238   0.000  0.00  0.00    +0.000 C 
ATOM     20  O   UNL     1       2.858  -1.650   0.000  0.00  0.00    +0.000 OA
BRANCH  19  21
ATOM     21  O   UNL     1       2.143  -0.412   0.000  0.00  0.00    +0.000 OA
BRANCH  21  22
ATOM     22  C   UNL     1       2.858   0.000   0.000  0.00  0.00    +0.000 C 
ATOM     23  C   UNL     1       2.858   0.825   0.000  0.00  0.00    +0.000 C 
ATOM     24  C   UNL     1       3.572  -0.412   0.000  0.00  0.00    +0.000 C 
ENDBRANCH  21  22
ENDBRANCH  19  21
ENDBRANCH   3  19
BRANCH   5  25
ATOM     25  C   UNL     1       0.715  -3.712   0.000  0.00  0.00    +0.000 C 
ATOM     26  O   UNL     1       0.000  -4.125   0.000  0.00  0.00    +0.000 OA
BRANCH  25  27
ATOM     27  O   UNL     1       1.429  -4.125   0.000  0.00  0.00    +0.000 OA
ATOM     28  C   UNL     1       1.429  -4.950   0.000  0.00  0.00    +0.000 C 
ENDBRANCH  25  27
ENDBRANCH   5  25
TORSDOF 8
