REMARK  Name = 
REMARK  8 active torsions:
REMARK  status: ('A' for Active; 'I' for Inactive)
REMARK    1  A    between atoms: N_2  and  C_5
REMARK    2  A    between atoms: C_15  and  C_17
REMARK    3  A    between atoms: C_17  and  O_19
REMARK    4  A    between atoms: O_19  and  P_20
REMARK    5  A    between atoms: P_20  and  O_21
REMARK    6  A    between atoms: O_21  and  P_24
REMARK    7  A    between atoms: P_24  and  O_25
REMARK    8  A    between atoms: O_25  and  P_28
REMARK                            x       y       z     vdW  Elec       q    Type
REMARK                         _______ _______ _______ _____ _____    ______ ____
ROOT
ATOM      1  C   UNL     1       1.677   0.253   0.000  0.00  0.00    +0.000 C 
ATOM      2  O   UNL     1       1.005   0.762   0.000  0.00  0.00    +0.000 OA
ATOM      3  C   UNL     1       1.421  -0.488   0.000  0.00  0.00    +0.000 C 
ATOM      4  C   UNL     1       0.346   0.288   0.000  0.00  0.00    +0.000 C 
ATOM      5  C   UNL     1       0.603  -0.488   0.000  0.00  0.00    +0.000 C 
ATOM      6  O   UNL     1       0.336  -1.268   0.000  0.00  0.00    +0.000 OA
ENDROOT
BRANCH   1   8
ATOM      7  C   UNL     1       3.070   0.062   0.000  0.00  0.00    +0.000 A 
ATOM      8  N   UNL     1       2.443   0.506   0.000  0.00  0.00    +0.000 N 
ATOM      9  C   UNL     1       3.801   0.606   0.000  0.00  0.00    +0.000 A 
ATOM     10  N   UNL     1       3.149  -0.780   0.000  0.00  0.00    +0.000 NA
ATOM     11  C   UNL     1       2.727   1.330   0.000  0.00  0.00    +0.000 A 
ATOM     12  N   UNL     1       3.583   1.327   0.000  0.00  0.00    +0.000 NA
ATOM     13  C   UNL     1       4.546   0.274   0.000  0.00  0.00    +0.000 A 
ATOM     14  C   UNL     1       3.936  -1.123   0.000  0.00  0.00    +0.000 A 
ATOM     15  N   UNL     1       4.639  -0.606   0.000  0.00  0.00    +0.000 NA
ATOM     16  O   UNL     1       5.204   0.766   0.000  0.00  0.00    +0.000 OA
ATOM     17  N   UNL     1       4.026  -1.944   0.000  0.00  0.00    +0.000 NA
ENDBRANCH   1   8
BRANCH   4  18
ATOM     18  C   UNL     1      -0.437   0.547   0.000  0.00  0.00    +0.000 C 
BRANCH  18  19
ATOM     19  O   UNL     1      -1.057  -0.007   0.000  0.00  0.00    +0.000 OA
BRANCH  19  20
ATOM     20  P   UNL     1      -1.885  -0.007   0.000  0.00  0.00    +0.000 P 
ATOM     21  O   UNL     1      -1.888  -0.835   0.000  0.00  0.00    +0.000 OA
ATOM     22  O   UNL     1      -1.888   0.821   0.000  0.00  0.00    +0.000 OA
BRANCH  20  23
ATOM     23  O   UNL     1      -2.713  -0.007   0.000  0.00  0.00    +0.000 OA
BRANCH  23  24
ATOM     24  P   UNL     1      -3.541  -0.003   0.000  0.00  0.00    +0.000 P 
ATOM     25  O   UNL     1      -3.548  -0.832   0.000  0.00  0.00    +0.000 OA
ATOM     26  O   UNL     1      -3.548   0.828   0.000  0.00  0.00    +0.000 OA
BRANCH  24  27
ATOM     27  O   UNL     1      -4.372  -0.003   0.000  0.00  0.00    +0.000 OA
BRANCH  27  28
ATOM     28  P   UNL     1      -5.201   0.003   0.000  0.00  0.00    +0.000 P 
ATOM     29  O   UNL     1      -5.204  -0.828   0.000  0.00  0.00    +0.000 OA
ATOM     30  O   UNL     1      -6.029   0.007   0.000  0.00  0.00    +0.000 OA
ATOM     31  O   UNL     1      -5.204   0.832   0.000  0.00  0.00    +0.000 OA
ENDBRANCH  27  28
ENDBRANCH  24  27
ENDBRANCH  23  24
ENDBRANCH  20  23
ENDBRANCH  19  20
ENDBRANCH  18  19
ENDBRANCH   4  18
TORSDOF 8
