REMARK  Name = 
REMARK  5 active torsions:
REMARK  status: ('A' for Active; 'I' for Inactive)
REMARK    1  A    between atoms: C_5  and  C_6
REMARK    2  A    between atoms: C_6  and  O_7
REMARK    3  A    between atoms: O_7  and  V_8
REMARK    4  A    between atoms: C_13  and  O_14
REMARK    5  A    between atoms: O_14  and  P_15
REMARK                            x       y       z     vdW  Elec       q    Type
REMARK                         _______ _______ _______ _____ _____    ______ ____
ROOT
ATOM      1  O   UNL     1       2.143   1.238   0.000  0.00  0.00    +0.000 OA
ATOM      2  C   UNL     1       1.429   0.825   0.000  0.00  0.00    +0.000 C 
ATOM      3  C   UNL     1       1.429   0.000   0.000  0.00  0.00    +0.000 C 
ATOM      4  O   UNL     1       2.143  -0.412   0.000  0.00  0.00    +0.000 OA
ATOM      5  C   UNL     1       0.715  -0.412   0.000  0.00  0.00    +0.000 C 
ATOM      6  O   UNL     1       0.000   0.000   0.000  0.00  0.00    +0.000 OA
ATOM      7  C   UNL     1       0.000   0.825   0.000  0.00  0.00    +0.000 C 
ATOM      8  C   UNL     1       0.715   1.238   0.000  0.00  0.00    +0.000 C 
ATOM      9  O   UNL     1       0.715   2.062   0.000  0.00  0.00    +0.000 OA
ENDROOT
BRANCH   5  10
ATOM     10  C   UNL     1       0.715  -1.238   0.000  0.00  0.00    +0.000 C 
BRANCH  10  11
ATOM     11  O   UNL     1       1.429  -1.650   0.000  0.00  0.00    +0.000 OA
BRANCH  11  12
ATOM     12  V   UNL     1       1.429  -2.475   0.000  0.00  0.00    +0.000 V 
ATOM     13  O   UNL     1       1.429  -3.300   0.000  0.00  0.00    +0.000 OA
ATOM     14  O   UNL     1       2.254  -2.475   0.000  0.00  0.00    +0.000 OA
ATOM     15  O   UNL     1       0.604  -2.475   0.000  0.00  0.00    +0.000 OA
ENDBRANCH  11  12
ENDBRANCH  10  11
ENDBRANCH   5  10
BRANCH   7  16
ATOM     16  O   UNL     1      -0.715   1.238   0.000  0.00  0.00    +0.000 OA
BRANCH  16  17
ATOM     17  P   UNL     1      -1.429   0.825   0.000  0.00  0.00    +0.000 P 
ATOM     18  O   UNL     1      -2.143   0.412   0.000  0.00  0.00    +0.000 OA
ATOM     19  O   UNL     1      -1.841   1.540   0.000  0.00  0.00    +0.000 OA
ATOM     20  O   UNL     1      -1.016   0.111   0.000  0.00  0.00    +0.000 OA
ENDBRANCH  16  17
ENDBRANCH   7  16
TORSDOF 5
