REMARK  Name = 
REMARK  3 active torsions:
REMARK  status: ('A' for Active; 'I' for Inactive)
REMARK    1  A    between atoms: C_2  and  C_4
REMARK    2  A    between atoms: C_6  and  C_7
REMARK    3  A    between atoms: C_10  and  C_13
REMARK                            x       y       z     vdW  Elec       q    Type
REMARK                         _______ _______ _______ _____ _____    ______ ____
ROOT
ATOM      1  C   UNL     1       2.143   1.238   0.000  0.00  0.00    +0.000 A 
ATOM      2  C   UNL     1       2.858   0.825   0.000  0.00  0.00    +0.000 A 
ATOM      3  C   UNL     1       3.572   1.238   0.000  0.00  0.00    +0.000 A 
ATOM      4  C   UNL     1       4.287   0.825   0.000  0.00  0.00    +0.000 A 
ATOM      5  F   UNL     1       5.001   1.238   0.000  0.00  0.00    +0.000 F 
ATOM      6  C   UNL     1       4.287   0.000   0.000  0.00  0.00    +0.000 A 
ATOM      7  O   UNL     1       5.001  -0.412   0.000  0.00  0.00    +0.000 OA
ATOM      8  C   UNL     1       3.572  -0.412   0.000  0.00  0.00    +0.000 A 
ATOM      9  C   UNL     1       2.858   0.000   0.000  0.00  0.00    +0.000 A 
ATOM     10  O   UNL     1       2.143  -0.412   0.000  0.00  0.00    +0.000 OA
ATOM     11  C   UNL     1       1.429   0.000   0.000  0.00  0.00    +0.000 A 
ATOM     12  C   UNL     1       0.715  -0.412   0.000  0.00  0.00    +0.000 A 
ATOM     13  C   UNL     1       0.000   0.000   0.000  0.00  0.00    +0.000 A 
ATOM     14  O   UNL     1      -0.715  -0.412   0.000  0.00  0.00    +0.000 OA
ATOM     15  C   UNL     1       0.000   0.825   0.000  0.00  0.00    +0.000 A 
ATOM     16  F   UNL     1      -0.715   1.238   0.000  0.00  0.00    +0.000 F 
ATOM     17  C   UNL     1       0.715   1.238   0.000  0.00  0.00    +0.000 A 
ATOM     18  C   UNL     1       1.429   0.825   0.000  0.00  0.00    +0.000 A 
ENDROOT
BRANCH   1  22
ATOM     19  C   UNL     1       2.143   3.712   0.000  0.00  0.00    +0.000 A 
ATOM     20  C   UNL     1       2.858   3.300   0.000  0.00  0.00    +0.000 A 
ATOM     21  C   UNL     1       2.858   2.475   0.000  0.00  0.00    +0.000 A 
ATOM     22  C   UNL     1       2.143   2.062   0.000  0.00  0.00    +0.000 A 
ATOM     23  C   UNL     1       1.429   2.475   0.000  0.00  0.00    +0.000 A 
ATOM     24  C   UNL     1       1.429   3.300   0.000  0.00  0.00    +0.000 A 
BRANCH  19  26
ATOM     25  O   UNL     1       1.429   4.950   0.000  0.00  0.00    +0.000 OA
ATOM     26  C   UNL     1       2.143   4.537   0.000  0.00  0.00    +0.000 C 
ATOM     27  O   UNL     1       2.858   4.950   0.000  0.00  0.00    +0.000 OA
ENDBRANCH  19  26
BRANCH  21  28
ATOM     28  C   UNL     1       3.572   2.062   0.000  0.00  0.00    +0.000 C 
ATOM     29  O   UNL     1       4.057   1.395   0.000  0.00  0.00    +0.000 OA
ATOM     30  O   UNL     1       4.287   2.475   0.000  0.00  0.00    +0.000 OA
ENDBRANCH  21  28
ENDBRANCH   1  22
TORSDOF 3
