REMARK  Name = 
REMARK  0 active torsions:
REMARK  status: ('A' for Active; 'I' for Inactive)
REMARK                            x       y       z     vdW  Elec       q    Type
REMARK                         _______ _______ _______ _____ _____    ______ ____
ROOT
ATOM      1  O   UNL     1      20.005  -3.220   0.000  0.00  0.00    +0.000 OA
ATOM      2  O   UNL     1      14.519  -6.774   0.000  0.00  0.00    +0.000 OA
ATOM      3  C   UNL     1      18.254  -5.494   0.000  0.00  0.00    +0.000 C 
ATOM      4  C   UNL     1      17.539  -5.081   0.000  0.00  0.00    +0.000 C 
ATOM      5  C   UNL     1      18.968  -5.081   0.000  0.00  0.00    +0.000 C 
ATOM      6  C   UNL     1      18.968  -4.256   0.000  0.00  0.00    +0.000 C 
ATOM      7  C   UNL     1      16.789  -5.499   0.000  0.00  0.00    +0.000 C 
ATOM      8  C   UNL     1      16.782  -6.358   0.000  0.00  0.00    +0.000 C 
ATOM      9  C   UNL     1      17.539  -4.256   0.000  0.00  0.00    +0.000 C 
ATOM     10  C   UNL     1      18.254  -3.844   0.000  0.00  0.00    +0.000 C 
ATOM     11  C   UNL     1      18.267  -6.353   0.000  0.00  0.00    +0.000 C 
ATOM     12  C   UNL     1      19.749  -5.332   0.000  0.00  0.00    +0.000 C 
ATOM     13  C   UNL     1      19.749  -4.005   0.000  0.00  0.00    +0.000 C 
ATOM     14  C   UNL     1      17.526  -6.788   0.000  0.00  0.00    +0.000 C 
ATOM     15  C   UNL     1      20.230  -4.669   0.000  0.00  0.00    +0.000 C 
ATOM     16  C   UNL     1      16.024  -5.034   0.000  0.00  0.00    +0.000 C 
ATOM     17  C   UNL     1      18.968  -3.431   0.000  0.00  0.00    +0.000 C 
ATOM     18  C   UNL     1      16.795  -4.674   0.000  0.00  0.00    +0.000 C 
ATOM     19  C   UNL     1      16.010  -6.812   0.000  0.00  0.00    +0.000 C 
ATOM     20  C   UNL     1      15.242  -5.469   0.000  0.00  0.00    +0.000 C 
ATOM     21  C   UNL     1      15.235  -6.364   0.000  0.00  0.00    +0.000 C 
ENDROOT
TORSDOF 0
