REMARK  Name = 
REMARK  4 active torsions:
REMARK  status: ('A' for Active; 'I' for Inactive)
REMARK    1  A    between atoms: N_2  and  S_4
REMARK    2  A    between atoms: S_4  and  N_7
REMARK    3  A    between atoms: N_10  and  C_13
REMARK    4  A    between atoms: C_17  and  C_18
REMARK                            x       y       z     vdW  Elec       q    Type
REMARK                         _______ _______ _______ _____ _____    ______ ____
ROOT
ATOM      1  N   UNL     1       0.715  -1.238   0.000  0.00  0.00    +0.000 NA
ATOM      2  C   UNL     1       1.429  -1.650   0.000  0.00  0.00    +0.000 C 
ATOM      3  C   UNL     1       1.429  -2.475   0.000  0.00  0.00    +0.000 C 
ATOM      4  N   UNL     1       0.715  -2.888   0.000  0.00  0.00    +0.000 N 
ATOM      5  C   UNL     1       0.000  -2.475   0.000  0.00  0.00    +0.000 C 
ATOM      6  C   UNL     1       0.000  -1.650   0.000  0.00  0.00    +0.000 C 
ENDROOT
BRANCH   4   7
ATOM      7  C   UNL     1       0.715  -3.712   0.000  0.00  0.00    +0.000 A 
ATOM      8  C   UNL     1       1.429  -4.125   0.000  0.00  0.00    +0.000 A 
ATOM      9  C   UNL     1       1.429  -4.950   0.000  0.00  0.00    +0.000 A 
ATOM     10  N   UNL     1       0.715  -5.362   0.000  0.00  0.00    +0.000 NA
ATOM     11  C   UNL     1       0.000  -4.950   0.000  0.00  0.00    +0.000 A 
ATOM     12  N   UNL     1       0.000  -4.125   0.000  0.00  0.00    +0.000 NA
BRANCH  11  13
ATOM     13  C   UNL     1      -0.715  -5.362   0.000  0.00  0.00    +0.000 C 
ATOM     14  O   UNL     1      -0.715  -6.188   0.000  0.00  0.00    +0.000 OA
ENDBRANCH  11  13
ENDBRANCH   4   7
BRANCH   1  15
ATOM     15  S   UNL     1       0.715  -0.412   0.000  0.00  0.00    +0.000 S 
ATOM     16  O   UNL     1      -0.111  -0.412   0.000  0.00  0.00    +0.000 OA
ATOM     17  O   UNL     1       1.540  -0.412   0.000  0.00  0.00    +0.000 OA
BRANCH  15  19
ATOM     18  C   UNL     1       0.000   0.825   0.000  0.00  0.00    +0.000 C 
ATOM     19  N   UNL     1       0.715   0.412   0.000  0.00  0.00    +0.000 NA
ATOM     20  C   UNL     1       1.429   0.825   0.000  0.00  0.00    +0.000 C 
ENDBRANCH  15  19
ENDBRANCH   1  15
TORSDOF 4
