REMARK  Name = 
REMARK  8 active torsions:
REMARK  status: ('A' for Active; 'I' for Inactive)
REMARK    1  A    between atoms: C_3  and  C_15
REMARK    2  A    between atoms: C_4  and  C_16
REMARK    3  A    between atoms: C_5  and  C_6
REMARK    4  A    between atoms: C_5  and  N_21
REMARK    5  A    between atoms: C_10  and  C_12
REMARK    6  A    between atoms: C_11  and  C_13
REMARK    7  A    between atoms: C_14  and  O_23
REMARK    8  A    between atoms: C_17  and  O_23
REMARK                            x       y       z     vdW  Elec       q    Type
REMARK                         _______ _______ _______ _____ _____    ______ ____
ROOT
ATOM      1  C   UNL     1       2.811   2.981   0.000  0.00  0.00    +0.000 A 
ATOM      2  C   UNL     1       1.476   2.981   0.000  0.00  0.00    +0.000 A 
ATOM      3  C   UNL     1       2.143   3.466   0.000  0.00  0.00    +0.000 A 
ATOM      4  N   UNL     1       2.556   2.196   0.000  0.00  0.00    +0.000 NA
ATOM      5  N   UNL     1       1.731   2.196   0.000  0.00  0.00    +0.000 N 
ENDROOT
BRANCH   1   7
ATOM      6  C   UNL     1       4.209   2.684   0.000  0.00  0.00    +0.000 C 
ATOM      7  C   UNL     1       3.595   3.236   0.000  0.00  0.00    +0.000 C 
ENDBRANCH   1   7
BRANCH   2   9
ATOM      8  C   UNL     1       0.078   2.684   0.000  0.00  0.00    +0.000 C 
ATOM      9  C   UNL     1       0.691   3.236   0.000  0.00  0.00    +0.000 C 
ENDBRANCH   2   9
BRANCH   5  10
ATOM     10  C   UNL     1       1.246   1.529   0.000  0.00  0.00    +0.000 C 
BRANCH  10  11
ATOM     11  C   UNL     1       0.425   1.615   0.000  0.00  0.00    +0.000 C 
ATOM     12  O   UNL     1      -0.059   0.948   0.000  0.00  0.00    +0.000 OA
ENDBRANCH  10  11
ENDBRANCH   5  10
BRANCH   3  13
ATOM     13  O   UNL     1       2.143   4.291   0.000  0.00  0.00    +0.000 OA
BRANCH  13  19
ATOM     14  C   UNL     1       4.287   5.529   0.000  0.00  0.00    +0.000 A 
ATOM     15  C   UNL     1       2.858   5.529   0.000  0.00  0.00    +0.000 A 
ATOM     16  C   UNL     1       3.572   4.291   0.000  0.00  0.00    +0.000 A 
ATOM     17  C   UNL     1       3.572   5.941   0.000  0.00  0.00    +0.000 A 
ATOM     18  C   UNL     1       4.287   4.704   0.000  0.00  0.00    +0.000 A 
ATOM     19  C   UNL     1       2.858   4.704   0.000  0.00  0.00    +0.000 A 
BRANCH  17  20
ATOM     20  C   UNL     1       3.572   6.766   0.000  0.00  0.00    +0.000 C 
ATOM     21  N   UNL     1       3.572   7.591   0.000  0.00  0.00    +0.000 NA
ENDBRANCH  17  20
BRANCH  18  22
ATOM     22  C   UNL     1       5.001   4.291   0.000  0.00  0.00    +0.000 C 
ATOM     23  N   UNL     1       5.716   3.879   0.000  0.00  0.00    +0.000 NA
ENDBRANCH  18  22
ENDBRANCH  13  19
ENDBRANCH   3  13
TORSDOF 8
