REMARK  Name = 
REMARK  0 active torsions:
REMARK  status: ('A' for Active; 'I' for Inactive)
REMARK                            x       y       z     vdW  Elec       q    Type
REMARK                         _______ _______ _______ _____ _____    ______ ____
ROOT
ATOM      1  O   UNL     1       4.236  -0.050   0.000  0.00  0.00    +0.000 OA
ATOM      2  O   UNL     1       2.807  -0.875   0.000  0.00  0.00    +0.000 OA
ATOM      3  N   UNL     1       3.522   0.363   0.000  0.00  0.00    +0.000 NA
ATOM      4  N   UNL     1       2.093   0.363   0.000  0.00  0.00    +0.000 NA
ATOM      5  C   UNL     1       2.807  -0.050   0.000  0.00  0.00    +0.000 C 
ENDROOT
TORSDOF 0
