REMARK  Name = 
REMARK  14 active torsions:
REMARK  status: ('A' for Active; 'I' for Inactive)
REMARK    1  A    between atoms: C_1  and  O_17
REMARK    2  A    between atoms: C_2  and  O_12
REMARK    3  A    between atoms: C_5  and  O_26
REMARK    4  A    between atoms: C_8  and  O_43
REMARK    5  A    between atoms: O_12  and  C_13
REMARK    6  A    between atoms: O_17  and  C_24
REMARK    7  A    between atoms: C_23  and  C_24
REMARK    8  A    between atoms: O_26  and  C_28
REMARK    9  A    between atoms: O_43  and  C_52
REMARK   10  A    between atoms: C_48  and  C_51
REMARK   11  A    between atoms: C_50  and  C_51
REMARK   12  A    between atoms: C_50  and  C_52
REMARK   13  A    between atoms: C_51  and  N_55
REMARK   14  A    between atoms: C_61  and  C_62
REMARK                            x       y       z     vdW  Elec       q    Type
REMARK                         _______ _______ _______ _____ _____    ______ ____
ROOT
ATOM      1  C   UNL     1       0.846  -1.190   0.000  0.00  0.00    +0.000 C 
ATOM      2  C   UNL     1       2.519  -0.799   0.000  0.00  0.00    +0.000 C 
ATOM      3  C   UNL     1       3.151   0.307   0.000  0.00  0.00    +0.000 C 
ATOM      4  C   UNL     1       1.246   1.236   0.000  0.00  0.00    +0.000 C 
ATOM      5  C   UNL     1       0.214   1.236   0.000  0.00  0.00    +0.000 C 
ATOM      6  C   UNL     1      -0.362   0.641   0.000  0.00  0.00    +0.000 C 
ATOM      7  C   UNL     1      -1.097   0.641   0.000  0.00  0.00    +0.000 C 
ATOM      8  C   UNL     1      -1.469   0.000   0.000  0.00  0.00    +0.000 C 
ATOM      9  C   UNL     1      -1.097  -0.641   0.000  0.00  0.00    +0.000 C 
ATOM     10  C   UNL     1      -1.469   1.274   0.000  0.00  0.00    +0.000 C 
ATOM     11  C   UNL     1       3.179  -1.283   0.000  0.00  0.00    +0.000 C 
ATOM     12  O   UNL     1       1.455   1.971   0.000  0.00  0.00    +0.000 OA
ATOM     13  C   UNL     1       1.878  -0.437   0.000  0.00  0.00    +0.000 C 
ATOM     14  C   UNL     1       1.878   0.307   0.000  0.00  0.00    +0.000 C 
ATOM     15  C   UNL     1       1.878   1.132   0.000  0.00  0.00    +0.000 C 
ATOM     16  C   UNL     1      -0.362  -0.641   0.000  0.00  0.00    +0.000 C 
ATOM     17  O   UNL     1      -0.362  -1.466   0.000  0.00  0.00    +0.000 OA
ATOM     18  C   UNL     1       0.715   0.412   0.000  0.00  0.00    +0.000 C 
ATOM     19  C   UNL     1       0.715  -0.412   0.000  0.00  0.00    +0.000 C 
ATOM     20  C   UNL     1       2.519   0.669   0.000  0.00  0.00    +0.000 C 
ATOM     21  O   UNL     1       2.519   1.494   0.000  0.00  0.00    +0.000 OA
ATOM     22  C   UNL     1       3.151  -0.437   0.000  0.00  0.00    +0.000 C 
ATOM     23  O   UNL     1       3.865  -0.849   0.000  0.00  0.00    +0.000 OA
ATOM     24  C   UNL     1       0.000   0.000   0.000  0.00  0.00    +0.000 C 
ENDROOT
BRANCH   2  25
ATOM     25  O   UNL     1       2.514  -1.560   0.000  0.00  0.00    +0.000 OA
BRANCH  25  26
ATOM     26  C   UNL     1       3.144  -1.940   0.000  0.00  0.00    +0.000 C 
ATOM     27  C   UNL     1       3.879  -1.536   0.000  0.00  0.00    +0.000 C 
ATOM     28  O   UNL     1       3.144  -2.651   0.000  0.00  0.00    +0.000 OA
ENDBRANCH  25  26
ENDBRANCH   2  25
BRANCH   5  29
ATOM     29  O   UNL     1      -0.185   2.100   0.000  0.00  0.00    +0.000 OA
BRANCH  29  31
ATOM     30  O   UNL     1      -0.899   3.337   0.000  0.00  0.00    +0.000 OA
ATOM     31  C   UNL     1      -0.185   2.925   0.000  0.00  0.00    +0.000 C 
ATOM     32  C   UNL     1       0.529   3.337   0.000  0.00  0.00    +0.000 C 
ENDBRANCH  29  31
ENDBRANCH   5  29
BRANCH   1  33
ATOM     33  O   UNL     1       0.801  -2.069   0.000  0.00  0.00    +0.000 OA
BRANCH  33  34
ATOM     34  C   UNL     1       0.086  -2.482   0.000  0.00  0.00    +0.000 C 
ATOM     35  O   UNL     1      -0.628  -2.069   0.000  0.00  0.00    +0.000 OA
BRANCH  34  41
ATOM     36  C   UNL     1      -0.628  -3.719   0.000  0.00  0.00    +0.000 A 
ATOM     37  C   UNL     1      -0.628  -4.544   0.000  0.00  0.00    +0.000 A 
ATOM     38  C   UNL     1       0.086  -4.957   0.000  0.00  0.00    +0.000 A 
ATOM     39  C   UNL     1       0.801  -4.544   0.000  0.00  0.00    +0.000 A 
ATOM     40  C   UNL     1       0.801  -3.719   0.000  0.00  0.00    +0.000 A 
ATOM     41  C   UNL     1       0.086  -3.307   0.000  0.00  0.00    +0.000 A 
ENDBRANCH  34  41
ENDBRANCH  33  34
ENDBRANCH   1  33
BRANCH   8  42
ATOM     42  O   UNL     1      -2.116  -0.372   0.000  0.00  0.00    +0.000 OA
BRANCH  42  43
ATOM     43  C   UNL     1      -2.831   0.040   0.000  0.00  0.00    +0.000 C 
ATOM     44  O   UNL     1      -2.831   0.865   0.000  0.00  0.00    +0.000 OA
BRANCH  43  45
ATOM     45  C   UNL     1      -3.545  -0.372   0.000  0.00  0.00    +0.000 C 
ATOM     46  O   UNL     1      -3.545  -1.198   0.000  0.00  0.00    +0.000 OA
BRANCH  45  47
ATOM     47  C   UNL     1      -4.260   0.024   0.000  0.00  0.00    +0.000 C 
BRANCH  47  52
ATOM     48  C   UNL     1      -5.705   0.024   0.000  0.00  0.00    +0.000 A 
ATOM     49  C   UNL     1      -6.419  -0.389   0.000  0.00  0.00    +0.000 A 
ATOM     50  C   UNL     1      -6.419  -1.214   0.000  0.00  0.00    +0.000 A 
ATOM     51  C   UNL     1      -5.705  -1.627   0.000  0.00  0.00    +0.000 A 
ATOM     52  C   UNL     1      -4.974  -0.389   0.000  0.00  0.00    +0.000 A 
ATOM     53  C   UNL     1      -4.974  -1.214   0.000  0.00  0.00    +0.000 A 
ENDBRANCH  47  52
BRANCH  47  54
ATOM     54  N   UNL     1      -4.260   0.849   0.000  0.00  0.00    +0.000 NA
ATOM     55  C   UNL     1      -4.974   1.261   0.000  0.00  0.00    +0.000 C 
ATOM     56  O   UNL     1      -5.688   0.849   0.000  0.00  0.00    +0.000 OA
BRANCH  55  62
ATOM     57  C   UNL     1      -5.688   2.498   0.000  0.00  0.00    +0.000 A 
ATOM     58  C   UNL     1      -5.688   3.324   0.000  0.00  0.00    +0.000 A 
ATOM     59  C   UNL     1      -4.974   3.736   0.000  0.00  0.00    +0.000 A 
ATOM     60  C   UNL     1      -4.260   3.324   0.000  0.00  0.00    +0.000 A 
ATOM     61  C   UNL     1      -4.260   2.498   0.000  0.00  0.00    +0.000 A 
ATOM     62  C   UNL     1      -4.974   2.086   0.000  0.00  0.00    +0.000 A 
ENDBRANCH  55  62
ENDBRANCH  47  54
ENDBRANCH  45  47
ENDBRANCH  43  45
ENDBRANCH  42  43
ENDBRANCH   8  42
TORSDOF 14
