REMARK  Name = 
REMARK  5 active torsions:
REMARK  status: ('A' for Active; 'I' for Inactive)
REMARK    1  A    between atoms: C_7  and  C_8
REMARK    2  A    between atoms: C_7  and  C_9
REMARK    3  A    between atoms: C_8  and  C_10
REMARK    4  A    between atoms: C_9  and  C_11
REMARK    5  A    between atoms: C_11  and  C_12
REMARK                            x       y       z     vdW  Elec       q    Type
REMARK                         _______ _______ _______ _____ _____    ______ ____
ROOT
ATOM      1  O   UNL     1       4.236  -1.031   0.000  0.00  0.00    +0.000 OA
ATOM      2  C   UNL     1       4.236  -0.206   0.000  0.00  0.00    +0.000 C 
ENDROOT
BRANCH   2   4
ATOM      3  O   UNL     1       3.522   1.031   0.000  0.00  0.00    +0.000 OA
ATOM      4  C   UNL     1       3.522   0.206   0.000  0.00  0.00    +0.000 C 
BRANCH   4   6
ATOM      5  O   UNL     1       2.093   0.206   0.000  0.00  0.00    +0.000 OA
ATOM      6  C   UNL     1       2.807  -0.206   0.000  0.00  0.00    +0.000 C 
ENDBRANCH   4   6
ENDBRANCH   2   4
BRANCH   2   8
ATOM      7  O   UNL     1       4.950   1.031   0.000  0.00  0.00    +0.000 OA
ATOM      8  C   UNL     1       4.950   0.206   0.000  0.00  0.00    +0.000 C 
BRANCH   8  10
ATOM      9  O   UNL     1       5.665  -1.031   0.000  0.00  0.00    +0.000 OA
ATOM     10  C   UNL     1       5.665  -0.206   0.000  0.00  0.00    +0.000 C 
BRANCH  10  12
ATOM     11  O   UNL     1       7.094  -0.206   0.000  0.00  0.00    +0.000 OA
ATOM     12  C   UNL     1       6.379   0.206   0.000  0.00  0.00    +0.000 C 
ENDBRANCH  10  12
ENDBRANCH   8  10
ENDBRANCH   2   8
TORSDOF 5
