REMARK  Name = 
REMARK  6 active torsions:
REMARK  status: ('A' for Active; 'I' for Inactive)
REMARK    1  A    between atoms: O_1  and  C_6
REMARK    2  A    between atoms: O_1  and  C_11
REMARK    3  A    between atoms: N_2  and  C_3
REMARK    4  A    between atoms: C_3  and  C_4
REMARK    5  A    between atoms: C_3  and  C_5
REMARK    6  A    between atoms: C_4  and  C_6
REMARK                            x       y       z     vdW  Elec       q    Type
REMARK                         _______ _______ _______ _____ _____    ______ ____
ROOT
ATOM      1  C   UNL     1       3.793   0.398   0.000  0.00  0.00    +0.000 C 
ENDROOT
BRANCH   1   2
ATOM      2  O   UNL     1       4.508   0.811   0.000  0.00  0.00    +0.000 OA
BRANCH   2   3
ATOM      3  C   UNL     1       4.508   1.636   0.000  0.00  0.00    +0.000 A 
ATOM      4  C   UNL     1       5.222   2.048   0.000  0.00  0.00    +0.000 A 
ATOM      5  C   UNL     1       5.222   2.873   0.000  0.00  0.00    +0.000 A 
ATOM      6  C   UNL     1       3.793   2.048   0.000  0.00  0.00    +0.000 A 
ATOM      7  C   UNL     1       5.960   1.607   0.000  0.00  0.00    +0.000 A 
ATOM      8  C   UNL     1       4.508   3.286   0.000  0.00  0.00    +0.000 A 
ATOM      9  C   UNL     1       3.793   2.873   0.000  0.00  0.00    +0.000 A 
ATOM     10  C   UNL     1       5.960   3.314   0.000  0.00  0.00    +0.000 A 
ATOM     11  C   UNL     1       6.707   2.031   0.000  0.00  0.00    +0.000 A 
ATOM     12  C   UNL     1       6.707   2.890   0.000  0.00  0.00    +0.000 A 
ENDBRANCH   2   3
ENDBRANCH   1   2
BRANCH   1  13
ATOM     13  C   UNL     1       3.793  -0.427   0.000  0.00  0.00    +0.000 C 
BRANCH  13  14
ATOM     14  C   UNL     1       3.079  -0.839   0.000  0.00  0.00    +0.000 C 
BRANCH  14  15
ATOM     15  C   UNL     1       3.079  -1.664   0.000  0.00  0.00    +0.000 A 
ATOM     16  C   UNL     1       3.793  -2.077   0.000  0.00  0.00    +0.000 A 
ATOM     17  C   UNL     1       2.364  -2.077   0.000  0.00  0.00    +0.000 A 
ATOM     18  C   UNL     1       3.793  -2.902   0.000  0.00  0.00    +0.000 A 
ATOM     19  C   UNL     1       2.364  -2.902   0.000  0.00  0.00    +0.000 A 
ATOM     20  C   UNL     1       3.079  -3.314   0.000  0.00  0.00    +0.000 A 
ENDBRANCH  14  15
BRANCH  14  21
ATOM     21  N   UNL     1       2.364  -0.427   0.000  0.00  0.00    +0.000 NA
ATOM     22  C   UNL     1       1.650  -0.839   0.000  0.00  0.00    +0.000 C 
ATOM     23  C   UNL     1       2.364   0.398   0.000  0.00  0.00    +0.000 C 
ENDBRANCH  14  21
ENDBRANCH  13  14
ENDBRANCH   1  13
TORSDOF 6
