REMARK  Name = 
REMARK  3 active torsions:
REMARK  status: ('A' for Active; 'I' for Inactive)
REMARK    1  A    between atoms: C_3  and  O_24
REMARK    2  A    between atoms: C_3  and  C_25
REMARK    3  A    between atoms: O_24  and  C_29
REMARK                            x       y       z     vdW  Elec       q    Type
REMARK                         _______ _______ _______ _____ _____    ______ ____
ROOT
ATOM      1  C   UNL     1       1.804  -0.114   0.000  0.00  0.00    +0.000 C 
ATOM      2  C   UNL     1       0.304  -1.096   0.000  0.00  0.00    +0.000 C 
ATOM      3  C   UNL     1       1.804   1.221   0.000  0.00  0.00    +0.000 C 
ATOM      4  C   UNL     1       0.304   1.379   0.000  0.00  0.00    +0.000 C 
ATOM      5  C   UNL     1       2.288   0.554   0.000  0.00  0.00    +0.000 C 
ATOM      6  C   UNL     1      -1.125  -0.271   0.000  0.00  0.00    +0.000 C 
ATOM      7  C   UNL     1      -0.410   0.966   0.000  0.00  0.00    +0.000 C 
ATOM      8  C   UNL     1      -0.410  -1.509   0.000  0.00  0.00    +0.000 C 
ATOM      9  C   UNL     1      -1.125  -1.096   0.000  0.00  0.00    +0.000 C 
ATOM     10  C   UNL     1      -1.839   0.141   0.000  0.00  0.00    +0.000 C 
ATOM     11  C   UNL     1      -1.839  -1.509   0.000  0.00  0.00    +0.000 C 
ATOM     12  C   UNL     1      -2.553  -0.271   0.000  0.00  0.00    +0.000 C 
ATOM     13  C   UNL     1       0.304  -0.271   0.000  0.00  0.00    +0.000 C 
ATOM     14  C   UNL     1      -0.410   0.141   0.000  0.00  0.00    +0.000 C 
ATOM     15  C   UNL     1       1.019   0.966   0.000  0.00  0.00    +0.000 C 
ATOM     16  C   UNL     1       1.019   1.791   0.000  0.00  0.00    +0.000 C 
ATOM     17  C   UNL     1       1.019   0.141   0.000  0.00  0.00    +0.000 C 
ATOM     18  O   UNL     1      -3.268  -1.509   0.000  0.00  0.00    +0.000 OA
ATOM     19  C   UNL     1      -2.553  -1.096   0.000  0.00  0.00    +0.000 C 
ATOM     20  C   UNL     1      -1.125   0.554   0.000  0.00  0.00    +0.000 C 
ATOM     21  C   UNL     1      -0.410  -2.334   0.000  0.00  0.00    +0.000 C 
ENDROOT
BRANCH   3  22
ATOM     22  C   UNL     1       1.804   2.046   0.000  0.00  0.00    +0.000 C 
ATOM     23  C   UNL     1       1.220   2.630   0.000  0.00  0.00    +0.000 C 
ATOM     24  O   UNL     1       2.518   2.459   0.000  0.00  0.00    +0.000 OA
ENDBRANCH   3  22
BRANCH   3  25
ATOM     25  O   UNL     1       2.518   1.634   0.000  0.00  0.00    +0.000 OA
BRANCH  25  26
ATOM     26  C   UNL     1       3.233   1.221   0.000  0.00  0.00    +0.000 C 
ATOM     27  C   UNL     1       3.947   1.634   0.000  0.00  0.00    +0.000 C 
ATOM     28  O   UNL     1       3.233   0.396   0.000  0.00  0.00    +0.000 OA
ENDBRANCH  25  26
ENDBRANCH   3  25
TORSDOF 3
