REMARK  Name = 
REMARK  4 active torsions:
REMARK  status: ('A' for Active; 'I' for Inactive)
REMARK    1  A    between atoms: C_2  and  C_3
REMARK    2  A    between atoms: C_3  and  C_4
REMARK    3  A    between atoms: C_4  and  C_5
REMARK    4  A    between atoms: C_5  and  C_6
REMARK                            x       y       z     vdW  Elec       q    Type
REMARK                         _______ _______ _______ _____ _____    ______ ____
ROOT
ATOM      1  C   UNL     1      -3.160   2.121   0.000  0.00  0.00    +0.000 C 
ATOM      2  O   UNL     1      -3.573   2.836   0.000  0.00  0.00    +0.000 OA
ATOM      3  C   UNL     1      -2.748   2.836   0.000  0.00  0.00    +0.000 C 
ENDROOT
BRANCH   1   4
ATOM      4  C   UNL     1      -3.875   1.709   0.000  0.00  0.00    +0.000 C 
BRANCH   4   6
ATOM      5  O   UNL     1      -5.304   1.709   0.000  0.00  0.00    +0.000 OA
ATOM      6  C   UNL     1      -4.589   2.121   0.000  0.00  0.00    +0.000 C 
ENDBRANCH   4   6
ENDBRANCH   1   4
BRANCH   1   7
ATOM      7  C   UNL     1      -2.446   1.709   0.000  0.00  0.00    +0.000 C 
BRANCH   7   8
ATOM      8  C   UNL     1      -1.731   2.121   0.000  0.00  0.00    +0.000 C 
ATOM      9  O   UNL     1      -1.017   1.709   0.000  0.00  0.00    +0.000 OA
ATOM     10  O   UNL     1      -1.731   2.946   0.000  0.00  0.00    +0.000 OA
ENDBRANCH   7   8
ENDBRANCH   1   7
TORSDOF 4
