REMARK  Name = 
REMARK  4 active torsions:
REMARK  status: ('A' for Active; 'I' for Inactive)
REMARK    1  A    between atoms: C_1  and  C_2
REMARK    2  A    between atoms: C_2  and  C_3
REMARK    3  A    between atoms: C_3  and  CA_4
REMARK    4  A    between atoms: CA_4  and  C_5
REMARK                            x       y       z     vdW  Elec       q    Type
REMARK                         _______ _______ _______ _____ _____    ______ ____
ROOT
ATOM      1  CA  UNL     1       0.476  -0.183   0.000  0.00  0.00    +0.000 C 
ATOM      2  N   UNL     1       0.476  -1.008   0.000  0.00  0.00    +0.000 NA
ENDROOT
BRANCH   1   3
ATOM      3  C   UNL     1       1.191   0.229   0.000  0.00  0.00    +0.000 C 
ATOM      4  O   UNL     1       1.191   1.054   0.000  0.00  0.00    +0.000 OA
ATOM      5  OXT UNL     1       1.905  -0.183   0.000  0.00  0.00    +0.000 OA
ENDBRANCH   1   3
BRANCH   1   6
ATOM      6  C   UNL     1      -0.238   0.229   0.000  0.00  0.00    +0.000 C 
BRANCH   6   7
ATOM      7  C   UNL     1      -0.953  -0.183   0.000  0.00  0.00    +0.000 C 
BRANCH   7   8
ATOM      8  C   UNL     1      -1.667   0.229   0.000  0.00  0.00    +0.000 C 
ATOM      9  N   UNL     1      -2.382  -0.183   0.000  0.00  0.00    +0.000 NA
ENDBRANCH   7   8
ENDBRANCH   6   7
ENDBRANCH   1   6
TORSDOF 4
