REMARK  Name = 
REMARK  13 active torsions:
REMARK  status: ('A' for Active; 'I' for Inactive)
REMARK    1  A    between atoms: N_2  and  C_4
REMARK    2  A    between atoms: C_13  and  S_14
REMARK    3  A    between atoms: S_14  and  N_17
REMARK    4  A    between atoms: N_17  and  C_18
REMARK    5  A    between atoms: C_18  and  C_19
REMARK    6  A    between atoms: C_19  and  C_20
REMARK    7  A    between atoms: C_20  and  C_21
REMARK    8  A    between atoms: C_21  and  C_22
REMARK    9  A    between atoms: C_22  and  C_23
REMARK   10  A    between atoms: C_23  and  C_24
REMARK   11  A    between atoms: C_24  and  C_25
REMARK   12  A    between atoms: C_25  and  N_26
REMARK   13  A    between atoms: C_27  and  C_29
REMARK                            x       y       z     vdW  Elec       q    Type
REMARK                         _______ _______ _______ _____ _____    ______ ____
ROOT
ATOM      1  C   UNL     1      -2.006  -7.434   0.000  0.00  0.00    +0.000 C 
ENDROOT
BRANCH   1   2
ATOM      2  C   UNL     1      -2.006  -6.609   0.000  0.00  0.00    +0.000 C 
BRANCH   2   3
ATOM      3  C   UNL     1      -1.292  -6.196   0.000  0.00  0.00    +0.000 C 
BRANCH   3   4
ATOM      4  C   UNL     1      -1.292  -5.371   0.000  0.00  0.00    +0.000 C 
BRANCH   4   5
ATOM      5  C   UNL     1      -0.577  -4.959   0.000  0.00  0.00    +0.000 C 
BRANCH   5   6
ATOM      6  C   UNL     1      -0.577  -4.134   0.000  0.00  0.00    +0.000 C 
BRANCH   6   7
ATOM      7  C   UNL     1       0.137  -3.721   0.000  0.00  0.00    +0.000 C 
BRANCH   7   8
ATOM      8  N   UNL     1       0.137  -2.896   0.000  0.00  0.00    +0.000 NA
ATOM      9  C   UNL     1       0.852  -2.483   0.000  0.00  0.00    +0.000 C 
ATOM     10  O   UNL     1       1.566  -2.896   0.000  0.00  0.00    +0.000 OA
BRANCH   9  11
ATOM     11  C   UNL     1       0.852  -1.659   0.000  0.00  0.00    +0.000 C 
ATOM     12  C   UNL     1       0.116  -2.032   0.000  0.00  0.00    +0.000 C 
ATOM     13  C   UNL     1       0.566  -1.242   0.000  0.00  0.00    +0.000 C 
ATOM     14  C   UNL     1       1.301  -1.616   0.000  0.00  0.00    +0.000 C 
ATOM     15  C   UNL     1       2.037  -1.242   0.000  0.00  0.00    +0.000 C 
ATOM     16  C   UNL     1       2.037  -0.494   0.000  0.00  0.00    +0.000 C 
ATOM     17  C   UNL     1       1.301  -0.121   0.000  0.00  0.00    +0.000 C 
ATOM     18  C   UNL     1       0.566  -0.494   0.000  0.00  0.00    +0.000 C 
ATOM     19  C   UNL     1       0.852  -0.911   0.000  0.00  0.00    +0.000 C 
ATOM     20  C   UNL     1       1.587  -2.032   0.000  0.00  0.00    +0.000 C 
ENDBRANCH   9  11
ENDBRANCH   7   8
ENDBRANCH   6   7
ENDBRANCH   5   6
ENDBRANCH   4   5
ENDBRANCH   3   4
ENDBRANCH   2   3
ENDBRANCH   1   2
BRANCH   1  21
ATOM     21  C   UNL     1      -2.720  -7.846   0.000  0.00  0.00    +0.000 C 
BRANCH  21  22
ATOM     22  N   UNL     1      -2.720  -8.671   0.000  0.00  0.00    +0.000 NA
BRANCH  22  23
ATOM     23  S   UNL     1      -3.435  -9.084   0.000  0.00  0.00    +0.000 S 
ATOM     24  O   UNL     1      -3.022  -9.798   0.000  0.00  0.00    +0.000 OA
ATOM     25  O   UNL     1      -3.847  -8.369   0.000  0.00  0.00    +0.000 OA
BRANCH  23  35
ATOM     26  C   UNL     1      -4.864 -11.559   0.000  0.00  0.00    +0.000 A 
ATOM     27  C   UNL     1      -4.149 -11.971   0.000  0.00  0.00    +0.000 A 
ATOM     28  C   UNL     1      -3.435 -11.559   0.000  0.00  0.00    +0.000 A 
ATOM     29  C   UNL     1      -3.435 -10.734   0.000  0.00  0.00    +0.000 A 
ATOM     30  C   UNL     1      -4.149 -10.321   0.000  0.00  0.00    +0.000 A 
ATOM     31  C   UNL     1      -4.864 -10.734   0.000  0.00  0.00    +0.000 A 
ATOM     32  C   UNL     1      -5.578 -10.321   0.000  0.00  0.00    +0.000 A 
ATOM     33  C   UNL     1      -5.578  -9.496   0.000  0.00  0.00    +0.000 A 
ATOM     34  C   UNL     1      -4.864  -9.084   0.000  0.00  0.00    +0.000 A 
ATOM     35  C   UNL     1      -4.149  -9.496   0.000  0.00  0.00    +0.000 A 
BRANCH  26  37
ATOM     36  C   UNL     1      -5.578 -12.796   0.000  0.00  0.00    +0.000 C 
ATOM     37  N   UNL     1      -5.578 -11.971   0.000  0.00  0.00    +0.000 N 
ATOM     38  C   UNL     1      -6.293 -11.559   0.000  0.00  0.00    +0.000 C 
ENDBRANCH  26  37
ENDBRANCH  23  35
ENDBRANCH  22  23
ENDBRANCH  21  22
ENDBRANCH   1  21
TORSDOF 13
