REMARK  Name = 
REMARK  7 active torsions:
REMARK  status: ('A' for Active; 'I' for Inactive)
REMARK    1  A    between atoms: C_1  and  C_3
REMARK    2  A    between atoms: C_1  and  C_5
REMARK    3  A    between atoms: C_2  and  C_4
REMARK    4  A    between atoms: C_2  and  S_15
REMARK    5  A    between atoms: C_3  and  C_6
REMARK    6  A    between atoms: C_4  and  C_7
REMARK    7  A    between atoms: C_5  and  S_15
REMARK                            x       y       z     vdW  Elec       q    Type
REMARK                         _______ _______ _______ _____ _____    ______ ____
ROOT
ATOM      1  C   UNK     1       3.491  -0.715   0.000  0.00  0.00    +0.000 C 
ATOM      2  O   UNK     1       3.491  -1.540   0.000  0.00  0.00    +0.000 OA
ENDROOT
BRANCH   1   3
ATOM      3  C   UNK     1       2.777  -0.302   0.000  0.00  0.00    +0.000 C 
BRANCH   3   4
ATOM      4  C   UNK     1       2.062  -0.715   0.000  0.00  0.00    +0.000 C 
ATOM      5  N   UNK     1       2.062  -1.540   0.000  0.00  0.00    +0.000 NA
BRANCH   4   6
ATOM      6  C   UNK     1       1.348  -0.302   0.000  0.00  0.00    +0.000 C 
ATOM      7  O   UNK     1       0.634  -0.715   0.000  0.00  0.00    +0.000 OA
ATOM      8  O   UNK     1       1.348   0.523   0.000  0.00  0.00    +0.000 OA
ENDBRANCH   4   6
ENDBRANCH   3   4
ENDBRANCH   1   3
BRANCH   1   9
ATOM      9  S   UNK     1       4.206  -0.302   0.000  0.00  0.00    +0.000 S 
BRANCH   9  10
ATOM     10  C   UNK     1       4.920  -0.715   0.000  0.00  0.00    +0.000 C 
BRANCH  10  11
ATOM     11  C   UNK     1       5.635  -0.302   0.000  0.00  0.00    +0.000 C 
ATOM     12  N   UNK     1       5.635   0.523   0.000  0.00  0.00    +0.000 NA
BRANCH  11  13
ATOM     13  C   UNK     1       6.349  -0.715   0.000  0.00  0.00    +0.000 C 
ATOM     14  O   UNK     1       7.064  -0.302   0.000  0.00  0.00    +0.000 OA
ATOM     15  O   UNK     1       6.349  -1.540   0.000  0.00  0.00    +0.000 OA
ENDBRANCH  11  13
ENDBRANCH  10  11
ENDBRANCH   9  10
ENDBRANCH   1   9
TORSDOF 7
