REMARK  Name = 
REMARK  6 active torsions:
REMARK  status: ('A' for Active; 'I' for Inactive)
REMARK    1  A    between atoms: C_11  and  C_14
REMARK    2  A    between atoms: C_11  and  O_30
REMARK    3  A    between atoms: C_15  and  N_26
REMARK    4  A    between atoms: C_18  and  N_25
REMARK    5  A    between atoms: C_20  and  N_25
REMARK    6  A    between atoms: O_30  and  S_31
REMARK                            x       y       z     vdW  Elec       q    Type
REMARK                         _______ _______ _______ _____ _____    ______ ____
ROOT
ATOM      1  C   UNL     1       1.139   2.190   0.000  0.00  0.00    +0.000 A 
ATOM      2  C   UNL     1       0.654   1.523   0.000  0.00  0.00    +0.000 A 
ATOM      3  C   UNL     1       3.352   1.110   0.000  0.00  0.00    +0.000 A 
ATOM      4  C   UNL     1       1.923   1.935   0.000  0.00  0.00    +0.000 A 
ATOM      5  C   UNL     1       2.638   2.348   0.000  0.00  0.00    +0.000 A 
ATOM      6  C   UNL     1       1.923   1.110   0.000  0.00  0.00    +0.000 A 
ATOM      7  N   UNL     1       3.352   1.935   0.000  0.00  0.00    +0.000 NA
ATOM      8  N   UNL     1       2.638   0.698   0.000  0.00  0.00    +0.000 NA
ATOM      9  N   UNL     1       1.139   0.856   0.000  0.00  0.00    +0.000 N 
ENDROOT
BRANCH   9  13
ATOM     10  C   UNL     1       0.099  -0.184   0.000  0.00  0.00    +0.000 C 
ATOM     11  C   UNL     1       1.369  -0.597   0.000  0.00  0.00    +0.000 C 
ATOM     12  C   UNL     1       0.099  -1.009   0.000  0.00  0.00    +0.000 C 
ATOM     13  C   UNL     1       0.884   0.071   0.000  0.00  0.00    +0.000 C 
ATOM     14  C   UNL     1       0.884  -1.264   0.000  0.00  0.00    +0.000 C 
ATOM     15  O   UNL     1       1.139  -2.049   0.000  0.00  0.00    +0.000 OA
BRANCH  12  16
ATOM     16  C   UNL     1      -0.568  -1.494   0.000  0.00  0.00    +0.000 C 
BRANCH  16  17
ATOM     17  O   UNL     1      -1.322  -1.158   0.000  0.00  0.00    +0.000 OA
BRANCH  17  21
ATOM     18  N   UNL     1      -2.657  -2.128   0.000  0.00  0.00    +0.000 NA
ATOM     19  O   UNL     1      -2.474  -0.976   0.000  0.00  0.00    +0.000 OA
ATOM     20  O   UNL     1      -1.504  -2.311   0.000  0.00  0.00    +0.000 OA
ATOM     21  S   UNL     1      -1.989  -1.643   0.000  0.00  0.00    +0.000 S 
ENDBRANCH  17  21
ENDBRANCH  16  17
ENDBRANCH  12  16
ENDBRANCH   9  13
BRANCH   5  22
ATOM     22  N   UNL     1       2.638   3.173   0.000  0.00  0.00    +0.000 NA
BRANCH  22  31
ATOM     23  C   UNL     1       3.948   5.975   0.000  0.00  0.00    +0.000 A 
ATOM     24  C   UNL     1       3.141   5.804   0.000  0.00  0.00    +0.000 A 
ATOM     25  C   UNL     1       4.500   5.362   0.000  0.00  0.00    +0.000 A 
ATOM     26  C   UNL     1       2.886   5.019   0.000  0.00  0.00    +0.000 A 
ATOM     27  C   UNL     1       4.658   3.863   0.000  0.00  0.00    +0.000 C 
ATOM     28  C   UNL     1       4.106   3.250   0.000  0.00  0.00    +0.000 C 
ATOM     29  C   UNL     1       4.245   4.577   0.000  0.00  0.00    +0.000 A 
ATOM     30  C   UNL     1       3.438   4.406   0.000  0.00  0.00    +0.000 A 
ATOM     31  C   UNL     1       3.352   3.585   0.000  0.00  0.00    +0.000 C 
ENDBRANCH  22  31
ENDBRANCH   5  22
TORSDOF 6
