REMARK  Name = 
REMARK  2 active torsions:
REMARK  status: ('A' for Active; 'I' for Inactive)
REMARK    1  A    between atoms: C5*_4  and  C4*_6
REMARK    2  A    between atoms: C1*_10  and  N_12
REMARK                            x       y       z     vdW  Elec       q    Type
REMARK                         _______ _______ _______ _____ _____    ______ ____
ROOT
ATOM      1  C4* UNL     1       3.419  -0.546   0.000  0.00  0.00    +0.000 C 
ATOM      2  C3* UNL     1       2.751  -0.062   0.000  0.00  0.00    +0.000 C 
ATOM      3  C2* UNL     1       2.084  -0.546   0.000  0.00  0.00    +0.000 C 
ATOM      4  C1* UNL     1       2.339  -1.331   0.000  0.00  0.00    +0.000 C 
ATOM      5  O3* UNL     1       2.751   0.763   0.000  0.00  0.00    +0.000 OA
ATOM      6  O2* UNL     1       1.299  -0.292   0.000  0.00  0.00    +0.000 OA
ATOM      7  O4* UNL     1       3.164  -1.331   0.000  0.00  0.00    +0.000 OA
ENDROOT
BRANCH   4  14
ATOM      8  C   UNL     1       1.704  -3.420   0.000  0.00  0.00    +0.000 A 
ATOM      9  C   UNL     1       2.189  -2.752   0.000  0.00  0.00    +0.000 A 
ATOM     10  C   UNL     1       0.548  -2.580   0.000  0.00  0.00    +0.000 A 
ATOM     11  C   UNL     1       0.884  -3.333   0.000  0.00  0.00    +0.000 A 
ATOM     12  C   UNL     1       1.033  -1.912   0.000  0.00  0.00    +0.000 A 
ATOM     13  N   UNL     1       0.399  -4.001   0.000  0.00  0.00    +0.000 NA
ATOM     14  N   UNL     1       1.854  -1.999   0.000  0.00  0.00    +0.000 N 
ATOM     15  O   UNL     1       0.698  -1.159   0.000  0.00  0.00    +0.000 OA
ENDBRANCH   4  14
BRANCH   1  16
ATOM     16  C5* UNL     1       4.203  -0.292   0.000  0.00  0.00    +0.000 C 
ATOM     17  O5* UNL     1       4.375   0.515   0.000  0.00  0.00    +0.000 OA
ENDBRANCH   1  16
TORSDOF 2
