REMARK  Name = 
REMARK  1 active torsions:
REMARK  status: ('A' for Active; 'I' for Inactive)
REMARK    1  A    between atoms: CA_2  and  C_3
REMARK                            x       y       z     vdW  Elec       q    Type
REMARK                         _______ _______ _______ _____ _____    ______ ____
ROOT
ATOM      1  CB  ALA A   1      14.250 -11.420   0.000  0.00  0.00    +0.000 C 
ATOM      2  CA  ALA A   1      13.837 -12.134   0.000  0.00  0.00    +0.000 C 
ATOM      3  N   ALA A   1      14.250 -12.849   0.000  0.00  0.00    +0.000 NA
ENDROOT
BRANCH   2   4
ATOM      4  C   ALA A   1      13.012 -12.134   0.000  0.00  0.00    +0.000 C 
ATOM      5  O   ALA A   1      12.600 -11.420   0.000  0.00  0.00    +0.000 OA
ATOM      6  OXT ALA A   1      12.600 -12.849   0.000  0.00  0.00    +0.000 OA
ENDBRANCH   2   4
TORSDOF 1
