REMARK  Name = 
REMARK  18 active torsions:
REMARK  status: ('A' for Active; 'I' for Inactive)
REMARK    1  A    between atoms: C_7  and  C_28
REMARK    2  A    between atoms: C_14  and  C_16
REMARK    3  A    between atoms: C_14  and  C_24
REMARK    4  A    between atoms: C_16  and  C_30
REMARK    5  A    between atoms: C_23  and  C_35
REMARK    6  A    between atoms: C_23  and  O_49
REMARK    7  A    between atoms: C_25  and  C_30
REMARK    8  A    between atoms: C_26  and  C_28
REMARK    9  A    between atoms: C_27  and  O_49
REMARK   10  A    between atoms: C_28  and  C_37
REMARK   11  A    between atoms: C_29  and  C_38
REMARK   12  A    between atoms: C_30  and  O_50
REMARK   13  A    between atoms: C_31  and  O_44
REMARK   14  A    between atoms: C_32  and  O_45
REMARK   15  A    between atoms: C_33  and  O_46
REMARK   16  A    between atoms: C_34  and  O_47
REMARK   17  A    between atoms: C_36  and  O_48
REMARK   18  A    between atoms: C_38  and  O_50
REMARK                            x       y       z     vdW  Elec       q    Type
REMARK                         _______ _______ _______ _____ _____    ______ ____
ROOT
ATOM      1  C   UNL     1       0.000  -4.950   0.000  0.00  0.00    +0.000 C 
ATOM      2  O   UNL     1       0.000  -5.775   0.000  0.00  0.00    +0.000 OA
ENDROOT
BRANCH   1   7
ATOM      3  C   UNL     1       1.429  -3.300   0.000  0.00  0.00    +0.000 C 
ATOM      4  C   UNL     1       2.143  -3.712   0.000  0.00  0.00    +0.000 C 
ATOM      5  C   UNL     1       0.715  -3.712   0.000  0.00  0.00    +0.000 C 
ATOM      6  C   UNL     1       2.143  -4.537   0.000  0.00  0.00    +0.000 C 
ATOM      7  C   UNL     1       0.715  -4.537   0.000  0.00  0.00    +0.000 C 
ATOM      8  C   UNL     1       1.429  -5.775   0.000  0.00  0.00    +0.000 C 
ATOM      9  N   UNL     1       1.429  -4.950   0.000  0.00  0.00    +0.000 N 
ATOM     10  O   UNL     1       0.715  -6.188   0.000  0.00  0.00    +0.000 OA
BRANCH   8  11
ATOM     11  C   UNL     1       2.143  -6.188   0.000  0.00  0.00    +0.000 C 
BRANCH  11  14
ATOM     12  C   UNL     1       2.858  -4.950   0.000  0.00  0.00    +0.000 A 
ATOM     13  C   UNL     1       3.572  -6.188   0.000  0.00  0.00    +0.000 A 
ATOM     14  C   UNL     1       2.858  -5.775   0.000  0.00  0.00    +0.000 A 
ATOM     15  C   UNL     1       3.572  -4.537   0.000  0.00  0.00    +0.000 A 
ATOM     16  C   UNL     1       4.287  -5.775   0.000  0.00  0.00    +0.000 A 
ATOM     17  C   UNL     1       4.287  -4.950   0.000  0.00  0.00    +0.000 A 
BRANCH  17  19
ATOM     18  C   UNL     1       5.716  -4.950   0.000  0.00  0.00    +0.000 C 
ATOM     19  O   UNL     1       5.001  -4.537   0.000  0.00  0.00    +0.000 OA
ENDBRANCH  17  19
BRANCH  16  21
ATOM     20  C   UNL     1       5.716  -5.775   0.000  0.00  0.00    +0.000 C 
ATOM     21  O   UNL     1       5.001  -6.188   0.000  0.00  0.00    +0.000 OA
ENDBRANCH  16  21
BRANCH  15  23
ATOM     22  C   UNL     1       4.287  -3.300   0.000  0.00  0.00    +0.000 C 
ATOM     23  O   UNL     1       3.572  -3.712   0.000  0.00  0.00    +0.000 OA
ENDBRANCH  15  23
ENDBRANCH  11  14
BRANCH  11  25
ATOM     24  C   UNL     1       2.858  -7.425   0.000  0.00  0.00    +0.000 C 
ATOM     25  C   UNL     1       2.143  -7.013   0.000  0.00  0.00    +0.000 C 
ENDBRANCH  11  25
ENDBRANCH   8  11
ENDBRANCH   1   7
BRANCH   1  26
ATOM     26  O   UNL     1      -0.715  -4.537   0.000  0.00  0.00    +0.000 OA
BRANCH  26  27
ATOM     27  C   UNL     1      -1.429  -4.950   0.000  0.00  0.00    +0.000 C 
BRANCH  27  32
ATOM     28  C   UNL     1      -0.715  -7.013   0.000  0.00  0.00    +0.000 A 
ATOM     29  C   UNL     1      -0.715  -6.188   0.000  0.00  0.00    +0.000 A 
ATOM     30  C   UNL     1      -1.429  -7.425   0.000  0.00  0.00    +0.000 A 
ATOM     31  C   UNL     1      -2.143  -6.188   0.000  0.00  0.00    +0.000 A 
ATOM     32  C   UNL     1      -1.429  -5.775   0.000  0.00  0.00    +0.000 A 
ATOM     33  C   UNL     1      -2.143  -7.013   0.000  0.00  0.00    +0.000 A 
BRANCH  33  34
ATOM     34  O   UNL     1      -2.858  -7.425   0.000  0.00  0.00    +0.000 OA
BRANCH  34  35
ATOM     35  C   UNL     1      -2.858  -8.250   0.000  0.00  0.00    +0.000 C 
BRANCH  35  36
ATOM     36  C   UNL     1      -3.572  -8.662   0.000  0.00  0.00    +0.000 C 
ATOM     37  O   UNL     1      -3.572  -9.488   0.000  0.00  0.00    +0.000 OA
ATOM     38  O   UNL     1      -4.287  -8.250   0.000  0.00  0.00    +0.000 OA
ENDBRANCH  35  36
ENDBRANCH  34  35
ENDBRANCH  33  34
ENDBRANCH  27  32
BRANCH  27  39
ATOM     39  C   UNL     1      -2.143  -4.537   0.000  0.00  0.00    +0.000 C 
BRANCH  39  40
ATOM     40  C   UNL     1      -2.858  -4.950   0.000  0.00  0.00    +0.000 C 
BRANCH  40  44
ATOM     41  C   UNL     1      -3.572  -3.712   0.000  0.00  0.00    +0.000 A 
ATOM     42  C   UNL     1      -4.287  -3.300   0.000  0.00  0.00    +0.000 A 
ATOM     43  C   UNL     1      -4.287  -4.950   0.000  0.00  0.00    +0.000 A 
ATOM     44  C   UNL     1      -3.572  -4.537   0.000  0.00  0.00    +0.000 A 
ATOM     45  C   UNL     1      -5.001  -3.712   0.000  0.00  0.00    +0.000 A 
ATOM     46  C   UNL     1      -5.001  -4.537   0.000  0.00  0.00    +0.000 A 
BRANCH  45  48
ATOM     47  C   UNL     1      -6.430  -3.712   0.000  0.00  0.00    +0.000 C 
ATOM     48  O   UNL     1      -5.716  -3.300   0.000  0.00  0.00    +0.000 OA
ENDBRANCH  45  48
BRANCH  46  50
ATOM     49  C   UNL     1      -6.430  -4.537   0.000  0.00  0.00    +0.000 C 
ATOM     50  O   UNL     1      -5.716  -4.950   0.000  0.00  0.00    +0.000 OA
ENDBRANCH  46  50
ENDBRANCH  40  44
ENDBRANCH  39  40
ENDBRANCH  27  39
ENDBRANCH  26  27
ENDBRANCH   1  26
TORSDOF 18
