REMARK  Name = 
REMARK  12 active torsions:
REMARK  status: ('A' for Active; 'I' for Inactive)
REMARK    1  A    between atoms: C_6  and  C_12
REMARK    2  A    between atoms: C_7  and  C_11
REMARK    3  A    between atoms: C_11  and  C_14
REMARK    4  A    between atoms: C_13  and  C_15
REMARK    5  A    between atoms: C_15  and  C_16
REMARK    6  A    between atoms: C_16  and  C_17
REMARK    7  A    between atoms: C_17  and  C_19
REMARK    8  A    between atoms: C_18  and  C_20
REMARK    9  A    between atoms: C_19  and  C_21
REMARK   10  A    between atoms: C_20  and  C_22
REMARK   11  A    between atoms: C_22  and  C_23
REMARK   12  A    between atoms: C_23  and  C_25
REMARK                            x       y       z     vdW  Elec       q    Type
REMARK                         _______ _______ _______ _____ _____    ______ ____
ROOT
ATOM      1  O   UNL     1       8.522  -1.736   0.000  0.00  0.00    +0.000 OA
ATOM      2  O   UNL     1       6.173  -3.443   0.000  0.00  0.00    +0.000 OA
ATOM      3  C   UNL     1       7.070  -1.506   0.000  0.00  0.00    +0.000 C 
ATOM      4  C   UNL     1       6.403  -1.992   0.000  0.00  0.00    +0.000 C 
ATOM      5  C   UNL     1       7.737  -1.992   0.000  0.00  0.00    +0.000 C 
ATOM      6  C   UNL     1       7.483  -2.776   0.000  0.00  0.00    +0.000 C 
ATOM      7  C   UNL     1       6.658  -2.776   0.000  0.00  0.00    +0.000 C 
ENDROOT
BRANCH   3   8
ATOM      8  C   UNL     1       7.070  -0.681   0.000  0.00  0.00    +0.000 C 
ATOM      9  C   UNL     1       7.785  -0.269   0.000  0.00  0.00    +0.000 C 
BRANCH   9  11
ATOM     10  O   UNL     1       7.070   0.969   0.000  0.00  0.00    +0.000 OA
ATOM     11  C   UNL     1       7.785   0.556   0.000  0.00  0.00    +0.000 C 
BRANCH  11  12
ATOM     12  C   UNL     1       8.499   0.969   0.000  0.00  0.00    +0.000 C 
BRANCH  12  13
ATOM     13  C   UNL     1       8.499   1.794   0.000  0.00  0.00    +0.000 C 
BRANCH  13  14
ATOM     14  C   UNL     1       9.214   2.206   0.000  0.00  0.00    +0.000 C 
BRANCH  14  15
ATOM     15  C   UNL     1       9.214   3.031   0.000  0.00  0.00    +0.000 C 
ATOM     16  C   UNL     1       9.928   3.443   0.000  0.00  0.00    +0.000 C 
ENDBRANCH  14  15
ENDBRANCH  13  14
ENDBRANCH  12  13
ENDBRANCH  11  12
ENDBRANCH   9  11
ENDBRANCH   3   8
BRANCH   4  17
ATOM     17  C   UNL     1       5.618  -1.736   0.000  0.00  0.00    +0.000 C 
BRANCH  17  18
ATOM     18  C   UNL     1       5.005  -2.289   0.000  0.00  0.00    +0.000 C 
ATOM     19  C   UNL     1       4.220  -2.034   0.000  0.00  0.00    +0.000 C 
BRANCH  19  20
ATOM     20  C   UNL     1       4.049  -1.227   0.000  0.00  0.00    +0.000 C 
BRANCH  20  21
ATOM     21  C   UNL     1       3.264  -0.972   0.000  0.00  0.00    +0.000 C 
BRANCH  21  22
ATOM     22  C   UNL     1       3.093  -0.165   0.000  0.00  0.00    +0.000 C 
BRANCH  22  25
ATOM     23  O   UNL     1       2.136   0.897   0.000  0.00  0.00    +0.000 OA
ATOM     24  O   UNL     1       1.695  -0.462   0.000  0.00  0.00    +0.000 OA
ATOM     25  C   UNL     1       2.308   0.090   0.000  0.00  0.00    +0.000 C 
ENDBRANCH  22  25
ENDBRANCH  21  22
ENDBRANCH  20  21
ENDBRANCH  19  20
ENDBRANCH  17  18
ENDBRANCH   4  17
TORSDOF 12
