REMARK  Name = 
REMARK  1 active torsions:
REMARK  status: ('A' for Active; 'I' for Inactive)
REMARK    1  A    between atoms: C_6  and  C_7
REMARK                            x       y       z     vdW  Elec       q    Type
REMARK                         _______ _______ _______ _____ _____    ______ ____
ROOT
ATOM      1  C   UNL     1       4.203   2.060   0.000  0.00  0.00    +0.000 C 
ATOM      2  C   UNL     1       3.419   1.805   0.000  0.00  0.00    +0.000 A 
ATOM      3  C   UNL     1       2.751   2.290   0.000  0.00  0.00    +0.000 A 
ATOM      4  C   UNL     1       3.164   1.021   0.000  0.00  0.00    +0.000 A 
ATOM      5  S   UNL     1       3.649   0.353   0.000  0.00  0.00    +0.000 S 
ATOM      6  S   UNL     1       2.084   1.805   0.000  0.00  0.00    +0.000 S 
ATOM      7  S   UNL     1       2.339   1.021   0.000  0.00  0.00    +0.000 S 
ENDROOT
BRANCH   3  11
ATOM      8  C   UNL     1       2.751   4.765   0.000  0.00  0.00    +0.000 A 
ATOM      9  C   UNL     1       2.037   4.353   0.000  0.00  0.00    +0.000 A 
ATOM     10  C   UNL     1       3.466   3.528   0.000  0.00  0.00    +0.000 A 
ATOM     11  C   UNL     1       2.751   3.115   0.000  0.00  0.00    +0.000 A 
ATOM     12  N   UNL     1       3.466   4.353   0.000  0.00  0.00    +0.000 NA
ATOM     13  N   UNL     1       2.037   3.528   0.000  0.00  0.00    +0.000 NA
ENDBRANCH   3  11
TORSDOF 1
