REMARK  Name = 
REMARK  4 active torsions:
REMARK  status: ('A' for Active; 'I' for Inactive)
REMARK    1  A    between atoms: C_16  and  C_22
REMARK    2  A    between atoms: C_17  and  N_24
REMARK    3  A    between atoms: C_19  and  O_28
REMARK    4  A    between atoms: C_20  and  O_29
REMARK                            x       y       z     vdW  Elec       q    Type
REMARK                         _______ _______ _______ _____ _____    ______ ____
ROOT
ATOM      1  C   UNL     1       5.001  -1.238   0.000  0.00  0.00    +0.000 C 
ATOM      2  C   UNL     1       5.716   0.000   0.000  0.00  0.00    +0.000 C 
ATOM      3  C   UNL     1       5.716  -1.650   0.000  0.00  0.00    +0.000 C 
ATOM      4  C   UNL     1       6.430  -0.412   0.000  0.00  0.00    +0.000 C 
ATOM      5  C   UNL     1       7.145  -1.650   0.000  0.00  0.00    +0.000 C 
ATOM      6  N   UNL     1       5.001  -0.412   0.000  0.00  0.00    +0.000 N 
ATOM      7  N   UNL     1       6.430  -1.238   0.000  0.00  0.00    +0.000 N 
ATOM      8  O   UNL     1       7.145  -2.475   0.000  0.00  0.00    +0.000 OA
ENDROOT
BRANCH   6  15
ATOM      9  C   UNL     1       2.143  -0.412   0.000  0.00  0.00    +0.000 C 
ATOM     10  C   UNL     1       4.287   0.825   0.000  0.00  0.00    +0.000 A 
ATOM     11  C   UNL     1       3.572   1.238   0.000  0.00  0.00    +0.000 A 
ATOM     12  C   UNL     1       1.429   0.000   0.000  0.00  0.00    +0.000 C 
ATOM     13  C   UNL     1       3.572  -0.412   0.000  0.00  0.00    +0.000 A 
ATOM     14  C   UNL     1       2.858   0.000   0.000  0.00  0.00    +0.000 A 
ATOM     15  C   UNL     1       4.287   0.000   0.000  0.00  0.00    +0.000 A 
ATOM     16  C   UNL     1       2.858   0.825   0.000  0.00  0.00    +0.000 A 
ATOM     17  C   UNL     1       1.429   0.825   0.000  0.00  0.00    +0.000 C 
ATOM     18  N   UNL     1       2.143   1.238   0.000  0.00  0.00    +0.000 NA
ATOM     19  O   UNL     1       0.715   1.238   0.000  0.00  0.00    +0.000 OA
ENDBRANCH   6  15
BRANCH   5  23
ATOM     20  C   UNL     1       8.574  -1.650   0.000  0.00  0.00    +0.000 A 
ATOM     21  C   UNL     1       9.288  -1.238   0.000  0.00  0.00    +0.000 A 
ATOM     22  C   UNL     1       7.859  -0.412   0.000  0.00  0.00    +0.000 A 
ATOM     23  C   UNL     1       7.859  -1.238   0.000  0.00  0.00    +0.000 A 
ATOM     24  C   UNL     1       9.288  -0.412   0.000  0.00  0.00    +0.000 A 
ATOM     25  C   UNL     1       8.574   0.000   0.000  0.00  0.00    +0.000 A 
BRANCH  24  27
ATOM     26  C   UNL     1      10.003   0.825   0.000  0.00  0.00    +0.000 C 
ATOM     27  O   UNL     1      10.003   0.000   0.000  0.00  0.00    +0.000 OA
ENDBRANCH  24  27
BRANCH  25  29
ATOM     28  C   UNL     1       9.288   1.238   0.000  0.00  0.00    +0.000 C 
ATOM     29  O   UNL     1       8.574   0.825   0.000  0.00  0.00    +0.000 OA
ENDBRANCH  25  29
ENDBRANCH   5  23
TORSDOF 4
