REMARK  Name = 
REMARK  3 active torsions:
REMARK  status: ('A' for Active; 'I' for Inactive)
REMARK    1  A    between atoms: C_5  and  C_7
REMARK    2  A    between atoms: C_5  and  CA_8
REMARK    3  A    between atoms: CA_8  and  C_11
REMARK                            x       y       z     vdW  Elec       q    Type
REMARK                         _______ _______ _______ _____ _____    ______ ____
ROOT
ATOM      1  C   UNL     1       3.352   1.110   0.000  0.00  0.00    +0.000 A 
ATOM      2  C   UNL     1       3.352   1.935   0.000  0.00  0.00    +0.000 A 
ATOM      3  C   UNL     1       2.638   0.698   0.000  0.00  0.00    +0.000 A 
ATOM      4  C   UNL     1       2.638   2.348   0.000  0.00  0.00    +0.000 A 
ATOM      5  C   UNL     1       1.923   1.110   0.000  0.00  0.00    +0.000 A 
ATOM      6  C   UNL     1       1.139   0.856   0.000  0.00  0.00    +0.000 A 
ATOM      7  C   UNL     1       1.923   1.935   0.000  0.00  0.00    +0.000 A 
ATOM      8  C   UNL     1       0.654   1.523   0.000  0.00  0.00    +0.000 A 
ATOM      9  N   UNL     1       1.139   2.190   0.000  0.00  0.00    +0.000 NA
ATOM     10  O   UNL     1      -0.171   1.523   0.000  0.00  0.00    +0.000 OA
ENDROOT
BRANCH   6  11
ATOM     11  C   UNL     1       0.884   0.071   0.000  0.00  0.00    +0.000 C 
BRANCH  11  12
ATOM     12  CA  UNL     1       1.436  -0.542   0.000  0.00  0.00    +0.000 C 
ATOM     13  N   UNL     1       2.243  -0.371   0.000  0.00  0.00    +0.000 NA
BRANCH  12  14
ATOM     14  C   UNL     1       1.181  -1.327   0.000  0.00  0.00    +0.000 C 
ATOM     15  O   UNL     1       1.733  -1.940   0.000  0.00  0.00    +0.000 OA
ATOM     16  OXT UNL     1       0.374  -1.498   0.000  0.00  0.00    +0.000 OA
ENDBRANCH  12  14
ENDBRANCH  11  12
ENDBRANCH   6  11
TORSDOF 3
