REMARK  Name = 
REMARK  7 active torsions:
REMARK  status: ('A' for Active; 'I' for Inactive)
REMARK    1  A    between atoms: C_1  and  C_2
REMARK    2  A    between atoms: C_1  and  CA_4
REMARK    3  A    between atoms: C_2  and  C_6
REMARK    4  A    between atoms: C_3  and  C_5
REMARK    5  A    between atoms: CA_4  and  C_8
REMARK    6  A    between atoms: C_6  and  O_20
REMARK    7  A    between atoms: C_9  and  O_20
REMARK                            x       y       z     vdW  Elec       q    Type
REMARK                         _______ _______ _______ _____ _____    ______ ____
ROOT
ATOM      1  C   UNL     1      -0.888   1.759   0.000  0.00  0.00    +0.000 C 
ATOM      2  C   UNL     1      -0.476   1.044   0.000  0.00  0.00    +0.000 C 
ATOM      3  C   UNL     1       0.418   2.036   0.000  0.00  0.00    +0.000 C 
ATOM      4  C   UNL     1       0.331   1.216   0.000  0.00  0.00    +0.000 C 
ATOM      5  F   UNL     1       0.595   0.434   0.000  0.00  0.00    +0.000 F 
ATOM      6  O   UNL     1      -0.811   0.290   0.000  0.00  0.00    +0.000 OA
ATOM      7  O   UNL     1       1.137   1.036   0.000  0.00  0.00    +0.000 OA
ATOM      8  O   UNL     1      -0.336   2.372   0.000  0.00  0.00    +0.000 OA
ENDROOT
BRANCH   1   9
ATOM      9  C   UNL     1      -1.709   1.845   0.000  0.00  0.00    +0.000 C 
ATOM     10  O   UNL     1      -2.193   1.177   0.000  0.00  0.00    +0.000 OA
ENDBRANCH   1   9
BRANCH   3  11
ATOM     11  O   UNL     1       1.132   2.449   0.000  0.00  0.00    +0.000 OA
BRANCH  11  12
ATOM     12  C   UNL     1       1.847   2.036   0.000  0.00  0.00    +0.000 C 
ATOM     13  O   UNL     1       1.847   1.211   0.000  0.00  0.00    +0.000 OA
BRANCH  12  14
ATOM     14  C   UNL     1       2.561   2.449   0.000  0.00  0.00    +0.000 C 
BRANCH  14  15
ATOM     15  C   UNL     1       3.276   2.036   0.000  0.00  0.00    +0.000 C 
BRANCH  15  16
ATOM     16  CA  UNL     1       3.990   2.449   0.000  0.00  0.00    +0.000 C 
ATOM     17  N   UNL     1       3.990   3.274   0.000  0.00  0.00    +0.000 NA
BRANCH  16  18
ATOM     18  C   UNL     1       4.704   2.036   0.000  0.00  0.00    +0.000 C 
ATOM     19  O   UNL     1       5.419   2.449   0.000  0.00  0.00    +0.000 OA
ATOM     20  OXT UNL     1       4.704   1.211   0.000  0.00  0.00    +0.000 OA
ENDBRANCH  16  18
ENDBRANCH  15  16
ENDBRANCH  14  15
ENDBRANCH  12  14
ENDBRANCH  11  12
ENDBRANCH   3  11
TORSDOF 7
