REMARK  Name = 
REMARK  2 active torsions:
REMARK  status: ('A' for Active; 'I' for Inactive)
REMARK    1  A    between atoms: C_2  and  O_4
REMARK    2  A    between atoms: O_4  and  P_5
REMARK                            x       y       z     vdW  Elec       q    Type
REMARK                         _______ _______ _______ _____ _____    ______ ____
ROOT
ATOM      1  O   UNL     1       0.825  -0.825   0.000  0.00  0.00    +0.000 OA
ENDROOT
BRANCH   1   2
ATOM      2  P   UNL     1       0.825   0.000   0.000  0.00  0.00    +0.000 P 
ATOM      3  O   UNL     1       0.825   0.825   0.000  0.00  0.00    +0.000 OA
ATOM      4  O   UNL     1       1.650   0.000   0.000  0.00  0.00    +0.000 OA
ATOM      5  O   UNL     1       0.000   0.000   0.000  0.00  0.00    +0.000 OA
ENDBRANCH   1   2
BRANCH   1   7
ATOM      6  C   UNL     1       0.111  -2.062   0.000  0.00  0.00    +0.000 C 
ATOM      7  C   UNL     1       0.111  -1.238   0.000  0.00  0.00    +0.000 C 
ATOM      8  O   UNL     1      -0.604  -0.825   0.000  0.00  0.00    +0.000 OA
ENDBRANCH   1   7
TORSDOF 2
