REMARK  Name = 
REMARK  3 active torsions:
REMARK  status: ('A' for Active; 'I' for Inactive)
REMARK    1  A    between atoms: C_9  and  N_13
REMARK    2  A    between atoms: C_15  and  C_16
REMARK    3  A    between atoms: C_17  and  C_18
REMARK                            x       y       z     vdW  Elec       q    Type
REMARK                         _______ _______ _______ _____ _____    ______ ____
ROOT
ATOM      1  N   UNL     1      -1.678   2.412   0.000  0.00  0.00    +0.000 N 
ATOM      2  N   UNL     1      -2.462   2.667   0.000  0.00  0.00    +0.000 NA
ATOM      3  C   UNL     1      -2.462   3.492   0.000  0.00  0.00    +0.000 A 
ATOM      4  N   UNL     1      -1.678   3.747   0.000  0.00  0.00    +0.000 NA
ATOM      5  N   UNL     1      -1.193   3.080   0.000  0.00  0.00    +0.000 N 
ATOM      6  C   UNL     1      -0.368   3.080   0.000  0.00  0.00    +0.000 A 
ATOM      7  N   UNL     1       0.117   2.412   0.000  0.00  0.00    +0.000 NA
ATOM      8  C   UNL     1       0.902   2.667   0.000  0.00  0.00    +0.000 A 
ATOM      9  C   UNL     1       0.902   3.492   0.000  0.00  0.00    +0.000 A 
ATOM     10  S   UNL     1       0.117   3.747   0.000  0.00  0.00    +0.000 S 
ATOM     11  C   UNL     1       1.616   3.905   0.000  0.00  0.00    +0.000 A 
ATOM     12  C   UNL     1       2.331   3.492   0.000  0.00  0.00    +0.000 A 
ATOM     13  C   UNL     1       2.331   2.667   0.000  0.00  0.00    +0.000 A 
ATOM     14  C   UNL     1       1.616   2.255   0.000  0.00  0.00    +0.000 A 
ENDROOT
BRANCH   1  23
ATOM     15  O   UNL     1       0.149  -0.898   0.000  0.00  0.00    +0.000 OA
ATOM     16  C   UNL     1      -0.658  -0.726   0.000  0.00  0.00    +0.000 A 
ATOM     17  N   UNL     1      -1.210  -1.339   0.000  0.00  0.00    +0.000 NA
ATOM     18  N   UNL     1      -2.017  -1.168   0.000  0.00  0.00    +0.000 NA
ATOM     19  C   UNL     1      -2.272  -0.383   0.000  0.00  0.00    +0.000 A 
ATOM     20  O   UNL     1      -3.079  -0.212   0.000  0.00  0.00    +0.000 OA
ATOM     21  C   UNL     1      -1.720   0.230   0.000  0.00  0.00    +0.000 A 
ATOM     22  C   UNL     1      -1.975   1.014   0.000  0.00  0.00    +0.000 A 
ATOM     23  C   UNL     1      -1.423   1.627   0.000  0.00  0.00    +0.000 A 
ATOM     24  C   UNL     1      -0.616   1.456   0.000  0.00  0.00    +0.000 A 
ATOM     25  C   UNL     1      -0.361   0.671   0.000  0.00  0.00    +0.000 A 
ATOM     26  C   UNL     1      -0.913   0.058   0.000  0.00  0.00    +0.000 A 
ENDBRANCH   1  23
BRANCH   3  27
ATOM     27  C   UNL     1      -3.130   3.977   0.000  0.00  0.00    +0.000 C 
ATOM     28  C   UNL     1      -3.884   3.642   0.000  0.00  0.00    +0.000 C 
BRANCH  28  29
ATOM     29  C   UNL     1      -4.551   4.126   0.000  0.00  0.00    +0.000 A 
ATOM     30  C   UNL     1      -5.305   3.791   0.000  0.00  0.00    +0.000 A 
ATOM     31  C   UNL     1      -5.972   4.276   0.000  0.00  0.00    +0.000 A 
ATOM     32  C   UNL     1      -5.886   5.096   0.000  0.00  0.00    +0.000 A 
ATOM     33  C   UNL     1      -5.132   5.432   0.000  0.00  0.00    +0.000 A 
ATOM     34  C   UNL     1      -4.465   4.947   0.000  0.00  0.00    +0.000 A 
ENDBRANCH  28  29
ENDBRANCH   3  27
TORSDOF 3
