REMARK  Name = 
REMARK  8 active torsions:
REMARK  status: ('A' for Active; 'I' for Inactive)
REMARK    1  A    between atoms: O_2  and  C_11
REMARK    2  A    between atoms: O_2  and  C_15
REMARK    3  A    between atoms: O_4  and  C_25
REMARK    4  A    between atoms: N_7  and  C_16
REMARK    5  A    between atoms: N_8  and  C_19
REMARK    6  A    between atoms: N_9  and  C_23
REMARK    7  A    between atoms: C_16  and  C_17
REMARK    8  A    between atoms: C_24  and  C_30
REMARK                            x       y       z     vdW  Elec       q    Type
REMARK                         _______ _______ _______ _____ _____    ______ ____
ROOT
ATOM      1  O   UNL     1       5.222  -0.841   0.000  0.00  0.00    +0.000 OA
ATOM      2  N   UNL     1       4.508  -2.079   0.000  0.00  0.00    +0.000 NA
ATOM      3  N   UNL     1       3.793  -0.841   0.000  0.00  0.00    +0.000 NA
ATOM      4  C   UNL     1       4.508  -1.254   0.000  0.00  0.00    +0.000 C 
ENDROOT
BRANCH   3   5
ATOM      5  C   UNL     1       3.793  -0.016   0.000  0.00  0.00    +0.000 A 
ATOM      6  C   UNL     1       3.793   1.634   0.000  0.00  0.00    +0.000 A 
ATOM      7  C   UNL     1       3.079   1.222   0.000  0.00  0.00    +0.000 A 
ATOM      8  C   UNL     1       3.079   0.397   0.000  0.00  0.00    +0.000 A 
ATOM      9  C   UNL     1       4.508   0.397   0.000  0.00  0.00    +0.000 A 
ATOM     10  C   UNL     1       4.508   1.222   0.000  0.00  0.00    +0.000 A 
BRANCH   6  13
ATOM     11  O   UNL     1       4.461   2.944   0.000  0.00  0.00    +0.000 OA
ATOM     12  N   UNL     1       3.381   3.729   0.000  0.00  0.00    +0.000 NA
ATOM     13  C   UNL     1       3.793   2.459   0.000  0.00  0.00    +0.000 A 
ATOM     14  C   UNL     1       3.126   2.944   0.000  0.00  0.00    +0.000 A 
ATOM     15  C   UNL     1       4.206   3.729   0.000  0.00  0.00    +0.000 A 
ENDBRANCH   6  13
BRANCH   7  16
ATOM     16  O   UNL     1       2.365   1.634   0.000  0.00  0.00    +0.000 OA
ATOM     17  C   UNL     1       1.650   1.222   0.000  0.00  0.00    +0.000 C 
ENDBRANCH   7  16
ENDBRANCH   3   5
BRANCH   2  20
ATOM     18  C   UNL     1       6.652  -2.491   0.000  0.00  0.00    +0.000 A 
ATOM     19  C   UNL     1       5.937  -2.079   0.000  0.00  0.00    +0.000 A 
ATOM     20  C   UNL     1       5.222  -2.491   0.000  0.00  0.00    +0.000 A 
ATOM     21  C   UNL     1       6.652  -3.316   0.000  0.00  0.00    +0.000 A 
ATOM     22  C   UNL     1       5.222  -3.316   0.000  0.00  0.00    +0.000 A 
ATOM     23  C   UNL     1       5.937  -3.729   0.000  0.00  0.00    +0.000 A 
BRANCH  18  24
ATOM     24  C   UNL     1       7.366  -2.079   0.000  0.00  0.00    +0.000 C 
BRANCH  24  26
ATOM     25  O   UNL     1       8.795  -1.254   0.000  0.00  0.00    +0.000 OA
ATOM     26  N   UNL     1       8.080  -2.491   0.000  0.00  0.00    +0.000 NA
ATOM     27  C   UNL     1       8.795  -2.079   0.000  0.00  0.00    +0.000 C 
BRANCH  27  28
ATOM     28  O   UNL     1       9.509  -2.491   0.000  0.00  0.00    +0.000 OA
BRANCH  28  30
ATOM     29  O   UNL     1      11.530  -1.801   0.000  0.00  0.00    +0.000 OA
ATOM     30  C   UNL     1      10.224  -2.079   0.000  0.00  0.00    +0.000 C 
ATOM     31  C   UNL     1      10.310  -1.258   0.000  0.00  0.00    +0.000 C 
ATOM     32  C   UNL     1      10.978  -2.414   0.000  0.00  0.00    +0.000 C 
ATOM     33  C   UNL     1      11.117  -1.087   0.000  0.00  0.00    +0.000 C 
ENDBRANCH  28  30
ENDBRANCH  27  28
ENDBRANCH  24  26
ENDBRANCH  18  24
ENDBRANCH   2  20
TORSDOF 8
