REMARK  Name = 
REMARK  5 active torsions:
REMARK  status: ('A' for Active; 'I' for Inactive)
REMARK    1  A    between atoms: C_1  and  O_2
REMARK    2  A    between atoms: C_1  and  C_5
REMARK    3  A    between atoms: O_2  and  C_6
REMARK    4  A    between atoms: C_7  and  C_13
REMARK    5  A    between atoms: C_15  and  C_20
REMARK                            x       y       z     vdW  Elec       q    Type
REMARK                         _______ _______ _______ _____ _____    ______ ____
ROOT
ATOM      1  O   UNL     1      15.605  -9.206   0.000  0.00  0.00    +0.000 OA
ENDROOT
BRANCH   1   2
ATOM      2  C   UNL     1      14.893  -9.618   0.000  0.00  0.00    +0.000 C 
ATOM      3  O   UNL     1      14.171  -9.206   0.000  0.00  0.00    +0.000 OA
ATOM      4  C   UNL     1      14.893 -10.443   0.000  0.00  0.00    +0.000 C 
ATOM      5  C   UNL     1      13.463  -9.622   0.000  0.00  0.00    +0.000 C 
ATOM      6  C   UNL     1      14.171 -10.856   0.000  0.00  0.00    +0.000 C 
ATOM      7  O   UNL     1      15.601 -10.856   0.000  0.00  0.00    +0.000 OA
ATOM      8  C   UNL     1      13.463 -10.443   0.000  0.00  0.00    +0.000 C 
ATOM      9  O   UNL     1      14.171 -11.681   0.000  0.00  0.00    +0.000 OA
ATOM     10  O   UNL     1      12.748 -10.856   0.000  0.00  0.00    +0.000 OA
BRANCH   5  11
ATOM     11  C   UNL     1      12.748  -9.206   0.000  0.00  0.00    +0.000 C 
ATOM     12  O   UNL     1      12.119  -9.742   0.000  0.00  0.00    +0.000 OA
ENDBRANCH   5  11
ENDBRANCH   1   2
BRANCH   1  13
ATOM     13  C   UNL     1      16.217  -8.659   0.000  0.00  0.00    +0.000 C 
ATOM     14  O   UNL     1      16.904  -8.164   0.000  0.00  0.00    +0.000 OA
ATOM     15  C   UNL     1      16.468  -9.426   0.000  0.00  0.00    +0.000 C 
ATOM     16  C   UNL     1      17.568  -8.645   0.000  0.00  0.00    +0.000 C 
ATOM     17  C   UNL     1      17.303  -9.426   0.000  0.00  0.00    +0.000 C 
ATOM     18  O   UNL     1      15.983 -10.096   0.000  0.00  0.00    +0.000 OA
ATOM     19  O   UNL     1      17.781 -10.099   0.000  0.00  0.00    +0.000 OA
BRANCH  13  20
ATOM     20  C   UNL     1      15.639  -8.071   0.000  0.00  0.00    +0.000 C 
ATOM     21  O   UNL     1      14.886  -8.415   0.000  0.00  0.00    +0.000 OA
ENDBRANCH  13  20
BRANCH  16  22
ATOM     22  C   UNL     1      18.355  -8.398   0.000  0.00  0.00    +0.000 C 
ATOM     23  O   UNL     1      18.850  -9.061   0.000  0.00  0.00    +0.000 OA
ENDBRANCH  16  22
ENDBRANCH   1  13
TORSDOF 5
