REMARK  Name = 
REMARK  3 active torsions:
REMARK  status: ('A' for Active; 'I' for Inactive)
REMARK    1  A    between atoms: S_1  and  C_14
REMARK    2  A    between atoms: C_6  and  C_8
REMARK    3  A    between atoms: C_8  and  C_9
REMARK                            x       y       z     vdW  Elec       q    Type
REMARK                         _______ _______ _______ _____ _____    ______ ____
ROOT
ATOM      1  O   UNL     1       1.650   1.190   0.000  0.00  0.00    +0.000 OA
ATOM      2  C   UNL     1       2.365   0.777   0.000  0.00  0.00    +0.000 C 
ENDROOT
BRANCH   2   6
ATOM      3  O   UNL     1       4.308   2.935   0.000  0.00  0.00    +0.000 OA
ATOM      4  N   UNL     1       3.165   2.010   0.000  0.00  0.00    +0.000 NA
ATOM      5  N   UNL     1       4.385   1.467   0.000  0.00  0.00    +0.000 NA
ATOM      6  C   UNL     1       3.079   1.190   0.000  0.00  0.00    +0.000 A 
ATOM      7  C   UNL     1       3.833   0.854   0.000  0.00  0.00    +0.000 A 
ATOM      8  C   UNL     1       3.972   2.182   0.000  0.00  0.00    +0.000 A 
ATOM      9  C   UNL     1       4.004   0.047   0.000  0.00  0.00    +0.000 C 
ENDBRANCH   2   6
BRANCH   2  10
ATOM     10  C   UNL     1       2.365  -0.048   0.000  0.00  0.00    +0.000 A 
ATOM     11  C   UNL     1       3.079  -0.460   0.000  0.00  0.00    +0.000 A 
ATOM     12  C   UNL     1       1.650  -0.460   0.000  0.00  0.00    +0.000 A 
ATOM     13  C   UNL     1       2.365  -1.698   0.000  0.00  0.00    +0.000 A 
ATOM     14  C   UNL     1       3.079  -1.285   0.000  0.00  0.00    +0.000 A 
ATOM     15  C   UNL     1       1.650  -1.285   0.000  0.00  0.00    +0.000 A 
BRANCH  13  16
ATOM     16  S   UNL     1       2.365  -2.523   0.000  0.00  0.00    +0.000 S 
ATOM     17  C   UNL     1       1.650  -2.935   0.000  0.00  0.00    +0.000 C 
ENDBRANCH  13  16
ENDBRANCH   2  10
TORSDOF 3
