REMARK  Name = 
REMARK  3 active torsions:
REMARK  status: ('A' for Active; 'I' for Inactive)
REMARK    1  A    between atoms: C_2  and  C_3
REMARK    2  A    between atoms: C_2  and  C_6
REMARK    3  A    between atoms: C_3  and  S_4
REMARK                            x       y       z     vdW  Elec       q    Type
REMARK                         _______ _______ _______ _____ _____    ______ ____
ROOT
ATOM      1  N   UNK     1       1.952   1.952   0.000  0.00  0.00    +0.000 NA
ATOM      2  C   UNK     1       1.952   1.127   0.000  0.00  0.00    +0.000 C 
ENDROOT
BRANCH   2   3
ATOM      3  C   UNK     1       2.666   0.715   0.000  0.00  0.00    +0.000 C 
ATOM      4  O   UNK     1       3.381   1.127   0.000  0.00  0.00    +0.000 OA
ATOM      5  O   UNK     1       2.666  -0.111   0.000  0.00  0.00    +0.000 OA
ENDBRANCH   2   3
BRANCH   2   6
ATOM      6  C   UNK     1       1.238   0.715   0.000  0.00  0.00    +0.000 C 
BRANCH   6   7
ATOM      7  S   UNK     1       0.523   1.127   0.000  0.00  0.00    +0.000 S 
ATOM      8  O   UNK     1      -0.191   0.715   0.000  0.00  0.00    +0.000 OA
ENDBRANCH   6   7
ENDBRANCH   2   6
TORSDOF 3
