REMARK  Name = 
REMARK  4 active torsions:
REMARK  status: ('A' for Active; 'I' for Inactive)
REMARK    1  A    between atoms: C_2  and  O_4
REMARK    2  A    between atoms: O_4  and  P_5
REMARK    3  A    between atoms: P_5  and  O_7
REMARK    4  A    between atoms: O_7  and  C_8
REMARK                            x       y       z     vdW  Elec       q    Type
REMARK                         _______ _______ _______ _____ _____    ______ ____
ROOT
ATOM      1  P   UNL     1       3.904   1.429   0.000  0.00  0.00    +0.000 P 
ATOM      2  O   UNL     1       3.904   0.604   0.000  0.00  0.00    +0.000 OA
ENDROOT
BRANCH   1   3
ATOM      3  O   UNL     1       3.189   1.841   0.000  0.00  0.00    +0.000 OA
BRANCH   3   5
ATOM      4  C   UNL     1       1.760   1.841   0.000  0.00  0.00    +0.000 C 
ATOM      5  C   UNL     1       2.475   1.429   0.000  0.00  0.00    +0.000 C 
ATOM      6  C   UNL     1       2.475   0.604   0.000  0.00  0.00    +0.000 C 
ENDBRANCH   3   5
ENDBRANCH   1   3
BRANCH   1   7
ATOM      7  O   UNL     1       4.618   1.841   0.000  0.00  0.00    +0.000 OA
BRANCH   7   8
ATOM      8  C   UNL     1       5.333   1.429   0.000  0.00  0.00    +0.000 C 
ATOM      9  C   UNL     1       6.047   1.841   0.000  0.00  0.00    +0.000 C 
ATOM     10  C   UNL     1       5.333   0.604   0.000  0.00  0.00    +0.000 C 
ENDBRANCH   7   8
ENDBRANCH   1   7
TORSDOF 4
