REMARK  Name = 
REMARK  6 active torsions:
REMARK  status: ('A' for Active; 'I' for Inactive)
REMARK    1  A    between atoms: C_1  and  C_7
REMARK    2  A    between atoms: C_2  and  C_8
REMARK    3  A    between atoms: C_3  and  C_9
REMARK    4  A    between atoms: C_4  and  C_10
REMARK    5  A    between atoms: C_5  and  C_11
REMARK    6  A    between atoms: C_6  and  C_12
REMARK                            x       y       z     vdW  Elec       q    Type
REMARK                         _______ _______ _______ _____ _____    ______ ____
ROOT
ATOM      1  C   UNL     1      11.889   4.300   0.000  0.00  0.00    +0.000 C 
ATOM      2  C   UNL     1      12.816   1.025   0.000  0.00  0.00    +0.000 C 
ATOM      3  C   UNL     1       8.829   2.643   0.000  0.00  0.00    +0.000 C 
ATOM      4  C   UNL     1      11.882  -1.277   0.000  0.00  0.00    +0.000 C 
ATOM      5  C   UNL     1       6.457   0.202   0.000  0.00  0.00    +0.000 C 
ATOM      6  C   UNL     1       8.823  -2.934   0.000  0.00  0.00    +0.000 C 
ATOM      7  C   UNL     1      11.290   2.985   0.000  0.00  0.00    +0.000 C 
ATOM      8  C   UNL     1       7.989   3.819   0.000  0.00  0.00    +0.000 C 
ATOM      9  C   UNL     1      14.255   1.164   0.000  0.00  0.00    +0.000 C 
ATOM     10  C   UNL     1       7.895   0.341   0.000  0.00  0.00    +0.000 C 
ATOM     11  C   UNL     1      12.722  -2.453   0.000  0.00  0.00    +0.000 C 
ATOM     12  C   UNL     1       9.421  -1.619   0.000  0.00  0.00    +0.000 C 
ATOM     13  C   UNL     1      12.050   2.642   0.000  0.00  0.00    +0.000 C 
ATOM     14  C   UNL     1       8.652   4.315   0.000  0.00  0.00    +0.000 C 
ATOM     15  C   UNL     1      14.353   0.343   0.000  0.00  0.00    +0.000 C 
ATOM     16  C   UNL     1       7.812   1.171   0.000  0.00  0.00    +0.000 C 
ATOM     17  C   UNL     1      12.060  -2.949   0.000  0.00  0.00    +0.000 C 
ATOM     18  C   UNL     1       8.662  -1.276   0.000  0.00  0.00    +0.000 C 
ATOM     19  C   UNL     1      11.182   3.823   0.000  0.00  0.00    +0.000 C 
ATOM     20  C   UNL     1      13.488   1.537   0.000  0.00  0.00    +0.000 C 
ATOM     21  C   UNL     1       8.050   2.969   0.000  0.00  0.00    +0.000 C 
ATOM     22  C   UNL     1      12.662  -1.603   0.000  0.00  0.00    +0.000 C 
ATOM     23  C   UNL     1       7.223  -0.171   0.000  0.00  0.00    +0.000 C 
ATOM     24  C   UNL     1       9.529  -2.457   0.000  0.00  0.00    +0.000 C 
ATOM     25  C   UNL     1      12.738   3.111   0.000  0.00  0.00    +0.000 C 
ATOM     26  C   UNL     1       9.444   3.961   0.000  0.00  0.00    +0.000 C 
ATOM     27  C   UNL     1      13.650  -0.166   0.000  0.00  0.00    +0.000 C 
ATOM     28  C   UNL     1       7.061   1.532   0.000  0.00  0.00    +0.000 C 
ATOM     29  C   UNL     1      11.267  -2.595   0.000  0.00  0.00    +0.000 C 
ATOM     30  C   UNL     1       7.973  -1.745   0.000  0.00  0.00    +0.000 C 
ATOM     31  O   UNL     1      10.627   2.494   0.000  0.00  0.00    +0.000 OA
ATOM     32  O   UNL     1       7.239   4.162   0.000  0.00  0.00    +0.000 OA
ATOM     33  O   UNL     1      14.927   1.642   0.000  0.00  0.00    +0.000 OA
ATOM     34  O   UNL     1       8.652   0.012   0.000  0.00  0.00    +0.000 OA
ATOM     35  O   UNL     1      13.472  -2.796   0.000  0.00  0.00    +0.000 OA
ATOM     36  O   UNL     1      10.085  -1.128   0.000  0.00  0.00    +0.000 OA
ATOM     37  O   UNL     1      12.121   1.820   0.000  0.00  0.00    +0.000 OA
ATOM     38  O   UNL     1       8.560   5.135   0.000  0.00  0.00    +0.000 OA
ATOM     39  O   UNL     1      15.109   0.012   0.000  0.00  0.00    +0.000 OA
ATOM     40  O   UNL     1       8.488   1.644   0.000  0.00  0.00    +0.000 OA
ATOM     41  O   UNL     1      12.151  -3.769   0.000  0.00  0.00    +0.000 OA
ATOM     42  O   UNL     1       8.590  -0.454   0.000  0.00  0.00    +0.000 OA
ATOM     43  O   UNL     1      12.649   3.975   0.000  0.00  0.00    +0.000 OA
ATOM     44  O   UNL     1       9.506   3.129   0.000  0.00  0.00    +0.000 OA
ATOM     45  O   UNL     1      12.899   0.195   0.000  0.00  0.00    +0.000 OA
ATOM     46  O   UNL     1       6.358   1.023   0.000  0.00  0.00    +0.000 OA
ATOM     47  O   UNL     1      11.205  -1.764   0.000  0.00  0.00    +0.000 OA
ATOM     48  O   UNL     1       8.062  -2.609   0.000  0.00  0.00    +0.000 OA
ATOM     49  O   UNL     1      10.313   3.970   0.000  0.00  0.00    +0.000 OA
ATOM     50  O   UNL     1      13.181   2.363   0.000  0.00  0.00    +0.000 OA
ATOM     51  O   UNL     1       7.487   2.290   0.000  0.00  0.00    +0.000 OA
ATOM     52  O   UNL     1      13.224  -0.924   0.000  0.00  0.00    +0.000 OA
ATOM     53  O   UNL     1       7.530  -0.998   0.000  0.00  0.00    +0.000 OA
ATOM     54  O   UNL     1      10.398  -2.604   0.000  0.00  0.00    +0.000 OA
ENDROOT
BRANCH   2  55
ATOM     55  C   UNL     1      12.059   1.353   0.000  0.00  0.00    +0.000 C 
ATOM     56  O   UNL     1      11.396   0.863   0.000  0.00  0.00    +0.000 OA
ENDBRANCH   2  55
BRANCH   3  57
ATOM     57  C   UNL     1       8.923   1.823   0.000  0.00  0.00    +0.000 C 
ATOM     58  O   UNL     1       9.680   1.494   0.000  0.00  0.00    +0.000 OA
ENDBRANCH   3  57
BRANCH   1  59
ATOM     59  C   UNL     1      11.810   5.122   0.000  0.00  0.00    +0.000 C 
ATOM     60  O   UNL     1      12.483   5.600   0.000  0.00  0.00    +0.000 OA
ENDBRANCH   1  59
BRANCH   5  61
ATOM     61  C   UNL     1       5.784  -0.276   0.000  0.00  0.00    +0.000 C 
ATOM     62  O   UNL     1       5.034   0.067   0.000  0.00  0.00    +0.000 OA
ENDBRANCH   5  61
BRANCH   6  63
ATOM     63  C   UNL     1       8.901  -3.756   0.000  0.00  0.00    +0.000 C 
ATOM     64  O   UNL     1       9.651  -4.099   0.000  0.00  0.00    +0.000 OA
ENDBRANCH   6  63
BRANCH   4  65
ATOM     65  C   UNL     1      11.788  -0.457   0.000  0.00  0.00    +0.000 C 
ATOM     66  O   UNL     1      11.032  -0.129   0.000  0.00  0.00    +0.000 OA
ENDBRANCH   4  65
TORSDOF 6
