REMARK  Name = 
REMARK  18 active torsions:
REMARK  status: ('A' for Active; 'I' for Inactive)
REMARK    1  A    between atoms: S_1  and  N_8
REMARK    2  A    between atoms: O_3  and  C_17
REMARK    3  A    between atoms: O_3  and  C_31
REMARK    4  A    between atoms: N_7  and  C_9
REMARK    5  A    between atoms: N_7  and  C_10
REMARK    6  A    between atoms: N_7  and  C_11
REMARK    7  A    between atoms: N_8  and  C_30
REMARK    8  A    between atoms: C_9  and  C_12
REMARK    9  A    between atoms: C_10  and  C_13
REMARK   10  A    between atoms: C_11  and  C_14
REMARK   11  A    between atoms: C_12  and  C_15
REMARK   12  A    between atoms: C_13  and  C_16
REMARK   13  A    between atoms: C_14  and  C_17
REMARK   14  A    between atoms: C_18  and  C_20
REMARK   15  A    between atoms: C_19  and  C_26
REMARK   16  A    between atoms: C_20  and  C_22
REMARK   17  A    between atoms: C_22  and  C_27
REMARK   18  A    between atoms: C_26  and  C_29
REMARK                            x       y       z     vdW  Elec       q    Type
REMARK                         _______ _______ _______ _____ _____    ______ ____
ROOT
ATOM      1  O   UNL     1       5.708  -0.196   0.000  0.00  0.00    +0.000 OA
ATOM      2  C   UNL     1       6.259  -0.810   0.000  0.00  0.00    +0.000 C 
ENDROOT
BRANCH   2   5
ATOM      3  O   UNL     1       6.003  -2.922   0.000  0.00  0.00    +0.000 OA
ATOM      4  C   UNL     1       6.485  -2.259   0.000  0.00  0.00    +0.000 A 
ATOM      5  C   UNL     1       6.003  -1.595   0.000  0.00  0.00    +0.000 A 
ATOM      6  C   UNL     1       5.222  -1.846   0.000  0.00  0.00    +0.000 A 
ATOM      7  C   UNL     1       5.222  -2.671   0.000  0.00  0.00    +0.000 A 
ATOM      8  C   UNL     1       4.508  -1.433   0.000  0.00  0.00    +0.000 A 
ATOM      9  C   UNL     1       3.793  -1.846   0.000  0.00  0.00    +0.000 A 
ATOM     10  C   UNL     1       4.508  -3.083   0.000  0.00  0.00    +0.000 A 
ATOM     11  C   UNL     1       3.793  -2.671   0.000  0.00  0.00    +0.000 A 
BRANCH   9  12
ATOM     12  N   UNL     1       3.079  -1.433   0.000  0.00  0.00    +0.000 NA
BRANCH  12  13
ATOM     13  S   UNL     1       2.365  -1.846   0.000  0.00  0.00    +0.000 S 
ATOM     14  O   UNL     1       2.777  -2.560   0.000  0.00  0.00    +0.000 OA
ATOM     15  O   UNL     1       1.952  -1.131   0.000  0.00  0.00    +0.000 OA
ATOM     16  C   UNL     1       1.650  -2.259   0.000  0.00  0.00    +0.000 C 
ENDBRANCH  12  13
ENDBRANCH   9  12
BRANCH   4  17
ATOM     17  C   UNL     1       7.310  -2.259   0.000  0.00  0.00    +0.000 C 
BRANCH  17  18
ATOM     18  C   UNL     1       7.722  -2.973   0.000  0.00  0.00    +0.000 C 
BRANCH  18  19
ATOM     19  C   UNL     1       8.547  -2.973   0.000  0.00  0.00    +0.000 C 
ATOM     20  C   UNL     1       8.960  -3.688   0.000  0.00  0.00    +0.000 C 
ENDBRANCH  18  19
ENDBRANCH  17  18
ENDBRANCH   4  17
ENDBRANCH   2   5
BRANCH   2  21
ATOM     21  C   UNL     1       7.067  -0.640   0.000  0.00  0.00    +0.000 A 
ATOM     22  C   UNL     1       8.681  -0.300   0.000  0.00  0.00    +0.000 A 
ATOM     23  C   UNL     1       7.323   0.144   0.000  0.00  0.00    +0.000 A 
ATOM     24  C   UNL     1       7.618  -1.254   0.000  0.00  0.00    +0.000 A 
ATOM     25  C   UNL     1       8.130   0.314   0.000  0.00  0.00    +0.000 A 
ATOM     26  C   UNL     1       8.425  -1.084   0.000  0.00  0.00    +0.000 A 
BRANCH  22  27
ATOM     27  O   UNL     1       9.489  -0.130   0.000  0.00  0.00    +0.000 OA
BRANCH  27  28
ATOM     28  C   UNL     1       9.745   0.654   0.000  0.00  0.00    +0.000 C 
BRANCH  28  29
ATOM     29  C   UNL     1      10.552   0.825   0.000  0.00  0.00    +0.000 C 
BRANCH  29  30
ATOM     30  C   UNL     1      10.809   1.609   0.000  0.00  0.00    +0.000 C 
BRANCH  30  31
ATOM     31  N   UNL     1      11.616   1.779   0.000  0.00  0.00    +0.000 NA
BRANCH  31  32
ATOM     32  C   UNL     1      12.167   1.165   0.000  0.00  0.00    +0.000 C 
BRANCH  32  33
ATOM     33  C   UNL     1      12.974   1.335   0.000  0.00  0.00    +0.000 C 
BRANCH  33  34
ATOM     34  C   UNL     1      13.525   0.721   0.000  0.00  0.00    +0.000 C 
ATOM     35  C   UNL     1      14.332   0.891   0.000  0.00  0.00    +0.000 C 
ENDBRANCH  33  34
ENDBRANCH  32  33
ENDBRANCH  31  32
BRANCH  31  36
ATOM     36  C   UNL     1      11.872   2.563   0.000  0.00  0.00    +0.000 C 
BRANCH  36  37
ATOM     37  C   UNL     1      12.679   2.733   0.000  0.00  0.00    +0.000 C 
BRANCH  37  38
ATOM     38  C   UNL     1      12.936   3.517   0.000  0.00  0.00    +0.000 C 
ATOM     39  C   UNL     1      13.743   3.688   0.000  0.00  0.00    +0.000 C 
ENDBRANCH  37  38
ENDBRANCH  36  37
ENDBRANCH  31  36
ENDBRANCH  30  31
ENDBRANCH  29  30
ENDBRANCH  28  29
ENDBRANCH  27  28
ENDBRANCH  22  27
ENDBRANCH   2  21
TORSDOF 18
