REMARK  Name = 
REMARK  2 active torsions:
REMARK  status: ('A' for Active; 'I' for Inactive)
REMARK    1  A    between atoms: C_1  and  C_2
REMARK    2  A    between atoms: C_2  and  C_5
REMARK                            x       y       z     vdW  Elec       q    Type
REMARK                         _______ _______ _______ _____ _____    ______ ____
ROOT
ATOM      1  C   UNL     1       9.355  -8.752   0.000  0.00  0.00    +0.000 A 
ATOM      2  C   UNL     1       8.644  -9.162   0.000  0.00  0.00    +0.000 A 
ATOM      3  C   UNL     1      10.071  -9.162   0.000  0.00  0.00    +0.000 A 
ATOM      4  C   UNL     1       8.644  -9.991   0.000  0.00  0.00    +0.000 A 
ATOM      5  C   UNL     1      10.071  -9.991   0.000  0.00  0.00    +0.000 A 
ATOM      6  C   UNL     1       9.355 -10.408   0.000  0.00  0.00    +0.000 A 
ENDROOT
BRANCH   1   7
ATOM      7  C   UNL     1       9.352  -7.931   0.000  0.00  0.00    +0.000 C 
ATOM      8  O   UNL     1       8.599  -7.483   0.000  0.00  0.00    +0.000 OA
BRANCH   7   9
ATOM      9  C   UNL     1      10.060  -7.520   0.000  0.00  0.00    +0.000 C 
ATOM     10  O   UNL     1      10.772  -7.927   0.000  0.00  0.00    +0.000 OA
ATOM     11  O   UNL     1      10.056  -6.703   0.000  0.00  0.00    +0.000 OA
ENDBRANCH   7   9
ENDBRANCH   1   7
TORSDOF 2
