REMARK  Name = 
REMARK  5 active torsions:
REMARK  status: ('A' for Active; 'I' for Inactive)
REMARK    1  A    between atoms: C_24  and  C_25
REMARK    2  A    between atoms: C_24  and  O_30
REMARK    3  A    between atoms: C_25  and  C_26
REMARK    4  A    between atoms: O_30  and  C_31
REMARK    5  A    between atoms: C_31  and  C_32
REMARK                            x       y       z     vdW  Elec       q    Type
REMARK                         _______ _______ _______ _____ _____    ______ ____
ROOT
ATOM      1  C   UNL     1       8.335  -4.383   0.000  0.00  0.00    +0.000 C 
ATOM      2  C   UNL     1       8.335  -5.208   0.000  0.00  0.00    +0.000 C 
ATOM      3  C   UNL     1       7.640  -3.948   0.000  0.00  0.00    +0.000 C 
ATOM      4  C   UNL     1       8.335  -3.558   0.000  0.00  0.00    +0.000 C 
ATOM      5  C   UNL     1       7.640  -5.642   0.000  0.00  0.00    +0.000 C 
ATOM      6  C   UNL     1       6.902  -4.383   0.000  0.00  0.00    +0.000 C 
ATOM      7  C   UNL     1       6.902  -5.208   0.000  0.00  0.00    +0.000 C 
ATOM      8  C   UNL     1       7.640  -6.467   0.000  0.00  0.00    +0.000 C 
ATOM      9  O   UNL     1       6.164  -3.948   0.000  0.00  0.00    +0.000 OA
ATOM     10  C   UNL     1       6.164  -5.642   0.000  0.00  0.00    +0.000 C 
ATOM     11  F   UNL     1       6.902  -6.076   0.000  0.00  0.00    +0.000 F 
ATOM     12  C   UNL     1       6.902  -6.901   0.000  0.00  0.00    +0.000 C 
ATOM     13  C   UNL     1       6.164  -6.467   0.000  0.00  0.00    +0.000 C 
ATOM     14  C   UNL     1       5.425  -5.208   0.000  0.00  0.00    +0.000 C 
ATOM     15  C   UNL     1       6.164  -4.817   0.000  0.00  0.00    +0.000 C 
ATOM     16  C   UNL     1       5.425  -6.901   0.000  0.00  0.00    +0.000 C 
ATOM     17  C   UNL     1       4.731  -5.642   0.000  0.00  0.00    +0.000 C 
ATOM     18  C   UNL     1       4.731  -6.467   0.000  0.00  0.00    +0.000 C 
ATOM     19  O   UNL     1       3.993  -6.901   0.000  0.00  0.00    +0.000 OA
ATOM     20  C   UNL     1       9.119  -5.463   0.000  0.00  0.00    +0.000 C 
ATOM     21  C   UNL     1       9.604  -4.795   0.000  0.00  0.00    +0.000 C 
ATOM     22  C   UNL     1       9.119  -4.128   0.000  0.00  0.00    +0.000 C 
ATOM     23  C   UNL     1      10.429  -4.795   0.000  0.00  0.00    +0.000 C 
ENDROOT
BRANCH  22  24
ATOM     24  C   UNL     1       9.115  -3.300   0.000  0.00  0.00    +0.000 C 
ATOM     25  O   UNL     1       8.398  -2.891   0.000  0.00  0.00    +0.000 OA
BRANCH  24  26
ATOM     26  C   UNL     1       9.827  -2.884   0.000  0.00  0.00    +0.000 C 
ATOM     27 CL   UNL     1       9.822  -2.059   0.000  0.00  0.00    +0.000 Cl
ENDBRANCH  24  26
ENDBRANCH  22  24
BRANCH  22  28
ATOM     28  O   UNL     1       9.910  -4.334   0.000  0.00  0.00    +0.000 OA
BRANCH  28  29
ATOM     29  C   UNL     1      10.626  -3.926   0.000  0.00  0.00    +0.000 C 
ATOM     30  O   UNL     1      10.630  -3.101   0.000  0.00  0.00    +0.000 OA
BRANCH  29  31
ATOM     31  C   UNL     1      11.338  -4.343   0.000  0.00  0.00    +0.000 C 
ATOM     32  C   UNL     1      12.055  -3.935   0.000  0.00  0.00    +0.000 C 
ENDBRANCH  29  31
ENDBRANCH  28  29
ENDBRANCH  22  28
TORSDOF 5
