REMARK  Name = 
REMARK  0 active torsions:
REMARK  status: ('A' for Active; 'I' for Inactive)
REMARK                            x       y       z     vdW  Elec       q    Type
REMARK                         _______ _______ _______ _____ _____    ______ ____
ROOT
ATOM      1 AL   UNL     1       0.000   0.000   0.000  0.00  0.00    +0.000 Al
ENDROOT
TORSDOF 0
REMARK  Name = 
REMARK  0 active torsions:
REMARK  status: ('A' for Active; 'I' for Inactive)
REMARK                            x       y       z     vdW  Elec       q    Type
REMARK                         _______ _______ _______ _____ _____    ______ ____
ROOT
ATOM      1  K   UNL     1       0.884   0.000   0.000  0.00  0.00    +0.000 K 
ENDROOT
TORSDOF 0
REMARK  Name = 
REMARK  0 active torsions:
REMARK  status: ('A' for Active; 'I' for Inactive)
REMARK                            x       y       z     vdW  Elec       q    Type
REMARK                         _______ _______ _______ _____ _____    ______ ____
ROOT
ATOM      1  O   UNL     1       0.000  -3.300   0.000  0.00  0.00    +0.000 OA
ATOM      2  S   UNL     1       0.000  -2.475   0.000  0.00  0.00    +0.000 S 
ATOM      3  O   UNL     1       0.000  -1.650   0.000  0.00  0.00    +0.000 OA
ATOM      4  O   UNL     1       0.825  -2.475   0.000  0.00  0.00    +0.000 OA
ATOM      5  O   UNL     1      -0.825  -2.475   0.000  0.00  0.00    +0.000 OA
ENDROOT
TORSDOF 0
REMARK  Name = 
REMARK  0 active torsions:
REMARK  status: ('A' for Active; 'I' for Inactive)
REMARK                            x       y       z     vdW  Elec       q    Type
REMARK                         _______ _______ _______ _____ _____    ______ ____
ROOT
ATOM      1  O   UNL     1       3.654  -3.300   0.000  0.00  0.00    +0.000 OA
ATOM      2  S   UNL     1       3.654  -2.475   0.000  0.00  0.00    +0.000 S 
ATOM      3  O   UNL     1       3.654  -1.650   0.000  0.00  0.00    +0.000 OA
ATOM      4  O   UNL     1       4.479  -2.475   0.000  0.00  0.00    +0.000 OA
ATOM      5  O   UNL     1       2.829  -2.475   0.000  0.00  0.00    +0.000 OA
ENDROOT
TORSDOF 0
