REMARK  Name = 
REMARK  2 active torsions:
REMARK  status: ('A' for Active; 'I' for Inactive)
REMARK    1  A    between atoms: C_2  and  C_3
REMARK    2  A    between atoms: C_2  and  C_8
REMARK                            x       y       z     vdW  Elec       q    Type
REMARK                         _______ _______ _______ _____ _____    ______ ____
ROOT
ATOM      1  C   UNL     1       2.751  -0.062   0.000  0.00  0.00    +0.000 A 
ATOM      2  C   UNL     1       2.751   0.763   0.000  0.00  0.00    +0.000 A 
ATOM      3  C   UNL     1       3.466   1.176   0.000  0.00  0.00    +0.000 A 
ATOM      4  C   UNL     1       4.180   0.763   0.000  0.00  0.00    +0.000 A 
ATOM      5  C   UNL     1       4.180  -0.062   0.000  0.00  0.00    +0.000 A 
ATOM      6  C   UNL     1       4.895  -0.474   0.000  0.00  0.00    +0.000 C 
ATOM      7  C   UNL     1       3.466  -0.474   0.000  0.00  0.00    +0.000 A 
ATOM      8  C   UNL     1       3.466  -1.299   0.000  0.00  0.00    +0.000 C 
ENDROOT
BRANCH   1  10
ATOM      9  C   UNL     1       1.322  -0.062   0.000  0.00  0.00    +0.000 C 
ATOM     10  C   UNL     1       2.037  -0.474   0.000  0.00  0.00    +0.000 C 
BRANCH  10  11
ATOM     11  C   UNL     1       2.037  -1.299   0.000  0.00  0.00    +0.000 A 
ATOM     12  C   UNL     1       2.704  -1.784   0.000  0.00  0.00    +0.000 A 
ATOM     13  N   UNL     1       2.449  -2.569   0.000  0.00  0.00    +0.000 NA
ATOM     14  C   UNL     1       1.624  -2.569   0.000  0.00  0.00    +0.000 A 
ATOM     15  N   UNL     1       1.369  -1.784   0.000  0.00  0.00    +0.000 NA
ENDBRANCH  10  11
ENDBRANCH   1  10
TORSDOF 2
