REMARK  Name = 
REMARK  2 active torsions:
REMARK  status: ('A' for Active; 'I' for Inactive)
REMARK    1  A    between atoms: O_1  and  C_2
REMARK    2  A    between atoms: O_1  and  C_3
REMARK                            x       y       z     vdW  Elec       q    Type
REMARK                         _______ _______ _______ _____ _____    ______ ____
ROOT
ATOM      1  O   UNL     1       3.817  -0.767   0.000  0.00  0.00    +0.000 OA
ENDROOT
BRANCH   1   2
ATOM      2  C   UNL     1       3.104  -1.179   0.000  0.00  0.00    +0.000 A 
ATOM      3  C   UNL     1       2.379  -0.767   0.000  0.00  0.00    +0.000 A 
ATOM      4  C   UNL     1       1.675  -1.188   0.000  0.00  0.00    +0.000 A 
ATOM      5  C   UNL     1       3.104  -2.013   0.000  0.00  0.00    +0.000 A 
ATOM      6  C   UNL     1       1.675  -2.013   0.000  0.00  0.00    +0.000 A 
ATOM      7 CL   UNL     1       2.379   0.058   0.000  0.00  0.00    +0.000 Cl
ATOM      8  C   UNL     1       2.379  -2.425   0.000  0.00  0.00    +0.000 A 
ATOM      9 CL   UNL     1       0.954  -2.425   0.000  0.00  0.00    +0.000 Cl
ENDBRANCH   1   2
BRANCH   1  10
ATOM     10  C   UNL     1       4.529  -1.175   0.000  0.00  0.00    +0.000 A 
ATOM     11  C   UNL     1       5.237  -0.754   0.000  0.00  0.00    +0.000 A 
ATOM     12  C   UNL     1       5.954  -1.163   0.000  0.00  0.00    +0.000 A 
ATOM     13  C   UNL     1       4.529  -2.000   0.000  0.00  0.00    +0.000 A 
ATOM     14  C   UNL     1       5.963  -1.992   0.000  0.00  0.00    +0.000 A 
ATOM     15  O   UNL     1       5.229   0.062   0.000  0.00  0.00    +0.000 OA
ATOM     16  C   UNL     1       5.242  -2.404   0.000  0.00  0.00    +0.000 A 
ATOM     17 CL   UNL     1       6.679  -2.404   0.000  0.00  0.00    +0.000 Cl
ENDBRANCH   1  10
TORSDOF 2
