REMARK  Name = 
REMARK  8 active torsions:
REMARK  status: ('A' for Active; 'I' for Inactive)
REMARK    1  A    between atoms: C_5  and  C_6
REMARK    2  A    between atoms: C_6  and  C_7
REMARK    3  A    between atoms: C_7  and  N_8
REMARK    4  A    between atoms: C_11  and  S_12
REMARK    5  A    between atoms: S_12  and  C_13
REMARK    6  A    between atoms: C_13  and  C_14
REMARK    7  A    between atoms: C_14  and  C_15
REMARK    8  A    between atoms: C_15  and  C_16
REMARK                            x       y       z     vdW  Elec       q    Type
REMARK                         _______ _______ _______ _____ _____    ______ ____
ROOT
ATOM      1  N   UNL     1       4.287  -4.950   0.000  0.00  0.00    +0.000 NA
ATOM      2  C   UNL     1       3.572  -5.362   0.000  0.00  0.00    +0.000 A 
ATOM      3  N   UNL     1       3.572  -6.188   0.000  0.00  0.00    +0.000 NA
ATOM      4  C   UNL     1       2.858  -6.600   0.000  0.00  0.00    +0.000 A 
ATOM      5  N   UNL     1       2.143  -6.188   0.000  0.00  0.00    +0.000 NA
ATOM      6  C   UNL     1       2.143  -5.362   0.000  0.00  0.00    +0.000 A 
ATOM      7  N   UNL     1       2.858  -4.950   0.000  0.00  0.00    +0.000 NA
ATOM      8  N   UNL     1       1.429  -4.950   0.000  0.00  0.00    +0.000 N 
ATOM      9  C   UNL     1       0.715  -5.362   0.000  0.00  0.00    +0.000 C 
ATOM     10  C   UNL     1       0.000  -4.950   0.000  0.00  0.00    +0.000 C 
ATOM     11  N   UNL     1       0.000  -4.125   0.000  0.00  0.00    +0.000 NA
ATOM     12  C   UNL     1       0.715  -3.712   0.000  0.00  0.00    +0.000 C 
ATOM     13  C   UNL     1       1.429  -4.125   0.000  0.00  0.00    +0.000 C 
ENDROOT
BRANCH   1  14
ATOM     14  C   UNL     1       4.287  -4.125   0.000  0.00  0.00    +0.000 C 
BRANCH  14  15
ATOM     15  C   UNL     1       5.001  -3.712   0.000  0.00  0.00    +0.000 C 
BRANCH  15  20
ATOM     16  O   UNL     1       5.001  -0.412   0.000  0.00  0.00    +0.000 OA
ATOM     17  C   UNL     1       5.001  -1.238   0.000  0.00  0.00    +0.000 A 
ATOM     18  C   UNL     1       5.716  -1.650   0.000  0.00  0.00    +0.000 A 
ATOM     19  C   UNL     1       5.716  -2.475   0.000  0.00  0.00    +0.000 A 
ATOM     20  C   UNL     1       5.001  -2.888   0.000  0.00  0.00    +0.000 A 
ATOM     21  C   UNL     1       4.287  -2.475   0.000  0.00  0.00    +0.000 A 
ATOM     22  C   UNL     1       4.287  -1.650   0.000  0.00  0.00    +0.000 A 
ENDBRANCH  15  20
ENDBRANCH  14  15
ENDBRANCH   1  14
BRANCH   4  23
ATOM     23  S   UNL     1       2.858  -7.425   0.000  0.00  0.00    +0.000 S 
BRANCH  23  24
ATOM     24  C   UNL     1       3.572  -7.838   0.000  0.00  0.00    +0.000 C 
BRANCH  24  25
ATOM     25  C   UNL     1       3.572  -8.662   0.000  0.00  0.00    +0.000 C 
BRANCH  25  26
ATOM     26  C   UNL     1       4.287  -9.075   0.000  0.00  0.00    +0.000 C 
BRANCH  26  27
ATOM     27  C   UNL     1       4.287  -9.900   0.000  0.00  0.00    +0.000 A 
ATOM     28  C   UNL     1       5.001 -10.312   0.000  0.00  0.00    +0.000 A 
ATOM     29  C   UNL     1       5.001 -11.137   0.000  0.00  0.00    +0.000 A 
ATOM     30  C   UNL     1       4.287 -11.550   0.000  0.00  0.00    +0.000 A 
ATOM     31 CL   UNL     1       4.287 -12.375   0.000  0.00  0.00    +0.000 Cl
ATOM     32  C   UNL     1       3.572 -11.137   0.000  0.00  0.00    +0.000 A 
ATOM     33  C   UNL     1       3.572 -10.312   0.000  0.00  0.00    +0.000 A 
ENDBRANCH  26  27
ENDBRANCH  25  26
ENDBRANCH  24  25
ENDBRANCH  23  24
ENDBRANCH   4  23
TORSDOF 8
