REMARK  Name = 
REMARK  11 active torsions:
REMARK  status: ('A' for Active; 'I' for Inactive)
REMARK    1  A    between atoms: C_5  and  C_7
REMARK    2  A    between atoms: C_5  and  C_8
REMARK    3  A    between atoms: C_6  and  C_9
REMARK    4  A    between atoms: C_6  and  C_10
REMARK    5  A    between atoms: C_8  and  C_14
REMARK    6  A    between atoms: C_10  and  C_15
REMARK    7  A    between atoms: C_11  and  C_12
REMARK    8  A    between atoms: C_12  and  S_24
REMARK    9  A    between atoms: O_21  and  P_22
REMARK   10  A    between atoms: O_21  and  P_23
REMARK   11  A    between atoms: P_23  and  S_24
REMARK                            x       y       z     vdW  Elec       q    Type
REMARK                         _______ _______ _______ _____ _____    ______ ____
ROOT
ATOM      1  C   UNL     1      -0.412   0.715   0.000  0.00  0.00    +0.000 C 
ATOM      2  C   UNL     1       0.825   0.000   0.000  0.00  0.00    +0.000 C 
ATOM      3  C   UNL     1       0.000   0.000   0.000  0.00  0.00    +0.000 C 
ENDROOT
BRANCH   3   4
ATOM      4  C   UNL     1      -0.412  -0.715   0.000  0.00  0.00    +0.000 C 
BRANCH   4   5
ATOM      5  C   UNL     1      -1.238  -0.715   0.000  0.00  0.00    +0.000 C 
BRANCH   5   7
ATOM      6  C   UNL     1      -2.888  -0.715   0.000  0.00  0.00    +0.000 C 
ATOM      7  C   UNL     1      -1.650  -1.429   0.000  0.00  0.00    +0.000 C 
ATOM      8  C   UNL     1      -2.475  -1.429   0.000  0.00  0.00    +0.000 C 
BRANCH   8   9
ATOM      9  C   UNL     1      -2.888  -2.143   0.000  0.00  0.00    +0.000 C 
BRANCH   9  10
ATOM     10  C   UNL     1      -3.712  -2.143   0.000  0.00  0.00    +0.000 C 
BRANCH  10  13
ATOM     11  C   UNL     1      -5.362  -3.572   0.000  0.00  0.00    +0.000 C 
ATOM     12  C   UNL     1      -5.362  -2.143   0.000  0.00  0.00    +0.000 C 
ATOM     13  C   UNL     1      -4.125  -2.858   0.000  0.00  0.00    +0.000 C 
ATOM     14  C   UNL     1      -4.950  -2.858   0.000  0.00  0.00    +0.000 C 
ENDBRANCH  10  13
ENDBRANCH   9  10
ENDBRANCH   8   9
ENDBRANCH   5   7
ENDBRANCH   4   5
ENDBRANCH   3   4
BRANCH   2  15
ATOM     15  C   UNL     1       1.238   0.715   0.000  0.00  0.00    +0.000 C 
BRANCH  15  16
ATOM     16  S   UNL     1       0.825   1.429   0.000  0.00  0.00    +0.000 S 
BRANCH  16  19
ATOM     17  O   UNL     1       1.952   1.731   0.000  0.00  0.00    +0.000 OA
ATOM     18  O   UNL     1       0.523   2.556   0.000  0.00  0.00    +0.000 OA
ATOM     19  P   UNL     1       1.238   2.143   0.000  0.00  0.00    +0.000 P 
BRANCH  19  20
ATOM     20  O   UNL     1       1.650   2.858   0.000  0.00  0.00    +0.000 OA
BRANCH  20  24
ATOM     21  O   UNL     1       0.825   4.287   0.000  0.00  0.00    +0.000 OA
ATOM     22  O   UNL     1       1.952   3.985   0.000  0.00  0.00    +0.000 OA
ATOM     23  O   UNL     1       0.523   3.160   0.000  0.00  0.00    +0.000 OA
ATOM     24  P   UNL     1       1.238   3.572   0.000  0.00  0.00    +0.000 P 
ENDBRANCH  20  24
ENDBRANCH  19  20
ENDBRANCH  16  19
ENDBRANCH  15  16
ENDBRANCH   2  15
TORSDOF 11
