REMARK  Name = 
REMARK  0 active torsions:
REMARK  status: ('A' for Active; 'I' for Inactive)
REMARK                            x       y       z     vdW  Elec       q    Type
REMARK                         _______ _______ _______ _____ _____    ______ ____
ROOT
ATOM      1 CL   UNL     1       4.067   2.348   0.000  0.00  0.00    +0.000 Cl
ATOM      2  C   UNL     1       3.352   1.935   0.000  0.00  0.00    +0.000 A 
ATOM      3  C   UNL     1       3.352   1.110   0.000  0.00  0.00    +0.000 A 
ATOM      4 CL   UNL     1       4.067   0.698   0.000  0.00  0.00    +0.000 Cl
ATOM      5  C   UNL     1       2.638   0.698   0.000  0.00  0.00    +0.000 A 
ATOM      6 CL   UNL     1       2.638  -0.127   0.000  0.00  0.00    +0.000 Cl
ATOM      7  C   UNL     1       1.923   1.110   0.000  0.00  0.00    +0.000 A 
ATOM      8  C   UNL     1       1.139   0.856   0.000  0.00  0.00    +0.000 C 
ATOM      9  O   UNL     1       0.884   0.071   0.000  0.00  0.00    +0.000 OA
ATOM     10  O   UNL     1       0.654   1.523   0.000  0.00  0.00    +0.000 OA
ATOM     11  C   UNL     1       1.139   2.190   0.000  0.00  0.00    +0.000 C 
ATOM     12  C   UNL     1       1.923   1.935   0.000  0.00  0.00    +0.000 A 
ATOM     13  C   UNL     1       2.638   2.348   0.000  0.00  0.00    +0.000 A 
ATOM     14 CL   UNL     1       2.638   3.173   0.000  0.00  0.00    +0.000 Cl
ENDROOT
TORSDOF 0
