REMARK  Name = 
REMARK  0 active torsions:
REMARK  status: ('A' for Active; 'I' for Inactive)
REMARK                            x       y       z     vdW  Elec       q    Type
REMARK                         _______ _______ _______ _____ _____    ______ ____
ROOT
ATOM      1  C   UNL     1       4.214   3.564   0.000  0.00  0.00    +0.000 C 
ATOM      2  C   UNL     1       5.496   1.797   0.000  0.00  0.00    +0.000 A 
ATOM      3  C   UNL     1       5.257   2.587   0.000  0.00  0.00    +0.000 A 
ATOM      4  C   UNL     1       4.932   1.195   0.000  0.00  0.00    +0.000 A 
ATOM      5  C   UNL     1       2.407   2.686   0.000  0.00  0.00    +0.000 A 
ATOM      6  C   UNL     1       4.453   2.774   0.000  0.00  0.00    +0.000 A 
ATOM      7  C   UNL     1       4.129   1.383   0.000  0.00  0.00    +0.000 A 
ATOM      8  C   UNL     1       3.889   2.172   0.000  0.00  0.00    +0.000 A 
ATOM      9  C   UNL     1       2.794   1.409   0.000  0.00  0.00    +0.000 A 
ATOM     10  N   UNL     1       1.730   2.215   0.000  0.00  0.00    +0.000 NA
ATOM     11  N   UNL     1       1.969   1.425   0.000  0.00  0.00    +0.000 NA
ATOM     12  N   UNL     1       3.064   2.188   0.000  0.00  0.00    +0.000 N 
ATOM     13  S   UNL     1       3.452   0.911   0.000  0.00  0.00    +0.000 S 
ENDROOT
TORSDOF 0
