REMARK  Name = 
REMARK  6 active torsions:
REMARK  status: ('A' for Active; 'I' for Inactive)
REMARK    1  A    between atoms: C_5  and  C_6
REMARK    2  A    between atoms: C_6  and  O_7
REMARK    3  A    between atoms: O_7  and  P_8
REMARK    4  A    between atoms: C_13  and  C_14
REMARK    5  A    between atoms: C_14  and  O_15
REMARK    6  A    between atoms: O_15  and  P_16
REMARK                            x       y       z     vdW  Elec       q    Type
REMARK                         _______ _______ _______ _____ _____    ______ ____
ROOT
ATOM      1  O   UNL     1       2.020   0.884   0.000  0.00  0.00    +0.000 OA
ATOM      2  C   UNL     1       1.235   0.629   0.000  0.00  0.00    +0.000 C 
ATOM      3  C   UNL     1       0.980  -0.155   0.000  0.00  0.00    +0.000 C 
ATOM      4  O   UNL     1       1.465  -0.823   0.000  0.00  0.00    +0.000 OA
ATOM      5  C   UNL     1       0.155  -0.155   0.000  0.00  0.00    +0.000 C 
ATOM      6  O   UNL     1      -0.100   0.629   0.000  0.00  0.00    +0.000 OA
ATOM      7  C   UNL     1       0.568   1.114   0.000  0.00  0.00    +0.000 C 
ENDROOT
BRANCH   5   8
ATOM      8  C   UNL     1      -0.330  -0.823   0.000  0.00  0.00    +0.000 C 
BRANCH   8   9
ATOM      9  O   UNL     1       0.006  -1.576   0.000  0.00  0.00    +0.000 OA
BRANCH   9  10
ATOM     10  P   UNL     1      -0.479  -2.244   0.000  0.00  0.00    +0.000 P 
ATOM     11  O   UNL     1      -0.964  -2.911   0.000  0.00  0.00    +0.000 OA
ATOM     12  O   UNL     1       0.188  -2.729   0.000  0.00  0.00    +0.000 OA
ATOM     13  O   UNL     1      -1.147  -1.759   0.000  0.00  0.00    +0.000 OA
ENDBRANCH   9  10
ENDBRANCH   8   9
ENDBRANCH   5   8
BRANCH   7  14
ATOM     14  C   UNL     1       0.568   1.939   0.000  0.00  0.00    +0.000 C 
BRANCH  14  15
ATOM     15  O   UNL     1       1.282   2.352   0.000  0.00  0.00    +0.000 OA
BRANCH  15  16
ATOM     16  P   UNL     1       1.282   3.177   0.000  0.00  0.00    +0.000 P 
ATOM     17  O   UNL     1       1.282   4.002   0.000  0.00  0.00    +0.000 OA
ATOM     18  O   UNL     1       2.107   3.177   0.000  0.00  0.00    +0.000 OA
ATOM     19  O   UNL     1       0.457   3.177   0.000  0.00  0.00    +0.000 OA
ENDBRANCH  15  16
ENDBRANCH  14  15
ENDBRANCH   7  14
TORSDOF 6
