REMARK  Name = 
REMARK  11 active torsions:
REMARK  status: ('A' for Active; 'I' for Inactive)
REMARK    1  A    between atoms: C_9  and  C_10
REMARK    2  A    between atoms: C_9  and  C_17
REMARK    3  A    between atoms: C_10  and  C_19
REMARK    4  A    between atoms: CA_11  and  C_20
REMARK    5  A    between atoms: CA_11  and  N_26
REMARK    6  A    between atoms: C_12  and  C_18
REMARK    7  A    between atoms: C_12  and  S_35
REMARK    8  A    between atoms: C_17  and  C_24
REMARK    9  A    between atoms: C_18  and  C_23
REMARK   10  A    between atoms: C_18  and  N_27
REMARK   11  A    between atoms: C_22  and  S_35
REMARK                            x       y       z     vdW  Elec       q    Type
REMARK                         _______ _______ _______ _____ _____    ______ ____
ROOT
ATOM      1  C   UNK A   1       6.256   5.281   0.000  0.00  0.00    +0.000 C 
ENDROOT
BRANCH   1   2
ATOM      2  C   UNK A   1       5.716   4.658   0.000  0.00  0.00    +0.000 C 
ATOM      3  N   GLY A   2       5.986   3.878   0.000  0.00  0.00    +0.000 NA
ATOM      4  O   UNK A   1       4.906   4.814   0.000  0.00  0.00    +0.000 OA
BRANCH   3   5
ATOM      5  CA  GLY A   2       5.446   3.255   0.000  0.00  0.00    +0.000 C 
BRANCH   5   6
ATOM      6  C   GLY A   2       5.716   2.475   0.000  0.00  0.00    +0.000 C 
ATOM      7  O   GLY A   2       6.526   2.319   0.000  0.00  0.00    +0.000 OA
ATOM      8  OXT GLY A   2       5.176   1.851   0.000  0.00  0.00    +0.000 OA
ENDBRANCH   5   6
ENDBRANCH   3   5
ENDBRANCH   1   2
BRANCH   1  10
ATOM      9  C   UNK A   1       7.336   4.346   0.000  0.00  0.00    +0.000 C 
ATOM     10  N   UNK A   1       7.066   5.125   0.000  0.00  0.00    +0.000 NA
ATOM     11  O   UNK A   1       6.796   3.722   0.000  0.00  0.00    +0.000 OA
BRANCH   9  12
ATOM     12  C   UNK A   1       8.146   4.190   0.000  0.00  0.00    +0.000 C 
BRANCH  12  13
ATOM     13  C   UNK A   1       8.416   3.410   0.000  0.00  0.00    +0.000 C 
BRANCH  13  14
ATOM     14  C   UNK A   1       9.226   3.255   0.000  0.00  0.00    +0.000 C 
ATOM     15  N   UNK A   1       9.766   3.878   0.000  0.00  0.00    +0.000 NA
BRANCH  14  16
ATOM     16  C   UNK A   1       9.496   2.475   0.000  0.00  0.00    +0.000 C 
ATOM     17  O   UNK A   1      10.306   2.319   0.000  0.00  0.00    +0.000 OA
ATOM     18  O   UNK A   1       8.956   1.851   0.000  0.00  0.00    +0.000 OA
ENDBRANCH  14  16
ENDBRANCH  13  14
ENDBRANCH  12  13
ENDBRANCH   9  12
ENDBRANCH   1  10
BRANCH   1  19
ATOM     19  C   UNK A   1       5.986   6.061   0.000  0.00  0.00    +0.000 C 
BRANCH  19  20
ATOM     20  S   UNK A   1       5.176   6.217   0.000  0.00  0.00    +0.000 S 
BRANCH  20  34
ATOM     21  C   UNK A   1       4.636   9.959   0.000  0.00  0.00    +0.000 A 
ATOM     22  C   UNK A   1       2.475   7.464   0.000  0.00  0.00    +0.000 A 
ATOM     23  C   UNK A   1       5.446   9.803   0.000  0.00  0.00    +0.000 A 
ATOM     24  C   UNK A   1       2.745   6.685   0.000  0.00  0.00    +0.000 A 
ATOM     25  C   UNK A   1       4.096   9.335   0.000  0.00  0.00    +0.000 A 
ATOM     26  C   UNK A   1       3.015   8.088   0.000  0.00  0.00    +0.000 A 
ATOM     27  C   UNK A   1       5.716   9.023   0.000  0.00  0.00    +0.000 A 
ATOM     28  C   UNK A   1       3.555   6.529   0.000  0.00  0.00    +0.000 A 
ATOM     29  C   UNK A   1       4.365   8.556   0.000  0.00  0.00    +0.000 A 
ATOM     30  C   UNK A   1       3.825   7.932   0.000  0.00  0.00    +0.000 A 
ATOM     31  C   UNK A   1       5.176   8.400   0.000  0.00  0.00    +0.000 A 
ATOM     32  C   UNK A   1       4.096   7.152   0.000  0.00  0.00    +0.000 A 
ATOM     33  C   UNK A   1       5.446   7.620   0.000  0.00  0.00    +0.000 C 
ATOM     34  C   UNK A   1       4.906   6.996   0.000  0.00  0.00    +0.000 C 
ATOM     35  O   UNK A   1       6.256   7.464   0.000  0.00  0.00    +0.000 OA
ENDBRANCH  20  34
ENDBRANCH  19  20
ENDBRANCH   1  19
TORSDOF 11
