REMARK  Name = 
REMARK  10 active torsions:
REMARK  status: ('A' for Active; 'I' for Inactive)
REMARK    1  A    between atoms: C_8  and  C_10
REMARK    2  A    between atoms: C_8  and  C_12
REMARK    3  A    between atoms: CB_9  and  CA_11
REMARK    4  A    between atoms: CB_9  and  OG_29
REMARK    5  A    between atoms: CA_11  and  C_16
REMARK    6  A    between atoms: C_13  and  C_15
REMARK    7  A    between atoms: C_13  and  C_18
REMARK    8  A    between atoms: C_13  and  N_21
REMARK    9  A    between atoms: CA_14  and  C_17
REMARK   10  A    between atoms: C_18  and  OG_29
REMARK                            x       y       z     vdW  Elec       q    Type
REMARK                         _______ _______ _______ _____ _____    ______ ____
ROOT
ATOM      1  C   UNL     1       7.145   5.775   0.000  0.00  0.00    +0.000 C 
ENDROOT
BRANCH   1   5
ATOM      2  C   UNL     1       7.471   2.860   0.000  0.00  0.00    +0.000 C 
ATOM      3  C   UNL     1       8.364   3.509   0.000  0.00  0.00    +0.000 C 
ATOM      4  CA  UNL     1       6.732   3.680   0.000  0.00  0.00    +0.000 C 
ATOM      5  C   UNL     1       7.145   4.950   0.000  0.00  0.00    +0.000 C 
ATOM      6  C   UNL     1       7.557   3.680   0.000  0.00  0.00    +0.000 C 
ATOM      7  N   UNL     1       6.477   4.465   0.000  0.00  0.00    +0.000 NA
ATOM      8  S   UNL     1       7.812   4.465   0.000  0.00  0.00    +0.000 S 
BRANCH   4   9
ATOM      9  C   UNL     1       6.247   3.013   0.000  0.00  0.00    +0.000 C 
ATOM     10  O   UNL     1       5.427   3.099   0.000  0.00  0.00    +0.000 OA
ATOM     11  OXT UNL     1       6.583   2.259   0.000  0.00  0.00    +0.000 OA
ENDBRANCH   4   9
ENDBRANCH   1   5
BRANCH   1  13
ATOM     12  C   UNL     1       8.574   5.775   0.000  0.00  0.00    +0.000 C 
ATOM     13  N   UNL     1       7.859   6.188   0.000  0.00  0.00    +0.000 NA
ATOM     14  O   UNL     1       8.574   4.950   0.000  0.00  0.00    +0.000 OA
BRANCH  12  15
ATOM     15  C   UNL     1       9.288   6.188   0.000  0.00  0.00    +0.000 C 
BRANCH  15  21
ATOM     16  C   UNL     1      11.431   4.950   0.000  0.00  0.00    +0.000 A 
ATOM     17  C   UNL     1      11.431   5.775   0.000  0.00  0.00    +0.000 A 
ATOM     18  C   UNL     1      10.717   4.537   0.000  0.00  0.00    +0.000 A 
ATOM     19  C   UNL     1      10.717   6.188   0.000  0.00  0.00    +0.000 A 
ATOM     20  C   UNL     1      10.003   4.950   0.000  0.00  0.00    +0.000 A 
ATOM     21  C   UNL     1      10.003   5.775   0.000  0.00  0.00    +0.000 A 
ENDBRANCH  15  21
ENDBRANCH  12  15
ENDBRANCH   1  13
BRANCH   1  22
ATOM     22  C   UNL     1       6.430   6.188   0.000  0.00  0.00    +0.000 C 
ATOM     23  O   UNL     1       6.430   7.013   0.000  0.00  0.00    +0.000 OA
BRANCH  22  24
ATOM     24  OG  UNL     1       5.716   5.775   0.000  0.00  0.00    +0.000 OA
BRANCH  24  25
ATOM     25  CB  UNL     1       5.001   6.188   0.000  0.00  0.00    +0.000 C 
BRANCH  25  26
ATOM     26  CA  UNL     1       4.287   5.775   0.000  0.00  0.00    +0.000 C 
ATOM     27  N   UNL     1       4.287   4.950   0.000  0.00  0.00    +0.000 NA
BRANCH  26  28
ATOM     28  C   UNL     1       3.572   6.188   0.000  0.00  0.00    +0.000 C 
ATOM     29  O   UNL     1       2.858   5.775   0.000  0.00  0.00    +0.000 OA
ATOM     30  OXT UNL     1       3.572   7.013   0.000  0.00  0.00    +0.000 OA
ENDBRANCH  26  28
ENDBRANCH  25  26
ENDBRANCH  24  25
ENDBRANCH  22  24
ENDBRANCH   1  22
TORSDOF 10
