REMARK  Name = 
REMARK  4 active torsions:
REMARK  status: ('A' for Active; 'I' for Inactive)
REMARK    1  A    between atoms: N_2  and  C_3
REMARK    2  A    between atoms: N_2  and  C_9
REMARK    3  A    between atoms: C_3  and  C_4
REMARK    4  A    between atoms: C_4  and  C_5
REMARK                            x       y       z     vdW  Elec       q    Type
REMARK                         _______ _______ _______ _____ _____    ______ ____
ROOT
ATOM      1  C   UNL     1       0.000  -1.650   0.000  0.00  0.00    +0.000 C 
ATOM      2  N   UNL     1       0.715  -1.238   0.000  0.00  0.00    +0.000 NA
ENDROOT
BRANCH   2   3
ATOM      3  C   UNL     1       0.715  -0.412   0.000  0.00  0.00    +0.000 C 
ATOM      4  C   UNL     1       0.000   0.000   0.000  0.00  0.00    +0.000 C 
ATOM      5  C   UNL     1       0.000   0.825   0.000  0.00  0.00    +0.000 C 
ATOM      6  C   UNL     1       0.715   1.238   0.000  0.00  0.00    +0.000 C 
ATOM      7  C   UNL     1       0.715   2.062   0.000  0.00  0.00    +0.000 C 
ATOM      8  C   UNL     1       1.429   0.825   0.000  0.00  0.00    +0.000 C 
ATOM      9  C   UNL     1       1.429   0.000   0.000  0.00  0.00    +0.000 C 
ENDBRANCH   2   3
BRANCH   2  10
ATOM     10  C   UNL     1       1.429  -1.650   0.000  0.00  0.00    +0.000 C 
BRANCH  10  11
ATOM     11  C   UNL     1       1.429  -2.475   0.000  0.00  0.00    +0.000 C 
BRANCH  11  12
ATOM     12  C   UNL     1       2.143  -2.888   0.000  0.00  0.00    +0.000 C 
ATOM     13  C   UNL     1       2.143  -3.712   0.000  0.00  0.00    +0.000 C 
ATOM     14  C   UNL     1       2.858  -4.125   0.000  0.00  0.00    +0.000 C 
ATOM     15  C   UNL     1       1.429  -4.125   0.000  0.00  0.00    +0.000 C 
ENDBRANCH  11  12
ENDBRANCH  10  11
ENDBRANCH   2  10
TORSDOF 4
