REMARK  Name = 
REMARK  4 active torsions:
REMARK  status: ('A' for Active; 'I' for Inactive)
REMARK    1  A    between atoms: N_2  and  C_5
REMARK    2  A    between atoms: C_15  and  C_18
REMARK    3  A    between atoms: C_18  and  O_20
REMARK    4  A    between atoms: O_20  and  P_21
REMARK                            x       y       z     vdW  Elec       q    Type
REMARK                         _______ _______ _______ _____ _____    ______ ____
ROOT
ATOM      1  C   UNL     1       0.070   0.302   0.000  0.00  0.00    +0.000 C 
ATOM      2  O   UNL     1      -0.604   0.813   0.000  0.00  0.00    +0.000 OA
ATOM      3  C   UNL     1      -0.188  -0.441   0.000  0.00  0.00    +0.000 C 
ATOM      4  C   UNL     1      -1.261   0.337   0.000  0.00  0.00    +0.000 C 
ATOM      5  C   UNL     1      -1.011  -0.441   0.000  0.00  0.00    +0.000 C 
ATOM      6  O   UNL     1       0.295  -1.111   0.000  0.00  0.00    +0.000 OA
ATOM      7  O   UNL     1      -1.271  -1.223   0.000  0.00  0.00    +0.000 OA
ENDROOT
BRANCH   1   9
ATOM      8  C   UNL     1       1.466   0.111   0.000  0.00  0.00    +0.000 A 
ATOM      9  N   UNL     1       0.834   0.556   0.000  0.00  0.00    +0.000 N 
ATOM     10  C   UNL     1       2.202   0.656   0.000  0.00  0.00    +0.000 A 
ATOM     11  N   UNL     1       1.546  -0.733   0.000  0.00  0.00    +0.000 NA
ATOM     12  C   UNL     1       1.118   1.382   0.000  0.00  0.00    +0.000 A 
ATOM     13  N   UNL     1       1.980   1.379   0.000  0.00  0.00    +0.000 NA
ATOM     14  C   UNL     1       2.945   0.323   0.000  0.00  0.00    +0.000 A 
ATOM     15  C   UNL     1       2.331  -1.077   0.000  0.00  0.00    +0.000 A 
ATOM     16  N   UNL     1       3.043  -0.559   0.000  0.00  0.00    +0.000 NA
ATOM     17  O   UNL     1       3.605   0.816   0.000  0.00  0.00    +0.000 OA
ATOM     18  N   UNL     1       2.421  -1.900   0.000  0.00  0.00    +0.000 NA
ENDBRANCH   1   9
BRANCH   4  19
ATOM     19  C   UNL     1      -2.046   0.597   0.000  0.00  0.00    +0.000 C 
BRANCH  19  20
ATOM     20  O   UNL     1      -2.667   0.042   0.000  0.00  0.00    +0.000 OA
BRANCH  20  21
ATOM     21  P   UNL     1      -3.494   0.042   0.000  0.00  0.00    +0.000 P 
ATOM     22  O   UNL     1      -3.498  -0.785   0.000  0.00  0.00    +0.000 OA
ATOM     23  O   UNL     1      -4.321   0.042   0.000  0.00  0.00    +0.000 OA
ATOM     24  O   UNL     1      -3.498   0.868   0.000  0.00  0.00    +0.000 OA
ENDBRANCH  20  21
ENDBRANCH  19  20
ENDBRANCH   4  19
TORSDOF 4
