REMARK  Name = 
REMARK  4 active torsions:
REMARK  status: ('A' for Active; 'I' for Inactive)
REMARK    1  A    between atoms: N_4  and  C_6
REMARK    2  A    between atoms: C_6  and  C_7
REMARK    3  A    between atoms: C_7  and  O_8
REMARK    4  A    between atoms: O_8  and  P_9
REMARK                            x       y       z     vdW  Elec       q    Type
REMARK                         _______ _______ _______ _____ _____    ______ ____
ROOT
ATOM      1  C   UNL     1       3.190  -1.841   0.000  0.00  0.00    +0.000 C 
ENDROOT
BRANCH   1   5
ATOM      2  C   UNL     1       1.046  -1.429   0.000  0.00  0.00    +0.000 C 
ATOM      3  C   UNL     1       1.761  -1.841   0.000  0.00  0.00    +0.000 C 
ATOM      4  O   UNL     1       1.761  -2.667   0.000  0.00  0.00    +0.000 OA
ATOM      5  N   UNL     1       2.475  -1.429   0.000  0.00  0.00    +0.000 N 
ATOM      6 BR   UNL     1       2.475  -0.604   0.000  0.00  0.00    +0.000 Br
ENDBRANCH   1   5
BRANCH   1   7
ATOM      7  C   UNL     1       3.904  -1.429   0.000  0.00  0.00    +0.000 C 
BRANCH   7   8
ATOM      8  O   UNL     1       4.619  -1.841   0.000  0.00  0.00    +0.000 OA
BRANCH   8   9
ATOM      9  P   UNL     1       5.333  -1.429   0.000  0.00  0.00    +0.000 P 
ATOM     10  O   UNL     1       6.048  -1.016   0.000  0.00  0.00    +0.000 OA
ATOM     11  O   UNL     1       5.746  -2.144   0.000  0.00  0.00    +0.000 OA
ATOM     12  O   UNL     1       4.921  -0.715   0.000  0.00  0.00    +0.000 OA
ENDBRANCH   8   9
ENDBRANCH   7   8
ENDBRANCH   1   7
TORSDOF 4
