REMARK  Name = 
REMARK  8 active torsions:
REMARK  status: ('A' for Active; 'I' for Inactive)
REMARK    1  A    between atoms: C_9  and  C_10
REMARK    2  A    between atoms: C_9  and  C_13
REMARK    3  A    between atoms: C_10  and  C_14
REMARK    4  A    between atoms: C_12  and  C_16
REMARK    5  A    between atoms: C_12  and  N_19
REMARK    6  A    between atoms: C_14  and  C_17
REMARK    7  A    between atoms: C_14  and  N_19
REMARK    8  A    between atoms: CA_15  and  C_18
REMARK                            x       y       z     vdW  Elec       q    Type
REMARK                         _______ _______ _______ _____ _____    ______ ____
ROOT
ATOM      1  N   UNK A   1      -0.116   0.216   0.000  0.00  0.00    +0.000 NA
ENDROOT
BRANCH   1   3
ATOM      2  C   UNK A   1       0.598  -1.022   0.000  0.00  0.00    +0.000 C 
ATOM      3  C   UNK A   1       0.598  -0.197   0.000  0.00  0.00    +0.000 C 
BRANCH   3   8
ATOM      4  CG  PRO A   2       2.921  -1.189   0.000  0.00  0.00    +0.000 C 
ATOM      5  CB  PRO A   2       3.333  -0.474   0.000  0.00  0.00    +0.000 C 
ATOM      6  CD  PRO A   2       2.114  -1.017   0.000  0.00  0.00    +0.000 C 
ATOM      7  CA  PRO A   2       2.781   0.139   0.000  0.00  0.00    +0.000 C 
ATOM      8  C   UNK A   1       1.313   0.216   0.000  0.00  0.00    +0.000 C 
ATOM      9  N   PRO A   2       2.027  -0.197   0.000  0.00  0.00    +0.000 N 
ATOM     10  O   UNK A   1       1.313   1.041   0.000  0.00  0.00    +0.000 OA
BRANCH   7  11
ATOM     11  C   PRO A   2       2.953   0.946   0.000  0.00  0.00    +0.000 C 
ATOM     12  O   PRO A   2       2.340   1.498   0.000  0.00  0.00    +0.000 OA
ATOM     13  OXT PRO A   2       3.737   1.201   0.000  0.00  0.00    +0.000 OA
ENDBRANCH   7  11
ENDBRANCH   3   8
ENDBRANCH   1   3
BRANCH   1  14
ATOM     14  C   UNK A   1      -0.831  -0.197   0.000  0.00  0.00    +0.000 C 
BRANCH  14  15
ATOM     15  C   UNK A   1      -0.831  -1.022   0.000  0.00  0.00    +0.000 C 
ATOM     16  O   UNK A   1      -0.116  -1.434   0.000  0.00  0.00    +0.000 OA
ATOM     17  O   UNK A   1      -1.545  -1.434   0.000  0.00  0.00    +0.000 OA
ENDBRANCH  14  15
BRANCH  14  18
ATOM     18  C   UNK A   1      -1.545   0.216   0.000  0.00  0.00    +0.000 C 
BRANCH  18  19
ATOM     19  C   UNK A   1      -2.260  -0.197   0.000  0.00  0.00    +0.000 C 
BRANCH  19  25
ATOM     20  C   UNK A   1      -4.403   1.041   0.000  0.00  0.00    +0.000 A 
ATOM     21  C   UNK A   1      -4.403   0.216   0.000  0.00  0.00    +0.000 A 
ATOM     22  C   UNK A   1      -3.688   1.453   0.000  0.00  0.00    +0.000 A 
ATOM     23  C   UNK A   1      -3.688  -0.197   0.000  0.00  0.00    +0.000 A 
ATOM     24  C   UNK A   1      -2.974   1.041   0.000  0.00  0.00    +0.000 A 
ATOM     25  C   UNK A   1      -2.974   0.216   0.000  0.00  0.00    +0.000 A 
ENDBRANCH  19  25
ENDBRANCH  18  19
ENDBRANCH  14  18
ENDBRANCH   1  14
TORSDOF 8
