REMARK  Name = 
REMARK  6 active torsions:
REMARK  status: ('A' for Active; 'I' for Inactive)
REMARK    1  A    between atoms: C_19  and  C_24
REMARK    2  A    between atoms: C_21  and  N_36
REMARK    3  A    between atoms: C_22  and  N_38
REMARK    4  A    between atoms: C_23  and  C_29
REMARK    5  A    between atoms: C_27  and  O_41
REMARK    6  A    between atoms: C_28  and  O_41
REMARK                            x       y       z     vdW  Elec       q    Type
REMARK                         _______ _______ _______ _____ _____    ______ ____
ROOT
ATOM      1  C   UNL     1       3.352   2.190   0.000  0.00  0.00    +0.000 A 
ATOM      2  C   UNL     1       3.352   1.365   0.000  0.00  0.00    +0.000 A 
ATOM      3  C   UNL     1       4.781   2.190   0.000  0.00  0.00    +0.000 A 
ATOM      4  C   UNL     1       4.067   2.602   0.000  0.00  0.00    +0.000 A 
ATOM      5  C   UNL     1       4.781   1.365   0.000  0.00  0.00    +0.000 A 
ATOM      6  C   UNL     1       4.067   0.952   0.000  0.00  0.00    +0.000 A 
ATOM      7  F   UNL     1       5.496   0.952   0.000  0.00  0.00    +0.000 F 
ENDROOT
BRANCH   4   9
ATOM      8  C   UNL     1       4.781   3.840   0.000  0.00  0.00    +0.000 C 
ATOM      9  N   UNL     1       4.067   3.427   0.000  0.00  0.00    +0.000 NA
ATOM     10  O   UNL     1       5.496   3.427   0.000  0.00  0.00    +0.000 OA
BRANCH   8  15
ATOM     11  C   UNL     1       4.781   7.140   0.000  0.00  0.00    +0.000 C 
ATOM     12  C   UNL     1       4.067   5.902   0.000  0.00  0.00    +0.000 A 
ATOM     13  C   UNL     1       4.067   5.077   0.000  0.00  0.00    +0.000 A 
ATOM     14  C   UNL     1       4.781   6.315   0.000  0.00  0.00    +0.000 A 
ATOM     15  C   UNL     1       4.781   4.665   0.000  0.00  0.00    +0.000 A 
ATOM     16  C   UNL     1       5.496   5.077   0.000  0.00  0.00    +0.000 A 
ATOM     17  N   UNL     1       5.496   5.902   0.000  0.00  0.00    +0.000 N 
ATOM     18  O   UNL     1       6.210   4.665   0.000  0.00  0.00    +0.000 OA
BRANCH  17  24
ATOM     19  C   UNL     1       6.925   7.552   0.000  0.00  0.00    +0.000 A 
ATOM     20  C   UNL     1       7.639   6.315   0.000  0.00  0.00    +0.000 A 
ATOM     21  C   UNL     1       6.210   7.140   0.000  0.00  0.00    +0.000 A 
ATOM     22  C   UNL     1       6.925   5.902   0.000  0.00  0.00    +0.000 A 
ATOM     23  C   UNL     1       7.639   7.140   0.000  0.00  0.00    +0.000 A 
ATOM     24  C   UNL     1       6.210   6.315   0.000  0.00  0.00    +0.000 A 
ATOM     25  F   UNL     1       8.354   7.552   0.000  0.00  0.00    +0.000 F 
ENDBRANCH  17  24
ENDBRANCH   8  15
ENDBRANCH   4   9
BRANCH   6  26
ATOM     26  O   UNL     1       4.067   0.127   0.000  0.00  0.00    +0.000 OA
BRANCH  26  34
ATOM     27  C   UNL     1       0.884  -2.150   0.000  0.00  0.00    +0.000 C 
ATOM     28  C   UNL     1       2.638   0.127   0.000  0.00  0.00    +0.000 A 
ATOM     29  C   UNL     1       2.638  -1.523   0.000  0.00  0.00    +0.000 A 
ATOM     30  C   UNL     1       1.139  -0.030   0.000  0.00  0.00    +0.000 A 
ATOM     31  C   UNL     1       1.923  -0.285   0.000  0.00  0.00    +0.000 A 
ATOM     32  C   UNL     1       3.352  -1.110   0.000  0.00  0.00    +0.000 A 
ATOM     33  C   UNL     1       1.923  -1.110   0.000  0.00  0.00    +0.000 A 
ATOM     34  C   UNL     1       3.352  -0.285   0.000  0.00  0.00    +0.000 A 
ATOM     35  N   UNL     1       0.654  -0.698   0.000  0.00  0.00    +0.000 NA
ATOM     36  N   UNL     1       1.139  -1.365   0.000  0.00  0.00    +0.000 N 
BRANCH  32  39
ATOM     37  C   UNL     1       4.153  -2.343   0.000  0.00  0.00    +0.000 A 
ATOM     38  C   UNL     1       4.820  -1.187   0.000  0.00  0.00    +0.000 A 
ATOM     39  C   UNL     1       4.067  -1.523   0.000  0.00  0.00    +0.000 A 
ATOM     40  N   UNL     1       4.960  -2.515   0.000  0.00  0.00    +0.000 NA
ATOM     41  N   UNL     1       5.372  -1.800   0.000  0.00  0.00    +0.000 NA
ENDBRANCH  32  39
ENDBRANCH  26  34
ENDBRANCH   6  26
TORSDOF 6
