REMARK  Name = 
REMARK  8 active torsions:
REMARK  status: ('A' for Active; 'I' for Inactive)
REMARK    1  A    between atoms: C_3  and  C_4
REMARK    2  A    between atoms: C_4  and  C_10
REMARK    3  A    between atoms: C_10  and  C_16
REMARK    4  A    between atoms: C_14  and  C_15
REMARK    5  A    between atoms: C_14  and  O_27
REMARK    6  A    between atoms: C_18  and  C_22
REMARK    7  A    between atoms: C_20  and  O_27
REMARK    8  A    between atoms: C_22  and  O_26
REMARK                            x       y       z     vdW  Elec       q    Type
REMARK                         _______ _______ _______ _____ _____    ______ ____
ROOT
ATOM      1  C   UNL     1       1.429   2.475   0.000  0.00  0.00    +0.000 A 
ATOM      2  C   UNL     1       1.429   0.825   0.000  0.00  0.00    +0.000 A 
ATOM      3  C   UNL     1       3.572   1.238   0.000  0.00  0.00    +0.000 A 
ATOM      4  C   UNL     1       0.715   2.062   0.000  0.00  0.00    +0.000 A 
ATOM      5  C   UNL     1       2.143   2.062   0.000  0.00  0.00    +0.000 A 
ATOM      6  C   UNL     1       3.572   2.062   0.000  0.00  0.00    +0.000 A 
ATOM      7  C   UNL     1       2.143   1.238   0.000  0.00  0.00    +0.000 A 
ATOM      8  C   UNL     1       0.715   1.238   0.000  0.00  0.00    +0.000 A 
ATOM      9  C   UNL     1       2.858   2.475   0.000  0.00  0.00    +0.000 A 
ATOM     10  N   UNL     1       2.858   0.825   0.000  0.00  0.00    +0.000 NA
ATOM     11  O   UNL     1       2.858   3.300   0.000  0.00  0.00    +0.000 OA
ENDROOT
BRANCH   6  12
ATOM     12  C   UNL     1       4.287   2.475   0.000  0.00  0.00    +0.000 C 
ATOM     13  O   UNL     1       4.287   3.300   0.000  0.00  0.00    +0.000 OA
BRANCH  12  15
ATOM     14  C   UNL     1       5.716   2.475   0.000  0.00  0.00    +0.000 C 
ATOM     15  O   UNL     1       5.001   2.062   0.000  0.00  0.00    +0.000 OA
ENDBRANCH  12  15
ENDBRANCH   6  12
BRANCH   4  16
ATOM     16  C   UNL     1       0.000   2.475   0.000  0.00  0.00    +0.000 C 
BRANCH  16  17
ATOM     17  C   UNL     1      -0.715   2.062   0.000  0.00  0.00    +0.000 C 
BRANCH  17  19
ATOM     18  C   UNL     1      -2.143   2.062   0.000  0.00  0.00    +0.000 C 
ATOM     19  C   UNL     1      -1.429   2.475   0.000  0.00  0.00    +0.000 C 
ENDBRANCH  17  19
ENDBRANCH  16  17
ENDBRANCH   4  16
BRANCH   8  20
ATOM     20  O   UNL     1       0.000   0.825   0.000  0.00  0.00    +0.000 OA
BRANCH  20  21
ATOM     21  C   UNL     1       0.000   0.000   0.000  0.00  0.00    +0.000 C 
BRANCH  21  27
ATOM     22  C   UNL     1      -2.143  -1.238   0.000  0.00  0.00    +0.000 A 
ATOM     23  C   UNL     1      -1.429  -1.650   0.000  0.00  0.00    +0.000 A 
ATOM     24  C   UNL     1      -2.143  -0.412   0.000  0.00  0.00    +0.000 A 
ATOM     25  C   UNL     1      -0.715  -1.238   0.000  0.00  0.00    +0.000 A 
ATOM     26  C   UNL     1      -1.429   0.000   0.000  0.00  0.00    +0.000 A 
ATOM     27  C   UNL     1      -0.715  -0.412   0.000  0.00  0.00    +0.000 A 
ENDBRANCH  21  27
ENDBRANCH  20  21
ENDBRANCH   8  20
TORSDOF 8
