REMARK  Name = 
REMARK  7 active torsions:
REMARK  status: ('A' for Active; 'I' for Inactive)
REMARK    1  A    between atoms: C_12  and  O_22
REMARK    2  A    between atoms: O_22  and  C_23
REMARK    3  A    between atoms: C_25  and  C_26
REMARK    4  A    between atoms: C_28  and  O_29
REMARK    5  A    between atoms: O_29  and  C_30
REMARK    6  A    between atoms: C_42  and  O_43
REMARK    7  A    between atoms: O_43  and  C_44
REMARK                            x       y       z     vdW  Elec       q    Type
REMARK                         _______ _______ _______ _____ _____    ______ ____
ROOT
ATOM      1  C   UNL     1      14.275  -3.612   0.000  0.00  0.00    +0.000 C 
ATOM      2  O   UNL     1      15.099  -3.564   0.000  0.00  0.00    +0.000 OA
ATOM      3  C   UNL     1      15.552  -4.253   0.000  0.00  0.00    +0.000 C 
ATOM      4  C   UNL     1      15.182  -4.990   0.000  0.00  0.00    +0.000 C 
ATOM      5  C   UNL     1      14.358  -5.038   0.000  0.00  0.00    +0.000 C 
ATOM      6  O   UNL     1      13.988  -5.776   0.000  0.00  0.00    +0.000 OA
ATOM      7  C   UNL     1      13.905  -4.349   0.000  0.00  0.00    +0.000 C 
ENDROOT
BRANCH   3   8
ATOM      8  C   UNL     1      16.376  -4.205   0.000  0.00  0.00    +0.000 C 
ATOM      9  O   UNL     1      16.746  -3.468   0.000  0.00  0.00    +0.000 OA
ENDBRANCH   3   8
BRANCH   1  10
ATOM     10  O   UNL     1      13.822  -2.922   0.000  0.00  0.00    +0.000 OA
BRANCH  10  22
ATOM     11  C   UNL     1       7.208  -4.280   0.000  0.00  0.00    +0.000 C 
ATOM     12  C   UNL     1       7.332  -3.465   0.000  0.00  0.00    +0.000 C 
ATOM     13  C   UNL     1       8.065  -3.086   0.000  0.00  0.00    +0.000 C 
ATOM     14  C   UNL     1       7.931  -2.272   0.000  0.00  0.00    +0.000 C 
ATOM     15  C   UNL     1       8.664  -1.893   0.000  0.00  0.00    +0.000 C 
ATOM     16  C   UNL     1       9.251  -2.473   0.000  0.00  0.00    +0.000 C 
ATOM     17  C   UNL     1      10.074  -2.425   0.000  0.00  0.00    +0.000 C 
ATOM     18  C   UNL     1      10.445  -1.688   0.000  0.00  0.00    +0.000 C 
ATOM     19  C   UNL     1      11.268  -1.640   0.000  0.00  0.00    +0.000 C 
ATOM     20  C   UNL     1      11.722  -2.329   0.000  0.00  0.00    +0.000 C 
ATOM     21  C   UNL     1      12.545  -2.281   0.000  0.00  0.00    +0.000 C 
ATOM     22  C   UNL     1      12.998  -2.970   0.000  0.00  0.00    +0.000 C 
ATOM     23  C   UNL     1      12.628  -3.708   0.000  0.00  0.00    +0.000 C 
ATOM     24  C   UNL     1      11.805  -3.756   0.000  0.00  0.00    +0.000 C 
ATOM     25  C   UNL     1      11.351  -3.066   0.000  0.00  0.00    +0.000 C 
ATOM     26  C   UNL     1      10.981  -3.804   0.000  0.00  0.00    +0.000 C 
ATOM     27  C   UNL     1      10.528  -3.114   0.000  0.00  0.00    +0.000 C 
ATOM     28  C   UNL     1      10.157  -3.851   0.000  0.00  0.00    +0.000 C 
ATOM     29  C   UNL     1       9.334  -3.899   0.000  0.00  0.00    +0.000 C 
ATOM     30  C   UNL     1       8.880  -3.210   0.000  0.00  0.00    +0.000 C 
ATOM     31  C   UNL     1       8.435  -3.905   0.000  0.00  0.00    +0.000 C 
ATOM     32  O   UNL     1       7.115  -2.147   0.000  0.00  0.00    +0.000 OA
ATOM     33  C   UNL     1       6.745  -2.885   0.000  0.00  0.00    +0.000 C 
ATOM     34  C   UNL     1       6.454  -3.656   0.000  0.00  0.00    +0.000 C 
ATOM     35  C   UNL     1       5.640  -3.790   0.000  0.00  0.00    +0.000 C 
ATOM     36  C   UNL     1       5.117  -3.152   0.000  0.00  0.00    +0.000 C 
ATOM     37  C   UNL     1       4.303  -3.286   0.000  0.00  0.00    +0.000 C 
ATOM     38  C   UNL     1       5.408  -2.380   0.000  0.00  0.00    +0.000 C 
ATOM     39  N   UNL     1       6.222  -2.246   0.000  0.00  0.00    +0.000 NA
ENDBRANCH  10  22
ENDBRANCH   1  10
BRANCH   7  40
ATOM     40  O   UNL     1      13.082  -4.397   0.000  0.00  0.00    +0.000 OA
BRANCH  40  41
ATOM     41  C   UNL     1      12.711  -5.134   0.000  0.00  0.00    +0.000 C 
ATOM     42  O   UNL     1      13.165  -5.823   0.000  0.00  0.00    +0.000 OA
ATOM     43  C   UNL     1      12.794  -6.561   0.000  0.00  0.00    +0.000 C 
ATOM     44  C   UNL     1      13.248  -7.250   0.000  0.00  0.00    +0.000 C 
ATOM     45  C   UNL     1      11.971  -6.609   0.000  0.00  0.00    +0.000 C 
ATOM     46  O   UNL     1      11.600  -7.346   0.000  0.00  0.00    +0.000 OA
ATOM     47  C   UNL     1      11.517  -5.919   0.000  0.00  0.00    +0.000 C 
ATOM     48  O   UNL     1      10.694  -5.967   0.000  0.00  0.00    +0.000 OA
ATOM     49  C   UNL     1      11.888  -5.182   0.000  0.00  0.00    +0.000 C 
ATOM     50  O   UNL     1      11.434  -4.493   0.000  0.00  0.00    +0.000 OA
ENDBRANCH  40  41
ENDBRANCH   7  40
BRANCH   4  51
ATOM     51  O   UNL     1      15.635  -5.680   0.000  0.00  0.00    +0.000 OA
BRANCH  51  52
ATOM     52  C   UNL     1      16.459  -5.632   0.000  0.00  0.00    +0.000 C 
ATOM     53  O   UNL     1      16.829  -4.894   0.000  0.00  0.00    +0.000 OA
ATOM     54  C   UNL     1      17.653  -4.846   0.000  0.00  0.00    +0.000 C 
ATOM     55  C   UNL     1      18.023  -4.109   0.000  0.00  0.00    +0.000 C 
ATOM     56  C   UNL     1      18.106  -5.536   0.000  0.00  0.00    +0.000 C 
ATOM     57  O   UNL     1      18.930  -5.488   0.000  0.00  0.00    +0.000 OA
ATOM     58  C   UNL     1      17.736  -6.273   0.000  0.00  0.00    +0.000 C 
ATOM     59  O   UNL     1      18.189  -6.962   0.000  0.00  0.00    +0.000 OA
ATOM     60  C   UNL     1      16.912  -6.321   0.000  0.00  0.00    +0.000 C 
ATOM     61  O   UNL     1      16.542  -7.058   0.000  0.00  0.00    +0.000 OA
ENDBRANCH  51  52
ENDBRANCH   4  51
TORSDOF 7
