REMARK  Name = 
REMARK  13 active torsions:
REMARK  status: ('A' for Active; 'I' for Inactive)
REMARK    1  A    between atoms: S_1  and  C_20
REMARK    2  A    between atoms: S_1  and  C_30
REMARK    3  A    between atoms: S_2  and  C_27
REMARK    4  A    between atoms: S_2  and  C_30
REMARK    5  A    between atoms: O_3  and  C_16
REMARK    6  A    between atoms: O_3  and  C_39
REMARK    7  A    between atoms: C_8  and  C_12
REMARK    8  A    between atoms: C_9  and  C_13
REMARK    9  A    between atoms: C_10  and  C_14
REMARK   10  A    between atoms: C_11  and  C_15
REMARK   11  A    between atoms: C_39  and  C_40
REMARK   12  A    between atoms: C_40  and  C_41
REMARK   13  A    between atoms: C_41  and  C_42
REMARK                            x       y       z     vdW  Elec       q    Type
REMARK                         _______ _______ _______ _____ _____    ______ ____
ROOT
ATOM      1  C   UNL     1       4.508   0.595   0.000  0.00  0.00    +0.000 A 
ATOM      2  C   UNL     1       5.937   0.595   0.000  0.00  0.00    +0.000 A 
ATOM      3  C   UNL     1       5.222   1.008   0.000  0.00  0.00    +0.000 A 
ATOM      4  C   UNL     1       4.508  -0.230   0.000  0.00  0.00    +0.000 A 
ATOM      5  C   UNL     1       5.937  -0.230   0.000  0.00  0.00    +0.000 A 
ATOM      6  C   UNL     1       5.222  -0.642   0.000  0.00  0.00    +0.000 A 
ENDROOT
BRANCH   2   7
ATOM      7  C   UNL     1       6.762   0.595   0.000  0.00  0.00    +0.000 C 
ATOM      8  C   UNL     1       6.762  -0.230   0.000  0.00  0.00    +0.000 C 
ATOM      9  C   UNL     1       6.762   1.420   0.000  0.00  0.00    +0.000 C 
ATOM     10  C   UNL     1       7.587   0.595   0.000  0.00  0.00    +0.000 C 
ENDBRANCH   2   7
BRANCH   1  11
ATOM     11  C   UNL     1       3.793   1.008   0.000  0.00  0.00    +0.000 C 
ATOM     12  C   UNL     1       4.206   1.722   0.000  0.00  0.00    +0.000 C 
ATOM     13  C   UNL     1       3.381   0.293   0.000  0.00  0.00    +0.000 C 
ATOM     14  C   UNL     1       3.079   1.420   0.000  0.00  0.00    +0.000 C 
ENDBRANCH   1  11
BRANCH   6  15
ATOM     15  S   UNL     1       5.222  -1.467   0.000  0.00  0.00    +0.000 S 
BRANCH  15  16
ATOM     16  C   UNL     1       4.508  -1.880   0.000  0.00  0.00    +0.000 C 
ATOM     17  C   UNL     1       4.920  -2.594   0.000  0.00  0.00    +0.000 C 
ATOM     18  C   UNL     1       4.096  -1.165   0.000  0.00  0.00    +0.000 C 
BRANCH  16  19
ATOM     19  S   UNL     1       3.793  -2.292   0.000  0.00  0.00    +0.000 S 
BRANCH  19  24
ATOM     20  O   UNL     1       3.793  -5.592   0.000  0.00  0.00    +0.000 OA
ATOM     21  C   UNL     1       4.508  -4.355   0.000  0.00  0.00    +0.000 A 
ATOM     22  C   UNL     1       3.079  -4.355   0.000  0.00  0.00    +0.000 A 
ATOM     23  C   UNL     1       3.793  -4.767   0.000  0.00  0.00    +0.000 A 
ATOM     24  C   UNL     1       3.793  -3.117   0.000  0.00  0.00    +0.000 A 
ATOM     25  C   UNL     1       4.508  -3.530   0.000  0.00  0.00    +0.000 A 
ATOM     26  C   UNL     1       3.079  -3.530   0.000  0.00  0.00    +0.000 A 
BRANCH  21  27
ATOM     27  C   UNL     1       5.222  -4.767   0.000  0.00  0.00    +0.000 C 
ATOM     28  C   UNL     1       5.635  -4.053   0.000  0.00  0.00    +0.000 C 
ATOM     29  C   UNL     1       4.810  -5.482   0.000  0.00  0.00    +0.000 C 
ATOM     30  C   UNL     1       5.937  -5.180   0.000  0.00  0.00    +0.000 C 
ENDBRANCH  21  27
BRANCH  22  31
ATOM     31  C   UNL     1       2.365  -4.767   0.000  0.00  0.00    +0.000 C 
ATOM     32  C   UNL     1       2.777  -5.482   0.000  0.00  0.00    +0.000 C 
ATOM     33  C   UNL     1       1.952  -4.053   0.000  0.00  0.00    +0.000 C 
ATOM     34  C   UNL     1       1.650  -5.180   0.000  0.00  0.00    +0.000 C 
ENDBRANCH  22  31
ENDBRANCH  19  24
ENDBRANCH  16  19
ENDBRANCH  15  16
ENDBRANCH   6  15
BRANCH   3  35
ATOM     35  O   UNL     1       5.222   1.833   0.000  0.00  0.00    +0.000 OA
BRANCH  35  37
ATOM     36  O   UNL     1       6.460   2.547   0.000  0.00  0.00    +0.000 OA
ATOM     37  C   UNL     1       5.635   2.547   0.000  0.00  0.00    +0.000 C 
BRANCH  37  38
ATOM     38  C   UNL     1       5.222   3.262   0.000  0.00  0.00    +0.000 C 
BRANCH  38  39
ATOM     39  C   UNL     1       5.635   3.976   0.000  0.00  0.00    +0.000 C 
BRANCH  39  42
ATOM     40  O   UNL     1       5.635   5.405   0.000  0.00  0.00    +0.000 OA
ATOM     41  O   UNL     1       4.397   4.691   0.000  0.00  0.00    +0.000 OA
ATOM     42  C   UNL     1       5.222   4.691   0.000  0.00  0.00    +0.000 C 
ENDBRANCH  39  42
ENDBRANCH  38  39
ENDBRANCH  37  38
ENDBRANCH  35  37
ENDBRANCH   3  35
TORSDOF 13
