REMARK  Name = 
REMARK  5 active torsions:
REMARK  status: ('A' for Active; 'I' for Inactive)
REMARK    1  A    between atoms: C_5  and  C_6
REMARK    2  A    between atoms: N_7  and  N_12
REMARK    3  A    between atoms: C_38  and  O_39
REMARK    4  A    between atoms: C_41  and  O_42
REMARK    5  A    between atoms: O_42  and  C_44
REMARK                            x       y       z     vdW  Elec       q    Type
REMARK                         _______ _______ _______ _____ _____    ______ ____
ROOT
ATOM      1  C   UNL     1       1.089  -0.556   0.000  0.00  0.00    +0.000 A 
ATOM      2  C   UNL     1       1.089  -1.381   0.000  0.00  0.00    +0.000 A 
ATOM      3  C   UNL     1      -0.340  -1.381   0.000  0.00  0.00    +0.000 A 
ATOM      4  C   UNL     1       0.375  -1.794   0.000  0.00  0.00    +0.000 A 
ATOM      5  C   UNL     1       2.518  -1.381   0.000  0.00  0.00    +0.000 A 
ATOM      6  C   UNL     1       2.518  -0.556   0.000  0.00  0.00    +0.000 A 
ATOM      7  N   UNL     1       3.233  -0.144   0.000  0.00  0.00    +0.000 NA
ATOM      8  C   UNL     1       3.947   1.919   0.000  0.00  0.00    +0.000 C 
ATOM      9  C   UNL     1       3.233   2.331   0.000  0.00  0.00    +0.000 C 
ATOM     10  C   UNL     1       2.518   1.919   0.000  0.00  0.00    +0.000 C 
ATOM     11  C   UNL     1      -1.768  -1.381   0.000  0.00  0.00    +0.000 C 
ATOM     12  C   UNL     1      -2.483  -1.794   0.000  0.00  0.00    +0.000 C 
ATOM     13  O   UNL     1      -2.483  -2.619   0.000  0.00  0.00    +0.000 OA
ATOM     14  C   UNL     1       3.233   0.681   0.000  0.00  0.00    +0.000 C 
ATOM     15  O   UNL     1       2.518   1.094   0.000  0.00  0.00    +0.000 OA
ATOM     16  C   UNL     1       1.804  -0.144   0.000  0.00  0.00    +0.000 A 
ATOM     17  O   UNL     1       1.804   0.681   0.000  0.00  0.00    +0.000 OA
ATOM     18  C   UNL     1       0.375  -0.144   0.000  0.00  0.00    +0.000 A 
ATOM     19  O   UNL     1       0.375   0.681   0.000  0.00  0.00    +0.000 OA
ATOM     20  C   UNL     1      -0.340  -0.556   0.000  0.00  0.00    +0.000 A 
ATOM     21  C   UNL     1      -0.553   0.241   0.000  0.00  0.00    +0.000 C 
ATOM     22  O   UNL     1      -1.054  -1.794   0.000  0.00  0.00    +0.000 OA
ATOM     23  C   UNL     1       0.375  -2.619   0.000  0.00  0.00    +0.000 C 
ATOM     24  O   UNL     1       0.958  -3.202   0.000  0.00  0.00    +0.000 OA
ATOM     25  C   UNL     1      -1.054  -2.619   0.000  0.00  0.00    +0.000 C 
ATOM     26  C   UNL     1      -1.054  -3.444   0.000  0.00  0.00    +0.000 C 
ATOM     27  C   UNL     1      -1.054  -0.144   0.000  0.00  0.00    +0.000 C 
ATOM     28  C   UNL     1      -1.768   0.269   0.000  0.00  0.00    +0.000 C 
ATOM     29  C   UNL     1      -1.768  -0.556   0.000  0.00  0.00    +0.000 C 
ATOM     30  C   UNL     1      -1.054   0.681   0.000  0.00  0.00    +0.000 C 
ATOM     31  C   UNL     1      -0.340   1.094   0.000  0.00  0.00    +0.000 C 
ATOM     32  C   UNL     1      -1.054   1.506   0.000  0.00  0.00    +0.000 C 
ATOM     33  C   UNL     1      -0.340   1.919   0.000  0.00  0.00    +0.000 C 
ATOM     34  O   UNL     1      -1.054   2.331   0.000  0.00  0.00    +0.000 OA
ATOM     35  C   UNL     1       0.375   2.331   0.000  0.00  0.00    +0.000 C 
ATOM     36  C   UNL     1       0.375   3.156   0.000  0.00  0.00    +0.000 C 
ATOM     37  C   UNL     1       1.089   1.919   0.000  0.00  0.00    +0.000 C 
ATOM     38  O   UNL     1       1.089   1.094   0.000  0.00  0.00    +0.000 OA
ATOM     39  C   UNL     1       1.804   2.331   0.000  0.00  0.00    +0.000 C 
ATOM     40  C   UNL     1       1.804   3.156   0.000  0.00  0.00    +0.000 C 
ATOM     41  C   UNL     1       3.947   1.094   0.000  0.00  0.00    +0.000 C 
ATOM     42  C   UNL     1       4.662   0.681   0.000  0.00  0.00    +0.000 C 
ATOM     43  C   UNL     1       1.804  -1.794   0.000  0.00  0.00    +0.000 A 
ATOM     44  O   UNL     1       1.804  -2.619   0.000  0.00  0.00    +0.000 OA
ENDROOT
BRANCH   5  45
ATOM     45  C   UNL     1       3.233  -1.794   0.000  0.00  0.00    +0.000 C 
ATOM     46  N   UNL     1       3.947  -1.381   0.000  0.00  0.00    +0.000 NA
BRANCH  46  51
ATOM     47  C   UNL     1       5.376  -1.381   0.000  0.00  0.00    +0.000 C 
ATOM     48  C   UNL     1       4.662  -2.619   0.000  0.00  0.00    +0.000 C 
ATOM     49  C   UNL     1       5.376  -3.031   0.000  0.00  0.00    +0.000 C 
ATOM     50  C   UNL     1       6.091  -1.794   0.000  0.00  0.00    +0.000 C 
ATOM     51  N   UNL     1       4.662  -1.794   0.000  0.00  0.00    +0.000 N 
ATOM     52  N   UNL     1       6.091  -2.619   0.000  0.00  0.00    +0.000 NA
ATOM     53  C   UNL     1       6.805  -3.031   0.000  0.00  0.00    +0.000 C 
ENDBRANCH  46  51
ENDBRANCH   5  45
BRANCH  29  54
ATOM     54  O   UNL     1      -2.483  -0.144   0.000  0.00  0.00    +0.000 OA
ATOM     55  C   UNL     1      -3.197  -0.556   0.000  0.00  0.00    +0.000 C 
ENDBRANCH  29  54
BRANCH  30  56
ATOM     56  O   UNL     1      -1.768   1.094   0.000  0.00  0.00    +0.000 OA
BRANCH  56  58
ATOM     57  C   UNL     1      -3.308   0.681   0.000  0.00  0.00    +0.000 C 
ATOM     58  C   UNL     1      -2.593   1.094   0.000  0.00  0.00    +0.000 C 
ATOM     59  O   UNL     1      -2.807   1.891   0.000  0.00  0.00    +0.000 OA
ENDBRANCH  56  58
ENDBRANCH  30  56
TORSDOF 5
