REMARK  Name = 
REMARK  8 active torsions:
REMARK  status: ('A' for Active; 'I' for Inactive)
REMARK    1  A    between atoms: N_4  and  C_5
REMARK    2  A    between atoms: C_5  and  C_6
REMARK    3  A    between atoms: C_5  and  B_14
REMARK    4  A    between atoms: C_6  and  C_7
REMARK    5  A    between atoms: B_14  and  O_17
REMARK    6  A    between atoms: O_17  and  C_18
REMARK    7  A    between atoms: C_18  and  C_19
REMARK    8  A    between atoms: C_19  and  C_21
REMARK                            x       y       z     vdW  Elec       q    Type
REMARK                         _______ _______ _______ _____ _____    ______ ____
ROOT
ATOM      1  C   UNK     1      -1.159   1.605   0.000  0.00  0.00    +0.000 C 
ENDROOT
BRANCH   1   5
ATOM      2  C   UNK     1      -0.079   0.357   0.000  0.00  0.00    +0.000 C 
ATOM      3  C   UNK     1      -0.889   0.201   0.000  0.00  0.00    +0.000 C 
ATOM      4  O   UNK     1      -1.159  -0.578   0.000  0.00  0.00    +0.000 OA
ATOM      5  N   UNK     1      -1.429   0.825   0.000  0.00  0.00    +0.000 NA
ENDBRANCH   1   5
BRANCH   1   6
ATOM      6  B   UNK     1      -0.349   1.760   0.000  0.00  0.00    +0.000 B 
ATOM      7  O   UNK     1      -0.193   0.950   0.000  0.00  0.00    +0.000 OA
ATOM      8  O   UNK     1      -0.505   2.571   0.000  0.00  0.00    +0.000 OA
BRANCH   6   9
ATOM      9  O   UNK     1       0.461   1.916   0.000  0.00  0.00    +0.000 OA
BRANCH   9  10
ATOM     10  C   UNK     1       1.002   1.293   0.000  0.00  0.00    +0.000 C 
BRANCH  10  11
ATOM     11  C   UNK     1       1.812   1.449   0.000  0.00  0.00    +0.000 C 
ATOM     12  N   UNK     1       2.082   2.228   0.000  0.00  0.00    +0.000 NA
BRANCH  11  13
ATOM     13  C   UNK     1       2.352   0.825   0.000  0.00  0.00    +0.000 C 
ATOM     14  O   UNK     1       3.162   0.981   0.000  0.00  0.00    +0.000 OA
ATOM     15  O   UNK     1       2.082   0.045   0.000  0.00  0.00    +0.000 OA
ENDBRANCH  11  13
ENDBRANCH  10  11
ENDBRANCH   9  10
ENDBRANCH   6   9
ENDBRANCH   1   6
BRANCH   1  16
ATOM     16  C   UNK     1      -1.699   2.228   0.000  0.00  0.00    +0.000 C 
BRANCH  16  17
ATOM     17  C   UNK     1      -2.509   2.072   0.000  0.00  0.00    +0.000 A 
ATOM     18  C   UNK     1      -2.779   1.293   0.000  0.00  0.00    +0.000 A 
ATOM     19  C   UNK     1      -3.589   1.137   0.000  0.00  0.00    +0.000 A 
ATOM     20  C   UNK     1      -4.129   1.760   0.000  0.00  0.00    +0.000 A 
ATOM     21 CL   UNK     1      -4.939   1.605   0.000  0.00  0.00    +0.000 Cl
ATOM     22  C   UNK     1      -3.859   2.540   0.000  0.00  0.00    +0.000 A 
ATOM     23  C   UNK     1      -3.049   2.696   0.000  0.00  0.00    +0.000 A 
ENDBRANCH  16  17
ENDBRANCH   1  16
TORSDOF 8
