REMARK  Name = 
REMARK  5 active torsions:
REMARK  status: ('A' for Active; 'I' for Inactive)
REMARK    1  A    between atoms: C_2  and  C_17
REMARK    2  A    between atoms: CA_10  and  N_14
REMARK    3  A    between atoms: CA_11  and  C_18
REMARK    4  A    between atoms: C_15  and  C_17
REMARK    5  A    between atoms: C_17  and  N_20
REMARK                            x       y       z     vdW  Elec       q    Type
REMARK                         _______ _______ _______ _____ _____    ______ ____
ROOT
ATOM      1  N   UNL     1       4.397  -0.412   0.000  0.00  0.00    +0.000 N 
ATOM      2  C   UNL     1       4.397   0.412   0.000  0.00  0.00    +0.000 C 
ATOM      3  C   UNL     1       3.572  -0.412   0.000  0.00  0.00    +0.000 C 
ATOM      4  CA  UNL     1       3.572   0.412   0.000  0.00  0.00    +0.000 C 
ATOM      5  CA  UNL     1       5.182  -0.667   0.000  0.00  0.00    +0.000 C 
ATOM      6  S   UNL     1       5.182   0.667   0.000  0.00  0.00    +0.000 S 
ATOM      7  C   UNL     1       5.667   0.000   0.000  0.00  0.00    +0.000 C 
ATOM      8  C   UNL     1       6.386  -0.405   0.000  0.00  0.00    +0.000 C 
ATOM      9  C   UNL     1       6.386   0.405   0.000  0.00  0.00    +0.000 C 
ATOM     10  O   UNL     1       2.989  -0.996   0.000  0.00  0.00    +0.000 OA
ENDROOT
BRANCH   4  11
ATOM     11  N   UNL     1       2.858   0.825   0.000  0.00  0.00    +0.000 NA
ATOM     12  C   UNL     1       2.143   0.412   0.000  0.00  0.00    +0.000 C 
ATOM     13  O   UNL     1       2.143  -0.412   0.000  0.00  0.00    +0.000 OA
BRANCH  12  14
ATOM     14  C   UNL     1       1.429   0.825   0.000  0.00  0.00    +0.000 C 
BRANCH  14  16
ATOM     15  C   UNL     1       0.000   0.825   0.000  0.00  0.00    +0.000 A 
ATOM     16  C   UNL     1       0.715   0.412   0.000  0.00  0.00    +0.000 A 
ATOM     17  C   UNL     1       0.715  -0.412   0.000  0.00  0.00    +0.000 A 
ATOM     18  C   UNL     1       0.000  -0.825   0.000  0.00  0.00    +0.000 A 
ATOM     19  C   UNL     1      -0.715  -0.412   0.000  0.00  0.00    +0.000 A 
ATOM     20  C   UNL     1      -0.715   0.412   0.000  0.00  0.00    +0.000 A 
ENDBRANCH  14  16
BRANCH  14  23
ATOM     21  N   UNL     1       0.715   2.062   0.000  0.00  0.00    +0.000 NA
ATOM     22  N   UNL     1       0.000   2.475   0.000  0.00  0.00    +0.000 NA
ATOM     23  N   UNL     1       1.429   1.650   0.000  0.00  0.00    +0.000 NA
ENDBRANCH  14  23
ENDBRANCH  12  14
ENDBRANCH   4  11
BRANCH   5  24
ATOM     24  C   UNL     1       5.437  -1.452   0.000  0.00  0.00    +0.000 C 
ATOM     25  O   UNL     1       6.244  -1.624   0.000  0.00  0.00    +0.000 OA
ATOM     26  OXT UNL     1       4.885  -2.065   0.000  0.00  0.00    +0.000 OA
ENDBRANCH   5  24
TORSDOF 5
