REMARK  Name = 
REMARK  5 active torsions:
REMARK  status: ('A' for Active; 'I' for Inactive)
REMARK    1  A    between atoms: C_2  and  C_3
REMARK    2  A    between atoms: C_6  and  N_7
REMARK    3  A    between atoms: C_8  and  C_10
REMARK    4  A    between atoms: C_12  and  N_13
REMARK    5  A    between atoms: C_22  and  C_27
REMARK                            x       y       z     vdW  Elec       q    Type
REMARK                         _______ _______ _______ _____ _____    ______ ____
ROOT
ATOM      1  C   UNL     1       0.715  -1.238   0.000  0.00  0.00    +0.000 A 
ATOM      2  C   UNL     1       0.715  -0.412   0.000  0.00  0.00    +0.000 A 
ATOM      3  C   UNL     1       1.429   0.000   0.000  0.00  0.00    +0.000 A 
ATOM      4  C   UNL     1       2.143  -0.412   0.000  0.00  0.00    +0.000 A 
ATOM      5  C   UNL     1       2.858   0.000   0.000  0.00  0.00    +0.000 A 
ATOM      6  C   UNL     1       3.572  -0.412   0.000  0.00  0.00    +0.000 A 
ATOM      7  C   UNL     1       3.572  -1.238   0.000  0.00  0.00    +0.000 A 
ATOM      8  C   UNL     1       2.858  -1.650   0.000  0.00  0.00    +0.000 A 
ATOM      9  C   UNL     1       2.143  -1.238   0.000  0.00  0.00    +0.000 A 
ATOM     10  C   UNL     1       1.429  -1.650   0.000  0.00  0.00    +0.000 A 
ENDROOT
BRANCH   3  11
ATOM     11  N   UNL     1       1.429   0.825   0.000  0.00  0.00    +0.000 NA
ATOM     12  C   UNL     1       2.143   1.238   0.000  0.00  0.00    +0.000 A 
ATOM     13  N   UNL     1       2.143   2.062   0.000  0.00  0.00    +0.000 NA
ATOM     14  C   UNL     1       2.858   2.475   0.000  0.00  0.00    +0.000 A 
ATOM     15  C   UNL     1       3.572   2.062   0.000  0.00  0.00    +0.000 A 
ATOM     16  C   UNL     1       3.572   1.238   0.000  0.00  0.00    +0.000 A 
ATOM     17  N   UNL     1       2.858   0.825   0.000  0.00  0.00    +0.000 NA
ENDBRANCH   3  11
BRANCH   1  19
ATOM     18  N   UNL     1       0.000  -2.475   0.000  0.00  0.00    +0.000 NA
ATOM     19  C   UNL     1       0.000  -1.650   0.000  0.00  0.00    +0.000 C 
ATOM     20  O   UNL     1      -0.715  -1.238   0.000  0.00  0.00    +0.000 OA
BRANCH  18  24
ATOM     21  C   UNL     1      -2.143  -3.712   0.000  0.00  0.00    +0.000 A 
ATOM     22  C   UNL     1      -2.143  -2.888   0.000  0.00  0.00    +0.000 A 
ATOM     23  C   UNL     1      -1.429  -2.475   0.000  0.00  0.00    +0.000 A 
ATOM     24  C   UNL     1      -0.715  -2.888   0.000  0.00  0.00    +0.000 A 
ATOM     25  C   UNL     1      -0.715  -3.712   0.000  0.00  0.00    +0.000 A 
ATOM     26  C   UNL     1      -1.429  -4.125   0.000  0.00  0.00    +0.000 A 
BRANCH  21  28
ATOM     27  N   UNL     1      -2.858  -4.950   0.000  0.00  0.00    +0.000 NA
ATOM     28  C   UNL     1      -2.858  -4.125   0.000  0.00  0.00    +0.000 C 
ENDBRANCH  21  28
ENDBRANCH  18  24
ENDBRANCH   1  19
BRANCH   6  29
ATOM     29  C   UNL     1       4.287   0.000   0.000  0.00  0.00    +0.000 C 
ATOM     30  N   UNL     1       5.001  -0.412   0.000  0.00  0.00    +0.000 NA
ATOM     31  N   UNL     1       4.287   0.825   0.000  0.00  0.00    +0.000 NA
ENDBRANCH   6  29
TORSDOF 5
