REMARK  Name = 
REMARK  0 active torsions:
REMARK  status: ('A' for Active; 'I' for Inactive)
REMARK                            x       y       z     vdW  Elec       q    Type
REMARK                         _______ _______ _______ _____ _____    ______ ____
ROOT
ATOM      1 BA   UNL     1       0.000   0.000   0.000  0.00  0.00    +0.000 Ba
ENDROOT
TORSDOF 0
REMARK  Name = 
REMARK  0 active torsions:
REMARK  status: ('A' for Active; 'I' for Inactive)
REMARK                            x       y       z     vdW  Elec       q    Type
REMARK                         _______ _______ _______ _____ _____    ______ ____
ROOT
ATOM      1  O   UNL     1       2.829  -0.825   0.000  0.00  0.00    +0.000 OA
ATOM      2  S   UNL     1       2.829   0.000   0.000  0.00  0.00    +0.000 S 
ATOM      3  O   UNL     1       2.829   0.825   0.000  0.00  0.00    +0.000 OA
ATOM      4  O   UNL     1       3.654   0.000   0.000  0.00  0.00    +0.000 OA
ATOM      5  O   UNL     1       2.004   0.000   0.000  0.00  0.00    +0.000 OA
ENDROOT
TORSDOF 0
