REMARK  Name = 
REMARK  4 active torsions:
REMARK  status: ('A' for Active; 'I' for Inactive)
REMARK    1  A    between atoms: C_9  and  C_14
REMARK    2  A    between atoms: C_10  and  C_15
REMARK    3  A    between atoms: C_13  and  C_16
REMARK    4  A    between atoms: C_14  and  C_19
REMARK                            x       y       z     vdW  Elec       q    Type
REMARK                         _______ _______ _______ _____ _____    ______ ____
ROOT
ATOM      1  N   UNL     1       6.220   0.308   0.000  0.00  0.00    +0.000 N 
ATOM      2  C   UNL     1       7.482  -0.104   0.000  0.00  0.00    +0.000 C 
ATOM      3  C   UNL     1       7.000   0.560   0.000  0.00  0.00    +0.000 C 
ATOM      4  C   UNL     1       7.000  -0.768   0.000  0.00  0.00    +0.000 C 
ATOM      5  C   UNL     1       6.220  -0.517   0.000  0.00  0.00    +0.000 A 
ATOM      6  C   UNL     1       5.435   0.563   0.000  0.00  0.00    +0.000 A 
ATOM      7  C   UNL     1       5.435  -0.772   0.000  0.00  0.00    +0.000 A 
ATOM      8  C   UNL     1       8.149   0.381   0.000  0.00  0.00    +0.000 C 
ATOM      9  C   UNL     1       8.149  -0.589   0.000  0.00  0.00    +0.000 C 
ATOM     10  C   UNL     1       4.950  -0.104   0.000  0.00  0.00    +0.000 A 
ENDROOT
BRANCH  10  12
ATOM     11 CL   UNL     1       1.650  -0.104   0.000  0.00  0.00    +0.000 Cl
ATOM     12  C   UNL     1       4.125  -0.104   0.000  0.00  0.00    +0.000 A 
ATOM     13  C   UNL     1       3.713  -0.819   0.000  0.00  0.00    +0.000 A 
ATOM     14  C   UNL     1       3.713   0.610   0.000  0.00  0.00    +0.000 A 
ATOM     15  C   UNL     1       2.888  -0.819   0.000  0.00  0.00    +0.000 A 
ATOM     16  C   UNL     1       2.888   0.610   0.000  0.00  0.00    +0.000 A 
ATOM     17  C   UNL     1       2.475  -0.104   0.000  0.00  0.00    +0.000 A 
ENDBRANCH  10  12
BRANCH   7  18
ATOM     18  C   UNL     1       5.180  -1.556   0.000  0.00  0.00    +0.000 A 
ATOM     19  C   UNL     1       5.732  -2.170   0.000  0.00  0.00    +0.000 A 
ATOM     20  C   UNL     1       4.373  -1.728   0.000  0.00  0.00    +0.000 A 
ATOM     21  C   UNL     1       5.477  -2.954   0.000  0.00  0.00    +0.000 A 
ATOM     22  C   UNL     1       4.118  -2.513   0.000  0.00  0.00    +0.000 A 
ATOM     23  C   UNL     1       4.670  -3.126   0.000  0.00  0.00    +0.000 A 
ENDBRANCH   7  18
BRANCH   6  24
ATOM     24  C   UNL     1       5.180   1.348   0.000  0.00  0.00    +0.000 C 
BRANCH  24  27
ATOM     25  O   UNL     1       5.477   2.746   0.000  0.00  0.00    +0.000 OA
ATOM     26  O   UNL     1       6.539   1.789   0.000  0.00  0.00    +0.000 OA
ATOM     27  C   UNL     1       5.732   1.961   0.000  0.00  0.00    +0.000 C 
ENDBRANCH  24  27
ENDBRANCH   6  24
TORSDOF 4
