REMARK  Name = 
REMARK  10 active torsions:
REMARK  status: ('A' for Active; 'I' for Inactive)
REMARK    1  A    between atoms: N_2  and  C_5
REMARK    2  A    between atoms: C_8  and  C_9
REMARK    3  A    between atoms: C_9  and  N_10
REMARK    4  A    between atoms: C_11  and  C_13
REMARK    5  A    between atoms: C_19  and  O_20
REMARK    6  A    between atoms: O_20  and  C_21
REMARK    7  A    between atoms: C_21  and  C_22
REMARK    8  A    between atoms: N_29  and  C_30
REMARK    9  A    between atoms: C_30  and  C_31
REMARK   10  A    between atoms: C_35  and  C_37
REMARK                            x       y       z     vdW  Elec       q    Type
REMARK                         _______ _______ _______ _____ _____    ______ ____
ROOT
ATOM      1  C   UNL     1      -0.628  -0.698   0.000  0.00  0.00    +0.000 A 
ATOM      2  C   UNL     1      -0.143  -1.365   0.000  0.00  0.00    +0.000 A 
ATOM      3  C   UNL     1       0.641  -1.110   0.000  0.00  0.00    +0.000 A 
ATOM      4  C   UNL     1       0.641  -0.285   0.000  0.00  0.00    +0.000 A 
ATOM      5  C   UNL     1       1.356   0.127   0.000  0.00  0.00    +0.000 A 
ATOM      6  C   UNL     1       2.070  -0.285   0.000  0.00  0.00    +0.000 A 
ATOM      7  C   UNL     1       2.070  -1.110   0.000  0.00  0.00    +0.000 A 
ATOM      8  C   UNL     1       1.356  -1.523   0.000  0.00  0.00    +0.000 A 
ATOM      9  N   UNL     1      -0.143  -0.030   0.000  0.00  0.00    +0.000 N 
ENDROOT
BRANCH   1  11
ATOM     10  N   UNL     1      -1.866   0.017   0.000  0.00  0.00    +0.000 NA
ATOM     11  C   UNL     1      -1.453  -0.698   0.000  0.00  0.00    +0.000 C 
ATOM     12  O   UNL     1      -1.866  -1.412   0.000  0.00  0.00    +0.000 OA
BRANCH  10  13
ATOM     13  C   UNL     1      -2.691   0.017   0.000  0.00  0.00    +0.000 C 
BRANCH  13  17
ATOM     14  C   UNL     1      -3.928   2.160   0.000  0.00  0.00    +0.000 A 
ATOM     15  C   UNL     1      -3.103   2.160   0.000  0.00  0.00    +0.000 A 
ATOM     16  C   UNL     1      -2.691   1.446   0.000  0.00  0.00    +0.000 A 
ATOM     17  C   UNL     1      -3.103   0.731   0.000  0.00  0.00    +0.000 A 
ATOM     18  C   UNL     1      -3.928   0.731   0.000  0.00  0.00    +0.000 A 
ATOM     19  C   UNL     1      -4.341   1.446   0.000  0.00  0.00    +0.000 A 
BRANCH  14  21
ATOM     20  C   UNL     1      -4.753   3.589   0.000  0.00  0.00    +0.000 C 
ATOM     21  N   UNL     1      -4.341   2.874   0.000  0.00  0.00    +0.000 NA
ATOM     22  C   UNL     1      -5.055   2.462   0.000  0.00  0.00    +0.000 C 
ATOM     23  C   UNL     1      -3.627   3.287   0.000  0.00  0.00    +0.000 C 
ENDBRANCH  14  21
ENDBRANCH  13  17
ENDBRANCH  10  13
ENDBRANCH   1  11
BRANCH   9  24
ATOM     24  C   UNL     1      -0.398   0.754   0.000  0.00  0.00    +0.000 C 
BRANCH  24  25
ATOM     25  C   UNL     1       0.154   1.367   0.000  0.00  0.00    +0.000 A 
ATOM     26  C   UNL     1      -0.101   2.152   0.000  0.00  0.00    +0.000 A 
ATOM     27  C   UNL     1       0.451   2.765   0.000  0.00  0.00    +0.000 A 
ATOM     28  C   UNL     1       1.258   2.593   0.000  0.00  0.00    +0.000 A 
ATOM     29  C   UNL     1       1.513   1.809   0.000  0.00  0.00    +0.000 A 
ATOM     30  C   UNL     1       0.961   1.196   0.000  0.00  0.00    +0.000 A 
BRANCH  29  31
ATOM     31  C   UNL     1       2.320   1.637   0.000  0.00  0.00    +0.000 C 
ATOM     32  N   UNL     1       2.575   0.853   0.000  0.00  0.00    +0.000 NA
ATOM     33  N   UNL     1       2.872   2.250   0.000  0.00  0.00    +0.000 NA
ENDBRANCH  29  31
ENDBRANCH  24  25
ENDBRANCH   9  24
BRANCH   7  34
ATOM     34  O   UNL     1       2.784  -1.523   0.000  0.00  0.00    +0.000 OA
BRANCH  34  35
ATOM     35  C   UNL     1       2.784  -2.348   0.000  0.00  0.00    +0.000 C 
BRANCH  35  36
ATOM     36  C   UNL     1       2.070  -2.760   0.000  0.00  0.00    +0.000 A 
ATOM     37  C   UNL     1       2.070  -3.585   0.000  0.00  0.00    +0.000 A 
ATOM     38  C   UNL     1       1.356  -3.998   0.000  0.00  0.00    +0.000 A 
ATOM     39  C   UNL     1       0.641  -3.585   0.000  0.00  0.00    +0.000 A 
ATOM     40  C   UNL     1       0.641  -2.760   0.000  0.00  0.00    +0.000 A 
ATOM     41  C   UNL     1       1.356  -2.348   0.000  0.00  0.00    +0.000 A 
ENDBRANCH  35  36
ENDBRANCH  34  35
ENDBRANCH   7  34
TORSDOF 10
