REMARK  Name = 
REMARK  34 active torsions:
REMARK  status: ('A' for Active; 'I' for Inactive)
REMARK    1  A    between atoms: C_2  and  C_3
REMARK    2  A    between atoms: C_3  and  C_4
REMARK    3  A    between atoms: C_4  and  C_5
REMARK    4  A    between atoms: C_5  and  C_6
REMARK    5  A    between atoms: C_6  and  C_7
REMARK    6  A    between atoms: C_7  and  C_8
REMARK    7  A    between atoms: C_8  and  C_9
REMARK    8  A    between atoms: C_9  and  C_10
REMARK    9  A    between atoms: C_10  and  C_11
REMARK   10  A    between atoms: C_11  and  C_12
REMARK   11  A    between atoms: C_12  and  C_13
REMARK   12  A    between atoms: C_13  and  C_14
REMARK   13  A    between atoms: C_14  and  C_15
REMARK   14  A    between atoms: C_15  and  C_16
REMARK   15  A    between atoms: C_16  and  O_18
REMARK   16  A    between atoms: O_18  and  C_19
REMARK   17  A    between atoms: C_19  and  C_20
REMARK   18  A    between atoms: C_19  and  C_33
REMARK   19  A    between atoms: C_20  and  O_21
REMARK   20  A    between atoms: O_21  and  C_22
REMARK   21  A    between atoms: C_24  and  C_25
REMARK   22  A    between atoms: C_33  and  O_34
REMARK   23  A    between atoms: O_34  and  C_35
REMARK   24  A    between atoms: C_35  and  C_37
REMARK   25  A    between atoms: C_37  and  C_38
REMARK   26  A    between atoms: C_38  and  C_39
REMARK   27  A    between atoms: C_39  and  C_40
REMARK   28  A    between atoms: C_40  and  C_41
REMARK   29  A    between atoms: C_41  and  C_42
REMARK   30  A    between atoms: C_42  and  C_43
REMARK   31  A    between atoms: C_43  and  C_44
REMARK   32  A    between atoms: C_44  and  C_45
REMARK   33  A    between atoms: C_45  and  C_46
REMARK   34  A    between atoms: C_46  and  C_47
REMARK                            x       y       z     vdW  Elec       q    Type
REMARK                         _______ _______ _______ _____ _____    ______ ____
ROOT
ATOM      1  C   UNL     1      15.718 -11.550   0.000  0.00  0.00    +0.000 C 
ENDROOT
BRANCH   1   2
ATOM      2  O   UNL     1      15.004 -11.137   0.000  0.00  0.00    +0.000 OA
BRANCH   2   3
ATOM      3  C   UNL     1      14.289 -11.550   0.000  0.00  0.00    +0.000 C 
ATOM      4  O   UNL     1      14.289 -12.375   0.000  0.00  0.00    +0.000 OA
BRANCH   3   5
ATOM      5  C   UNL     1      13.575 -11.137   0.000  0.00  0.00    +0.000 C 
BRANCH   5   6
ATOM      6  C   UNL     1      12.861 -11.550   0.000  0.00  0.00    +0.000 C 
BRANCH   6   7
ATOM      7  C   UNL     1      12.146 -11.137   0.000  0.00  0.00    +0.000 C 
BRANCH   7   8
ATOM      8  C   UNL     1      11.431 -11.550   0.000  0.00  0.00    +0.000 C 
BRANCH   8   9
ATOM      9  C   UNL     1      10.717 -11.137   0.000  0.00  0.00    +0.000 C 
BRANCH   9  10
ATOM     10  C   UNL     1      10.003 -11.550   0.000  0.00  0.00    +0.000 C 
BRANCH  10  11
ATOM     11  C   UNL     1       9.288 -11.137   0.000  0.00  0.00    +0.000 C 
BRANCH  11  12
ATOM     12  C   UNL     1       8.574 -11.550   0.000  0.00  0.00    +0.000 C 
BRANCH  12  13
ATOM     13  C   UNL     1       7.859 -11.137   0.000  0.00  0.00    +0.000 C 
BRANCH  13  14
ATOM     14  C   UNL     1       7.145 -11.550   0.000  0.00  0.00    +0.000 C 
BRANCH  14  15
ATOM     15  C   UNL     1       6.430 -11.137   0.000  0.00  0.00    +0.000 C 
BRANCH  15  16
ATOM     16  C   UNL     1       5.716 -11.550   0.000  0.00  0.00    +0.000 C 
BRANCH  16  17
ATOM     17  C   UNL     1       5.001 -11.137   0.000  0.00  0.00    +0.000 C 
BRANCH  17  19
ATOM     18  C   UNL     1       3.572 -11.137   0.000  0.00  0.00    +0.000 C 
ATOM     19  C   UNL     1       4.287 -11.550   0.000  0.00  0.00    +0.000 C 
ENDBRANCH  17  19
ENDBRANCH  16  17
ENDBRANCH  15  16
ENDBRANCH  14  15
ENDBRANCH  13  14
ENDBRANCH  12  13
ENDBRANCH  11  12
ENDBRANCH  10  11
ENDBRANCH   9  10
ENDBRANCH   8   9
ENDBRANCH   7   8
ENDBRANCH   6   7
ENDBRANCH   5   6
ENDBRANCH   3   5
ENDBRANCH   2   3
ENDBRANCH   1   2
BRANCH   1  20
ATOM     20  C   UNL     1      16.433 -11.137   0.000  0.00  0.00    +0.000 C 
BRANCH  20  21
ATOM     21  O   UNL     1      17.147 -11.550   0.000  0.00  0.00    +0.000 OA
BRANCH  21  22
ATOM     22  C   UNL     1      17.862 -11.137   0.000  0.00  0.00    +0.000 C 
ATOM     23  O   UNL     1      17.862 -10.312   0.000  0.00  0.00    +0.000 OA
BRANCH  22  24
ATOM     24  C   UNL     1      18.576 -11.550   0.000  0.00  0.00    +0.000 C 
BRANCH  24  25
ATOM     25  C   UNL     1      19.291 -11.137   0.000  0.00  0.00    +0.000 C 
BRANCH  25  26
ATOM     26  C   UNL     1      20.005 -11.550   0.000  0.00  0.00    +0.000 C 
BRANCH  26  27
ATOM     27  C   UNL     1      20.720 -11.137   0.000  0.00  0.00    +0.000 C 
BRANCH  27  28
ATOM     28  C   UNL     1      21.434 -11.550   0.000  0.00  0.00    +0.000 C 
BRANCH  28  29
ATOM     29  C   UNL     1      22.149 -11.137   0.000  0.00  0.00    +0.000 C 
BRANCH  29  30
ATOM     30  C   UNL     1      22.863 -11.550   0.000  0.00  0.00    +0.000 C 
BRANCH  30  31
ATOM     31  C   UNL     1      23.578 -11.137   0.000  0.00  0.00    +0.000 C 
BRANCH  31  32
ATOM     32  C   UNL     1      24.292 -11.550   0.000  0.00  0.00    +0.000 C 
BRANCH  32  33
ATOM     33  C   UNL     1      25.006 -11.137   0.000  0.00  0.00    +0.000 C 
BRANCH  33  34
ATOM     34  C   UNL     1      25.721 -11.550   0.000  0.00  0.00    +0.000 C 
ATOM     35  C   UNL     1      26.435 -11.137   0.000  0.00  0.00    +0.000 C 
ENDBRANCH  33  34
ENDBRANCH  32  33
ENDBRANCH  31  32
ENDBRANCH  30  31
ENDBRANCH  29  30
ENDBRANCH  28  29
ENDBRANCH  27  28
ENDBRANCH  26  27
ENDBRANCH  25  26
ENDBRANCH  24  25
ENDBRANCH  22  24
ENDBRANCH  21  22
ENDBRANCH  20  21
ENDBRANCH   1  20
BRANCH   1  36
ATOM     36  C   UNL     1      15.718 -12.375   0.000  0.00  0.00    +0.000 C 
BRANCH  36  37
ATOM     37  O   UNL     1      16.433 -12.787   0.000  0.00  0.00    +0.000 OA
BRANCH  37  38
ATOM     38  C   UNL     1      16.433 -13.613   0.000  0.00  0.00    +0.000 C 
ATOM     39  O   UNL     1      17.147 -14.025   0.000  0.00  0.00    +0.000 OA
ATOM     40  C   UNL     1      17.147 -14.850   0.000  0.00  0.00    +0.000 C 
ATOM     41  C   UNL     1      16.433 -15.262   0.000  0.00  0.00    +0.000 C 
ATOM     42  O   UNL     1      16.433 -16.087   0.000  0.00  0.00    +0.000 OA
ATOM     43  C   UNL     1      15.718 -14.850   0.000  0.00  0.00    +0.000 C 
ATOM     44  O   UNL     1      15.004 -15.262   0.000  0.00  0.00    +0.000 OA
ATOM     45  C   UNL     1      15.718 -14.025   0.000  0.00  0.00    +0.000 C 
ATOM     46  O   UNL     1      15.004 -13.613   0.000  0.00  0.00    +0.000 OA
BRANCH  40  47
ATOM     47  C   UNL     1      17.862 -15.262   0.000  0.00  0.00    +0.000 C 
ATOM     48  O   UNL     1      17.862 -16.087   0.000  0.00  0.00    +0.000 OA
ENDBRANCH  40  47
ENDBRANCH  37  38
ENDBRANCH  36  37
ENDBRANCH   1  36
TORSDOF 34
