REMARK  Name = 
REMARK  4 active torsions:
REMARK  status: ('A' for Active; 'I' for Inactive)
REMARK    1  A    between atoms: C_11  and  C_18
REMARK    2  A    between atoms: N_20  and  CA_21
REMARK    3  A    between atoms: CA_21  and  C_22
REMARK    4  A    between atoms: CA_21  and  C_25
REMARK                            x       y       z     vdW  Elec       q    Type
REMARK                         _______ _______ _______ _____ _____    ______ ____
ROOT
ATOM      1  C   UNL     1      -3.624   0.088   0.000  0.00  0.00    +0.000 A 
ATOM      2  C   UNL     1      -4.339  -0.324   0.000  0.00  0.00    +0.000 A 
ATOM      3  C   UNL     1      -4.339  -1.149   0.000  0.00  0.00    +0.000 A 
ATOM      4  C   UNL     1      -3.624  -1.562   0.000  0.00  0.00    +0.000 A 
ATOM      5  C   UNL     1      -2.910  -1.149   0.000  0.00  0.00    +0.000 A 
ATOM      6  C   UNL     1      -2.910  -0.324   0.000  0.00  0.00    +0.000 A 
ATOM      7  C   UNL     1      -2.195   0.088   0.000  0.00  0.00    +0.000 C 
ATOM      8  C   UNL     1      -2.195  -1.562   0.000  0.00  0.00    +0.000 A 
ATOM      9  C   UNL     1      -1.481  -1.149   0.000  0.00  0.00    +0.000 C 
ATOM     10  C   UNL     1      -1.481  -0.324   0.000  0.00  0.00    +0.000 C 
ATOM     11  C   UNL     1      -1.481   1.326   0.000  0.00  0.00    +0.000 C 
ATOM     12  C   UNL     1      -2.195   0.913   0.000  0.00  0.00    +0.000 C 
ATOM     13  N   UNL     1      -0.766   0.088   0.000  0.00  0.00    +0.000 NA
ATOM     14  C   UNL     1      -0.766   0.913   0.000  0.00  0.00    +0.000 C 
ATOM     15  C   UNL     1      -2.409  -2.358   0.000  0.00  0.00    +0.000 A 
ATOM     16  N   UNL     1      -3.411  -2.358   0.000  0.00  0.00    +0.000 N 
ATOM     17  C   UNL     1      -0.052  -0.324   0.000  0.00  0.00    +0.000 C 
ATOM     18  C   UNL     1      -3.823  -3.073   0.000  0.00  0.00    +0.000 C 
ENDROOT
BRANCH  11  19
ATOM     19  C   UNL     1      -1.481   2.151   0.000  0.00  0.00    +0.000 C 
ATOM     20  N   UNL     1      -0.766   2.563   0.000  0.00  0.00    +0.000 NA
ATOM     21  O   UNL     1      -2.195   2.563   0.000  0.00  0.00    +0.000 OA
BRANCH  20  22
ATOM     22  CA  UNL     1      -0.052   2.151   0.000  0.00  0.00    +0.000 C 
BRANCH  22  23
ATOM     23  C   UNL     1       0.663   2.563   0.000  0.00  0.00    +0.000 C 
ATOM     24  C   UNL     1       1.377   2.151   0.000  0.00  0.00    +0.000 C 
ENDBRANCH  22  23
BRANCH  22  25
ATOM     25  C   UNL     1      -0.052   1.326   0.000  0.00  0.00    +0.000 C 
ATOM     26  O   UNL     1       0.663   0.913   0.000  0.00  0.00    +0.000 OA
ENDBRANCH  22  25
ENDBRANCH  20  22
ENDBRANCH  11  19
TORSDOF 4
