REMARK  Name = 
REMARK  5 active torsions:
REMARK  status: ('A' for Active; 'I' for Inactive)
REMARK    1  A    between atoms: C_1  and  C_2
REMARK    2  A    between atoms: C_1  and  C_5
REMARK    3  A    between atoms: C_2  and  O_15
REMARK    4  A    between atoms: C_3  and  C_6
REMARK    5  A    between atoms: C_10  and  O_15
REMARK                            x       y       z     vdW  Elec       q    Type
REMARK                         _______ _______ _______ _____ _____    ______ ____
ROOT
ATOM      1  C   UNL     1       0.412   8.139   0.000  0.00  0.00    +0.000 C 
ATOM      2  C   UNL     1      -0.302   7.727   0.000  0.00  0.00    +0.000 C 
ATOM      3  C   UNL     1      -0.302   6.902   0.000  0.00  0.00    +0.000 C 
ATOM      4  C   UNL     1       0.412   6.489   0.000  0.00  0.00    +0.000 C 
ATOM      5  C   UNL     1       1.127   6.902   0.000  0.00  0.00    +0.000 C 
ATOM      6  O   UNL     1      -1.016   8.139   0.000  0.00  0.00    +0.000 OA
ATOM      7  O   UNL     1      -1.016   6.489   0.000  0.00  0.00    +0.000 OA
ATOM      8  O   UNL     1       0.412   5.665   0.000  0.00  0.00    +0.000 OA
ATOM      9  O   UNL     1       1.127   7.727   0.000  0.00  0.00    +0.000 OA
ENDROOT
BRANCH   1  10
ATOM     10  C   UNL     1       0.412   8.964   0.000  0.00  0.00    +0.000 C 
ATOM     11  O   UNL     1      -0.302   9.377   0.000  0.00  0.00    +0.000 OA
ENDBRANCH   1  10
BRANCH   5  12
ATOM     12  O   UNL     1       1.841   6.489   0.000  0.00  0.00    +0.000 OA
BRANCH  12  13
ATOM     13  C   UNL     1       1.841   5.665   0.000  0.00  0.00    +0.000 C 
BRANCH  13  14
ATOM     14  C   UNL     1       2.556   5.252   0.000  0.00  0.00    +0.000 C 
BRANCH  14  16
ATOM     15  C   UNL     1       2.968   3.712   0.000  0.00  0.00    +0.000 C 
ATOM     16  C   UNL     1       2.556   4.427   0.000  0.00  0.00    +0.000 C 
ATOM     17  O   UNL     1       2.143   3.712   0.000  0.00  0.00    +0.000 OA
ENDBRANCH  14  16
ENDBRANCH  13  14
ENDBRANCH  12  13
ENDBRANCH   5  12
TORSDOF 5
