REMARK  Name = 
REMARK  11 active torsions:
REMARK  status: ('A' for Active; 'I' for Inactive)
REMARK    1  A    between atoms: C_2  and  C_3
REMARK    2  A    between atoms: C_3  and  C_16
REMARK    3  A    between atoms: C_14  and  C_15
REMARK    4  A    between atoms: C_14  and  C_20
REMARK    5  A    between atoms: C_15  and  C_21
REMARK    6  A    between atoms: C_16  and  C_24
REMARK    7  A    between atoms: C_17  and  C_24
REMARK    8  A    between atoms: C_17  and  O_32
REMARK    9  A    between atoms: C_18  and  N_25
REMARK   10  A    between atoms: C_19  and  N_26
REMARK   11  A    between atoms: C_21  and  O_32
REMARK                            x       y       z     vdW  Elec       q    Type
REMARK                         _______ _______ _______ _____ _____    ______ ____
ROOT
ATOM      1  C   UNL     1       1.292   3.075   0.000  0.00  0.00    +0.000 C 
ATOM      2  C   UNL     1       1.569   4.381   0.000  0.00  0.00    +0.000 C 
ATOM      3  C   UNL     1       1.905   3.627   0.000  0.00  0.00    +0.000 C 
ATOM      4  N   UNL     1       0.577   3.488   0.000  0.00  0.00    +0.000 N 
ATOM      5  N   UNL     1       0.749   4.295   0.000  0.00  0.00    +0.000 N 
ATOM      6  O   UNL     1       1.378   2.255   0.000  0.00  0.00    +0.000 OA
ATOM      7  O   UNL     1       1.982   5.095   0.000  0.00  0.00    +0.000 OA
ENDROOT
BRANCH   4  13
ATOM      8  C   UNL     1      -1.684   2.481   0.000  0.00  0.00    +0.000 A 
ATOM      9  C   UNL     1      -1.016   1.996   0.000  0.00  0.00    +0.000 A 
ATOM     10  C   UNL     1      -1.598   3.301   0.000  0.00  0.00    +0.000 A 
ATOM     11  C   UNL     1      -0.263   2.332   0.000  0.00  0.00    +0.000 A 
ATOM     12  C   UNL     1      -0.844   3.637   0.000  0.00  0.00    +0.000 A 
ATOM     13  C   UNL     1      -0.176   3.152   0.000  0.00  0.00    +0.000 A 
ENDBRANCH   4  13
BRANCH   5  19
ATOM     14  C   UNL     1      -0.907   6.134   0.000  0.00  0.00    +0.000 A 
ATOM     15  C   UNL     1      -1.162   5.349   0.000  0.00  0.00    +0.000 A 
ATOM     16  C   UNL     1      -0.100   6.306   0.000  0.00  0.00    +0.000 A 
ATOM     17  C   UNL     1      -0.610   4.736   0.000  0.00  0.00    +0.000 A 
ATOM     18  C   UNL     1       0.452   5.692   0.000  0.00  0.00    +0.000 A 
ATOM     19  C   UNL     1       0.197   4.908   0.000  0.00  0.00    +0.000 A 
ENDBRANCH   5  19
BRANCH   3  20
ATOM     20  C   UNL     1       2.390   2.960   0.000  0.00  0.00    +0.000 C 
BRANCH  20  21
ATOM     21  C   UNL     1       3.210   3.046   0.000  0.00  0.00    +0.000 C 
BRANCH  21  23
ATOM     22  C   UNL     1       4.516   2.465   0.000  0.00  0.00    +0.000 C 
ATOM     23  C   UNL     1       3.695   2.379   0.000  0.00  0.00    +0.000 C 
ENDBRANCH  21  23
ENDBRANCH  20  21
ENDBRANCH   3  20
BRANCH   3  24
ATOM     24  C   UNL     1       2.619   4.040   0.000  0.00  0.00    +0.000 C 
BRANCH  24  25
ATOM     25  O   UNL     1       3.334   3.627   0.000  0.00  0.00    +0.000 OA
BRANCH  25  26
ATOM     26  C   UNL     1       4.048   4.040   0.000  0.00  0.00    +0.000 C 
ATOM     27  O   UNL     1       4.048   4.865   0.000  0.00  0.00    +0.000 OA
BRANCH  26  28
ATOM     28  C   UNL     1       4.763   3.627   0.000  0.00  0.00    +0.000 C 
BRANCH  28  29
ATOM     29  C   UNL     1       5.477   4.040   0.000  0.00  0.00    +0.000 C 
BRANCH  29  30
ATOM     30  C   UNL     1       6.192   3.627   0.000  0.00  0.00    +0.000 C 
ATOM     31  O   UNL     1       6.906   4.040   0.000  0.00  0.00    +0.000 OA
ATOM     32  O   UNL     1       6.192   2.802   0.000  0.00  0.00    +0.000 OA
ENDBRANCH  29  30
ENDBRANCH  28  29
ENDBRANCH  26  28
ENDBRANCH  25  26
ENDBRANCH  24  25
ENDBRANCH   3  24
TORSDOF 11
