REMARK  Name = 
REMARK  0 active torsions:
REMARK  status: ('A' for Active; 'I' for Inactive)
REMARK                            x       y       z     vdW  Elec       q    Type
REMARK                         _______ _______ _______ _____ _____    ______ ____
ROOT
ATOM      1  O   UNL     1       1.238   0.715   0.000  0.00  0.00    +0.000 OA
ATOM      2 SE   UNL     1       0.825   0.000   0.000  0.00  0.00    +0.000 Se
ATOM      3  O   UNL     1       1.238  -0.715   0.000  0.00  0.00    +0.000 OA
ATOM      4  O   UNL     1       0.000   0.000   0.000  0.00  0.00    +0.000 OA
ENDROOT
TORSDOF 0
