REMARK  Name = 
REMARK  6 active torsions:
REMARK  status: ('A' for Active; 'I' for Inactive)
REMARK    1  A    between atoms: C_2  and  C_5
REMARK    2  A    between atoms: C_2  and  C_6
REMARK    3  A    between atoms: C_3  and  C_4
REMARK    4  A    between atoms: C_3  and  P_15
REMARK    5  A    between atoms: C_4  and  C_7
REMARK    6  A    between atoms: C_5  and  P_15
REMARK                            x       y       z     vdW  Elec       q    Type
REMARK                         _______ _______ _______ _____ _____    ______ ____
ROOT
ATOM      1  O   UNL     1      -0.825   0.000   0.000  0.00  0.00    +0.000 OA
ATOM      2  O   UNL     1       0.825   0.000   0.000  0.00  0.00    +0.000 OA
ATOM      3  P   UNL     1       0.000   0.000   0.000  0.00  0.00    +0.000 P 
ENDROOT
BRANCH   3   4
ATOM      4  C   UNL     1       0.000   0.825   0.000  0.00  0.00    +0.000 C 
ATOM      5  N   UNL     1       0.715   1.238   0.000  0.00  0.00    +0.000 NA
BRANCH   4   6
ATOM      6  C   UNL     1      -0.715   1.238   0.000  0.00  0.00    +0.000 C 
BRANCH   6   7
ATOM      7  C   UNL     1      -0.715   2.062   0.000  0.00  0.00    +0.000 C 
ATOM      8  O   UNL     1      -1.429   2.475   0.000  0.00  0.00    +0.000 OA
ATOM      9  O   UNL     1       0.000   2.475   0.000  0.00  0.00    +0.000 OA
ENDBRANCH   6   7
ENDBRANCH   4   6
ENDBRANCH   3   4
BRANCH   3  10
ATOM     10  C   UNL     1       0.000  -0.825   0.000  0.00  0.00    +0.000 C 
BRANCH  10  12
ATOM     11  C   UNL     1       1.429  -0.825   0.000  0.00  0.00    +0.000 C 
ATOM     12  C   UNL     1       0.715  -1.238   0.000  0.00  0.00    +0.000 C 
BRANCH  12  13
ATOM     13  C   UNL     1       0.715  -2.062   0.000  0.00  0.00    +0.000 C 
ATOM     14  O   UNL     1       1.429  -2.475   0.000  0.00  0.00    +0.000 OA
ATOM     15  O   UNL     1       0.000  -2.475   0.000  0.00  0.00    +0.000 OA
ENDBRANCH  12  13
ENDBRANCH  10  12
ENDBRANCH   3  10
TORSDOF 6
