REMARK  Name = 
REMARK  2 active torsions:
REMARK  status: ('A' for Active; 'I' for Inactive)
REMARK    1  A    between atoms: C_3  and  O_4
REMARK    2  A    between atoms: O_4  and  P_5
REMARK                            x       y       z     vdW  Elec       q    Type
REMARK                         _______ _______ _______ _____ _____    ______ ____
ROOT
ATOM      1  O   UNL     1      -0.412  -0.715   0.000  0.00  0.00    +0.000 OA
ENDROOT
BRANCH   1   2
ATOM      2  P   UNL     1       0.000  -1.429   0.000  0.00  0.00    +0.000 P 
ATOM      3  O   UNL     1       0.412  -2.143   0.000  0.00  0.00    +0.000 OA
ATOM      4  O   UNL     1      -0.715  -1.841   0.000  0.00  0.00    +0.000 OA
ATOM      5  O   UNL     1       0.715  -1.016   0.000  0.00  0.00    +0.000 OA
ENDBRANCH   1   2
BRANCH   1   8
ATOM      6  N   UNL     1       1.238   0.715   0.000  0.00  0.00    +0.000 NA
ATOM      7  C   UNL     1       0.825   0.000   0.000  0.00  0.00    +0.000 C 
ATOM      8  C   UNL     1       0.000   0.000   0.000  0.00  0.00    +0.000 C 
ENDBRANCH   1   8
TORSDOF 2
