REMARK  Name = 
REMARK  5 active torsions:
REMARK  status: ('A' for Active; 'I' for Inactive)
REMARK    1  A    between atoms: N_4  and  C_9
REMARK    2  A    between atoms: C_8  and  O_16
REMARK    3  A    between atoms: C_10  and  O_24
REMARK    4  A    between atoms: O_16  and  C_22
REMARK    5  A    between atoms: C_22  and  C_26
REMARK                            x       y       z     vdW  Elec       q    Type
REMARK                         _______ _______ _______ _____ _____    ______ ____
ROOT
ATOM      1  C   UNL     1       5.721  -2.893   0.000  0.00  0.00    +0.000 A 
ATOM      2  C   UNL     1       6.437  -2.474   0.000  0.00  0.00    +0.000 A 
ATOM      3  C   UNL     1       5.721  -3.712   0.000  0.00  0.00    +0.000 A 
ATOM      4  N   UNL     1       6.437  -1.647   0.000  0.00  0.00    +0.000 NA
ATOM      5  C   UNL     1       5.014  -2.474   0.000  0.00  0.00    +0.000 A 
ATOM      6  N   UNL     1       7.154  -2.893   0.000  0.00  0.00    +0.000 NA
ATOM      7  C   UNL     1       5.014  -4.121   0.000  0.00  0.00    +0.000 A 
ATOM      8  C   UNL     1       4.298  -3.712   0.000  0.00  0.00    +0.000 A 
ATOM      9  C   UNL     1       4.298  -2.893   0.000  0.00  0.00    +0.000 A 
ATOM     10  N   UNL     1       6.437  -4.121   0.000  0.00  0.00    +0.000 NA
ATOM     11  C   UNL     1       7.154  -3.712   0.000  0.00  0.00    +0.000 A 
ENDROOT
BRANCH   4  12
ATOM     12  C   UNL     1       7.144  -1.246   0.000  0.00  0.00    +0.000 A 
ATOM     13  C   UNL     1       7.860  -1.647   0.000  0.00  0.00    +0.000 A 
ATOM     14  C   UNL     1       8.577  -1.246   0.000  0.00  0.00    +0.000 A 
ATOM     15  C   UNL     1       7.144  -0.409   0.000  0.00  0.00    +0.000 A 
ATOM     16  C   UNL     1       8.577  -0.409   0.000  0.00  0.00    +0.000 A 
ATOM     17  F   UNL     1       7.860  -2.474   0.000  0.00  0.00    +0.000 F 
ATOM     18  C   UNL     1       7.860   0.000   0.000  0.00  0.00    +0.000 A 
ATOM     19 BR   UNL     1       9.302   0.000   0.000  0.00  0.00    +0.000 Br
ENDBRANCH   4  12
BRANCH   9  20
ATOM     20  O   UNL     1       3.581  -2.474   0.000  0.00  0.00    +0.000 OA
ATOM     21  C   UNL     1       2.865  -2.893   0.000  0.00  0.00    +0.000 C 
ENDBRANCH   9  20
BRANCH   8  22
ATOM     22  O   UNL     1       3.581  -4.130   0.000  0.00  0.00    +0.000 OA
BRANCH  22  23
ATOM     23  C   UNL     1       2.865  -3.712   0.000  0.00  0.00    +0.000 C 
BRANCH  23  27
ATOM     24  N   UNL     1       0.726  -4.967   0.000  0.00  0.00    +0.000 NA
ATOM     25  C   UNL     1       0.716  -4.149   0.000  0.00  0.00    +0.000 C 
ATOM     26  C   UNL     1       1.442  -5.377   0.000  0.00  0.00    +0.000 C 
ATOM     27  C   UNL     1       2.149  -4.139   0.000  0.00  0.00    +0.000 C 
ATOM     28  C   UNL     1       2.158  -4.967   0.000  0.00  0.00    +0.000 C 
ATOM     29  C   UNL     1       1.433  -3.730   0.000  0.00  0.00    +0.000 C 
ATOM     30  C   UNL     1       0.000  -5.395   0.000  0.00  0.00    +0.000 C 
ENDBRANCH  23  27
ENDBRANCH  22  23
ENDBRANCH   8  22
TORSDOF 5
