REMARK  Name = 
REMARK  4 active torsions:
REMARK  status: ('A' for Active; 'I' for Inactive)
REMARK    1  A    between atoms: O_2  and  C_3
REMARK    2  A    between atoms: C_3  and  C_5
REMARK    3  A    between atoms: C_10  and  C_11
REMARK    4  A    between atoms: C_11  and  O_13
REMARK                            x       y       z     vdW  Elec       q    Type
REMARK                         _______ _______ _______ _____ _____    ______ ____
ROOT
ATOM      1  C   UNL     1       1.429   0.825   0.000  0.00  0.00    +0.000 A 
ATOM      2  C   UNL     1       1.429   0.000   0.000  0.00  0.00    +0.000 A 
ATOM      3  C   UNL     1       0.715  -0.412   0.000  0.00  0.00    +0.000 A 
ATOM      4  C   UNL     1       0.000   0.000   0.000  0.00  0.00    +0.000 A 
ATOM      5  C   UNL     1       0.000   0.825   0.000  0.00  0.00    +0.000 A 
ATOM      6  C   UNL     1       0.715   1.238   0.000  0.00  0.00    +0.000 A 
ENDROOT
BRANCH   1   7
ATOM      7  C   UNL     1       2.143   1.238   0.000  0.00  0.00    +0.000 C 
ATOM      8  O   UNL     1       2.143   2.062   0.000  0.00  0.00    +0.000 OA
BRANCH   7  10
ATOM      9  C   UNL     1       3.572   1.238   0.000  0.00  0.00    +0.000 C 
ATOM     10  O   UNL     1       2.858   0.825   0.000  0.00  0.00    +0.000 OA
ENDBRANCH   7  10
ENDBRANCH   1   7
BRANCH   6  11
ATOM     11  C   UNL     1       0.715   2.062   0.000  0.00  0.00    +0.000 C 
ATOM     12  O   UNL     1       0.000   2.475   0.000  0.00  0.00    +0.000 OA
BRANCH  11  13
ATOM     13  O   UNL     1       1.429   2.475   0.000  0.00  0.00    +0.000 OA
ATOM     14  C   UNL     1       1.429   3.300   0.000  0.00  0.00    +0.000 C 
ENDBRANCH  11  13
ENDBRANCH   6  11
TORSDOF 4
