REMARK  Name = 
REMARK  7 active torsions:
REMARK  status: ('A' for Active; 'I' for Inactive)
REMARK    1  A    between atoms: C_5  and  C_7
REMARK    2  A    between atoms: C_7  and  C_8
REMARK    3  A    between atoms: C_7  and  C_19
REMARK    4  A    between atoms: C_8  and  C_9
REMARK    5  A    between atoms: C_9  and  N_10
REMARK    6  A    between atoms: N_10  and  C_11
REMARK    7  A    between atoms: N_10  and  C_14
REMARK                            x       y       z     vdW  Elec       q    Type
REMARK                         _______ _______ _______ _____ _____    ______ ____
ROOT
ATOM      1  C   UNL     1      -1.812   0.265   0.000  0.00  0.00    +0.000 C 
ENDROOT
BRANCH   1   6
ATOM      2  C   UNL     1      -3.241   1.915   0.000  0.00  0.00    +0.000 A 
ATOM      3  C   UNL     1      -3.955   1.503   0.000  0.00  0.00    +0.000 A 
ATOM      4  C   UNL     1      -3.955   0.678   0.000  0.00  0.00    +0.000 A 
ATOM      5  C   UNL     1      -3.241   0.265   0.000  0.00  0.00    +0.000 A 
ATOM      6  C   UNL     1      -2.527   0.678   0.000  0.00  0.00    +0.000 A 
ATOM      7  C   UNL     1      -2.527   1.503   0.000  0.00  0.00    +0.000 A 
ATOM      8  C   UNL     1      -4.670   0.265   0.000  0.00  0.00    +0.000 C 
ATOM      9  O   UNL     1      -1.812   1.915   0.000  0.00  0.00    +0.000 OA
ENDBRANCH   1   6
BRANCH   1  10
ATOM     10  C   UNL     1      -1.812  -0.560   0.000  0.00  0.00    +0.000 A 
ATOM     11  C   UNL     1      -2.527  -0.972   0.000  0.00  0.00    +0.000 A 
ATOM     12  C   UNL     1      -2.527  -1.797   0.000  0.00  0.00    +0.000 A 
ATOM     13  C   UNL     1      -1.812  -2.210   0.000  0.00  0.00    +0.000 A 
ATOM     14  C   UNL     1      -1.098  -1.797   0.000  0.00  0.00    +0.000 A 
ATOM     15  C   UNL     1      -1.098  -0.972   0.000  0.00  0.00    +0.000 A 
ENDBRANCH   1  10
BRANCH   1  16
ATOM     16  C   UNL     1      -1.098   0.678   0.000  0.00  0.00    +0.000 C 
BRANCH  16  17
ATOM     17  C   UNL     1      -0.383   0.265   0.000  0.00  0.00    +0.000 C 
BRANCH  17  18
ATOM     18  N   UNL     1       0.331   0.678   0.000  0.00  0.00    +0.000 NA
BRANCH  18  19
ATOM     19  C   UNL     1       1.046   0.265   0.000  0.00  0.00    +0.000 C 
ATOM     20  C   UNL     1       1.760   0.678   0.000  0.00  0.00    +0.000 C 
ATOM     21  C   UNL     1       1.046  -0.560   0.000  0.00  0.00    +0.000 C 
ENDBRANCH  18  19
BRANCH  18  22
ATOM     22  C   UNL     1       0.331   1.503   0.000  0.00  0.00    +0.000 C 
ATOM     23  C   UNL     1      -0.383   1.915   0.000  0.00  0.00    +0.000 C 
ATOM     24  C   UNL     1       1.046   1.915   0.000  0.00  0.00    +0.000 C 
ENDBRANCH  18  22
ENDBRANCH  17  18
ENDBRANCH  16  17
ENDBRANCH   1  16
TORSDOF 7
