REMARK  Name = 
REMARK  15 active torsions:
REMARK  status: ('A' for Active; 'I' for Inactive)
REMARK    1  A    between atoms: C_2  and  C_3
REMARK    2  A    between atoms: C_3  and  C_4
REMARK    3  A    between atoms: C_4  and  C_5
REMARK    4  A    between atoms: C_5  and  C_6
REMARK    5  A    between atoms: C_6  and  C_7
REMARK    6  A    between atoms: C_7  and  C_8
REMARK    7  A    between atoms: C_8  and  C_9
REMARK    8  A    between atoms: C_9  and  C_10
REMARK    9  A    between atoms: C_10  and  C_11
REMARK   10  A    between atoms: C_11  and  C_12
REMARK   11  A    between atoms: C_12  and  C_13
REMARK   12  A    between atoms: C_13  and  C_14
REMARK   13  A    between atoms: C_15  and  C_18
REMARK   14  A    between atoms: C_16  and  C_17
REMARK   15  A    between atoms: C_17  and  C_18
REMARK                            x       y       z     vdW  Elec       q    Type
REMARK                         _______ _______ _______ _____ _____    ______ ____
ROOT
ATOM      1  C   UNK     1      11.903   3.572   0.000  0.00  0.00    +0.000 C 
ENDROOT
BRANCH   1   2
ATOM      2  C   UNK     1      12.618   3.985   0.000  0.00  0.00    +0.000 C 
BRANCH   2   3
ATOM      3  C   UNK     1      13.332   3.572   0.000  0.00  0.00    +0.000 C 
BRANCH   3   4
ATOM      4  C   UNK     1      14.047   3.985   0.000  0.00  0.00    +0.000 C 
ATOM      5  C   UNK     1      14.761   3.572   0.000  0.00  0.00    +0.000 C 
BRANCH   5   6
ATOM      6  C   UNK     1      15.476   3.985   0.000  0.00  0.00    +0.000 C 
ATOM      7  O   UNK     1      16.190   3.572   0.000  0.00  0.00    +0.000 OA
BRANCH   6   8
ATOM      8  C   UNK     1      15.476   4.810   0.000  0.00  0.00    +0.000 C 
ATOM      9  N   UNK     1      14.761   5.222   0.000  0.00  0.00    +0.000 NA
BRANCH   8  10
ATOM     10  C   UNK     1      16.190   5.222   0.000  0.00  0.00    +0.000 C 
ATOM     11  O   UNK     1      16.190   6.047   0.000  0.00  0.00    +0.000 OA
ENDBRANCH   8  10
ENDBRANCH   6   8
ENDBRANCH   5   6
ENDBRANCH   3   4
ENDBRANCH   2   3
ENDBRANCH   1   2
BRANCH   1  12
ATOM     12  C   UNK     1      11.189   3.985   0.000  0.00  0.00    +0.000 C 
BRANCH  12  13
ATOM     13  C   UNK     1      10.474   3.572   0.000  0.00  0.00    +0.000 C 
BRANCH  13  14
ATOM     14  C   UNK     1       9.760   3.985   0.000  0.00  0.00    +0.000 C 
BRANCH  14  15
ATOM     15  C   UNK     1       9.045   3.572   0.000  0.00  0.00    +0.000 C 
BRANCH  15  16
ATOM     16  C   UNK     1       8.331   3.985   0.000  0.00  0.00    +0.000 C 
BRANCH  16  17
ATOM     17  C   UNK     1       7.616   3.572   0.000  0.00  0.00    +0.000 C 
BRANCH  17  18
ATOM     18  C   UNK     1       6.902   3.985   0.000  0.00  0.00    +0.000 C 
BRANCH  18  19
ATOM     19  C   UNK     1       6.188   3.572   0.000  0.00  0.00    +0.000 C 
BRANCH  19  21
ATOM     20  C   UNK     1       4.759   3.572   0.000  0.00  0.00    +0.000 C 
ATOM     21  C   UNK     1       5.473   3.985   0.000  0.00  0.00    +0.000 C 
ENDBRANCH  19  21
ENDBRANCH  18  19
ENDBRANCH  17  18
ENDBRANCH  16  17
ENDBRANCH  15  16
ENDBRANCH  14  15
ENDBRANCH  13  14
ENDBRANCH  12  13
ENDBRANCH   1  12
TORSDOF 15
