REMARK  Name = 
REMARK  6 active torsions:
REMARK  status: ('A' for Active; 'I' for Inactive)
REMARK    1  A    between atoms: C_2  and  C_3
REMARK    2  A    between atoms: C_6  and  C_7
REMARK    3  A    between atoms: C_7  and  N_8
REMARK    4  A    between atoms: N_8  and  C_9
REMARK    5  A    between atoms: C_9  and  C_10
REMARK    6  A    between atoms: C_10  and  C_11
REMARK                            x       y       z     vdW  Elec       q    Type
REMARK                         _______ _______ _______ _____ _____    ______ ____
ROOT
ATOM      1  C   UNL     1       0.000   2.475   0.000  0.00  0.00    +0.000 A 
ATOM      2  C   UNL     1       0.715   2.888   0.000  0.00  0.00    +0.000 A 
ATOM      3  C   UNL     1       1.429   2.475   0.000  0.00  0.00    +0.000 A 
ATOM      4  C   UNL     1       1.429   1.650   0.000  0.00  0.00    +0.000 A 
ATOM      5  C   UNL     1       0.715   1.238   0.000  0.00  0.00    +0.000 A 
ATOM      6  C   UNL     1       0.000   1.650   0.000  0.00  0.00    +0.000 A 
ENDROOT
BRANCH   1   8
ATOM      7  N   UNL     1      -1.429   2.475   0.000  0.00  0.00    +0.000 NA
ATOM      8  C   UNL     1      -0.715   2.888   0.000  0.00  0.00    +0.000 C 
ENDBRANCH   1   8
BRANCH   4   9
ATOM      9  C   UNL     1       2.143   1.238   0.000  0.00  0.00    +0.000 C 
BRANCH   9  10
ATOM     10  N   UNL     1       2.858   1.650   0.000  0.00  0.00    +0.000 NA
BRANCH  10  11
ATOM     11  C   UNL     1       3.572   1.238   0.000  0.00  0.00    +0.000 C 
BRANCH  11  12
ATOM     12  C   UNL     1       4.287   1.650   0.000  0.00  0.00    +0.000 C 
BRANCH  12  13
ATOM     13  C   UNL     1       5.001   1.238   0.000  0.00  0.00    +0.000 C 
ATOM     14  O   UNL     1       5.716   1.650   0.000  0.00  0.00    +0.000 OA
ATOM     15  O   UNL     1       5.001   0.412   0.000  0.00  0.00    +0.000 OA
ENDBRANCH  12  13
ENDBRANCH  11  12
ENDBRANCH  10  11
ENDBRANCH   9  10
ENDBRANCH   4   9
TORSDOF 6
