REMARK  Name = 
REMARK  2 active torsions:
REMARK  status: ('A' for Active; 'I' for Inactive)
REMARK    1  A    between atoms: C_2  and  N_18
REMARK    2  A    between atoms: C_10  and  C_13
REMARK                            x       y       z     vdW  Elec       q    Type
REMARK                         _______ _______ _______ _____ _____    ______ ____
ROOT
ATOM      1  C   UNL     1      -0.715  -0.412   0.000  0.00  0.00    +0.000 C 
ATOM      2  C   UNL     1      -1.429   0.825   0.000  0.00  0.00    +0.000 C 
ATOM      3  C   UNL     1       0.000   0.000   0.000  0.00  0.00    +0.000 C 
ATOM      4  C   UNL     1      -0.715   1.238   0.000  0.00  0.00    +0.000 C 
ATOM      5  C   UNL     1       1.429   2.475   0.000  0.00  0.00    +0.000 A 
ATOM      6  C   UNL     1       3.572   1.238   0.000  0.00  0.00    +0.000 A 
ATOM      7  C   UNL     1       2.143   2.062   0.000  0.00  0.00    +0.000 A 
ATOM      8  C   UNL     1       3.572   2.062   0.000  0.00  0.00    +0.000 A 
ATOM      9  C   UNL     1       2.858   2.475   0.000  0.00  0.00    +0.000 A 
ATOM     10  C   UNL     1       2.143   1.238   0.000  0.00  0.00    +0.000 A 
ATOM     11  C   UNL     1       0.715   1.238   0.000  0.00  0.00    +0.000 A 
ATOM     12  N   UNL     1      -1.429   0.000   0.000  0.00  0.00    +0.000 NA
ATOM     13  N   UNL     1       0.715   2.062   0.000  0.00  0.00    +0.000 NA
ATOM     14  N   UNL     1       1.429   0.825   0.000  0.00  0.00    +0.000 NA
ATOM     15  N   UNL     1       2.858   0.825   0.000  0.00  0.00    +0.000 N 
ATOM     16  N   UNL     1       0.000   0.825   0.000  0.00  0.00    +0.000 N 
ATOM     17  O   UNL     1       2.858   3.300   0.000  0.00  0.00    +0.000 OA
ENDROOT
BRANCH   8  18
ATOM     18  C   UNL     1       4.287   2.475   0.000  0.00  0.00    +0.000 C 
ATOM     19  O   UNL     1       4.287   3.300   0.000  0.00  0.00    +0.000 OA
ATOM     20  O   UNL     1       5.001   2.062   0.000  0.00  0.00    +0.000 OA
ENDBRANCH   8  18
BRANCH  15  22
ATOM     21  C   UNL     1       2.143  -0.412   0.000  0.00  0.00    +0.000 C 
ATOM     22  C   UNL     1       2.858   0.000   0.000  0.00  0.00    +0.000 C 
ENDBRANCH  15  22
TORSDOF 2
