REMARK  Name = 
REMARK  8 active torsions:
REMARK  status: ('A' for Active; 'I' for Inactive)
REMARK    1  A    between atoms: C_3  and  O_41
REMARK    2  A    between atoms: C_18  and  C_19
REMARK    3  A    between atoms: C_18  and  N_35
REMARK    4  A    between atoms: C_21  and  C_28
REMARK    5  A    between atoms: C_22  and  C_29
REMARK    6  A    between atoms: C_25  and  O_40
REMARK    7  A    between atoms: C_26  and  C_30
REMARK    8  A    between atoms: C_27  and  O_41
REMARK                            x       y       z     vdW  Elec       q    Type
REMARK                         _______ _______ _______ _____ _____    ______ ____
ROOT
ATOM      1  C   UNL     1      -0.363  -3.378   0.000  0.00  0.00    +0.000 C 
ATOM      2  C   UNL     1      -1.319  -2.317   0.000  0.00  0.00    +0.000 C 
ATOM      3  C   UNL     1       0.250  -2.826   0.000  0.00  0.00    +0.000 C 
ATOM      4  C   UNL     1      -0.706  -1.765   0.000  0.00  0.00    +0.000 C 
ATOM      5  C   UNL     1       2.811  -1.722   0.000  0.00  0.00    +0.000 C 
ATOM      6  C   UNL     1       2.143  -1.238   0.000  0.00  0.00    +0.000 C 
ATOM      7  C   UNL     1       1.731  -2.507   0.000  0.00  0.00    +0.000 C 
ATOM      8  C   UNL     1       0.691  -1.468   0.000  0.00  0.00    +0.000 C 
ATOM      9  N   UNL     1       2.556  -2.507   0.000  0.00  0.00    +0.000 NA
ATOM     10  N   UNL     1      -1.148  -3.124   0.000  0.00  0.00    +0.000 NA
ATOM     11  N   UNL     1       0.078  -2.019   0.000  0.00  0.00    +0.000 N 
ATOM     12  N   UNL     1       1.476  -1.722   0.000  0.00  0.00    +0.000 N 
ATOM     13  O   UNL     1       0.520  -0.660   0.000  0.00  0.00    +0.000 OA
ENDROOT
BRANCH   5  18
ATOM     14  C   UNL     1       4.209  -2.019   0.000  0.00  0.00    +0.000 A 
ATOM     15  C   UNL     1       3.767  -0.660   0.000  0.00  0.00    +0.000 A 
ATOM     16  C   UNL     1       4.993  -1.765   0.000  0.00  0.00    +0.000 A 
ATOM     17  C   UNL     1       4.552  -0.406   0.000  0.00  0.00    +0.000 A 
ATOM     18  C   UNL     1       3.595  -1.468   0.000  0.00  0.00    +0.000 A 
ATOM     19  C   UNL     1       5.165  -0.958   0.000  0.00  0.00    +0.000 A 
ATOM     20 BR   UNL     1       5.949  -0.703   0.000  0.00  0.00    +0.000 Br
ENDBRANCH   5  18
BRANCH   6  25
ATOM     21  C   UNL     1       2.858   0.000   0.000  0.00  0.00    +0.000 A 
ATOM     22  C   UNL     1       1.429   0.000   0.000  0.00  0.00    +0.000 A 
ATOM     23  C   UNL     1       2.858   0.825   0.000  0.00  0.00    +0.000 A 
ATOM     24  C   UNL     1       1.429   0.825   0.000  0.00  0.00    +0.000 A 
ATOM     25  C   UNL     1       2.143  -0.412   0.000  0.00  0.00    +0.000 A 
ATOM     26  C   UNL     1       2.143   1.238   0.000  0.00  0.00    +0.000 A 
ATOM     27 BR   UNL     1       2.143   2.062   0.000  0.00  0.00    +0.000 Br
ENDBRANCH   6  25
BRANCH   7  32
ATOM     28  C   UNL     1      -0.059  -3.756   0.000  0.00  0.00    +0.000 A 
ATOM     29  C   UNL     1       0.425  -3.088   0.000  0.00  0.00    +0.000 A 
ATOM     30  C   UNL     1       1.097  -4.596   0.000  0.00  0.00    +0.000 A 
ATOM     31  C   UNL     1       0.276  -4.509   0.000  0.00  0.00    +0.000 A 
ATOM     32  C   UNL     1       1.246  -3.175   0.000  0.00  0.00    +0.000 A 
ATOM     33  C   UNL     1       1.581  -3.928   0.000  0.00  0.00    +0.000 A 
BRANCH  31  35
ATOM     34  C   UNL     1       0.127  -5.931   0.000  0.00  0.00    +0.000 C 
ATOM     35  O   UNL     1      -0.209  -5.177   0.000  0.00  0.00    +0.000 OA
ENDBRANCH  31  35
BRANCH  33  36
ATOM     36  O   UNL     1       2.402  -4.014   0.000  0.00  0.00    +0.000 OA
BRANCH  36  38
ATOM     37  C   UNL     1       3.558  -4.854   0.000  0.00  0.00    +0.000 C 
ATOM     38  C   UNL     1       2.738  -4.768   0.000  0.00  0.00    +0.000 C 
ENDBRANCH  36  38
ENDBRANCH  33  36
ENDBRANCH   7  32
BRANCH  10  39
ATOM     39  C   UNL     1      -1.761  -3.676   0.000  0.00  0.00    +0.000 C 
BRANCH  39  40
ATOM     40  C   UNL     1      -2.546  -3.421   0.000  0.00  0.00    +0.000 C 
ATOM     41  O   UNL     1      -3.159  -3.973   0.000  0.00  0.00    +0.000 OA
ENDBRANCH  39  40
ENDBRANCH  10  39
TORSDOF 8
