REMARK  Name = 
REMARK  5 active torsions:
REMARK  status: ('A' for Active; 'I' for Inactive)
REMARK    1  A    between atoms: O_2  and  C_3
REMARK    2  A    between atoms: C_5  and  C_6
REMARK    3  A    between atoms: C_8  and  O_9
REMARK    4  A    between atoms: O_9  and  C_10
REMARK    5  A    between atoms: C_12  and  C_13
REMARK                            x       y       z     vdW  Elec       q    Type
REMARK                         _______ _______ _______ _____ _____    ______ ____
ROOT
ATOM      1  C   UNL     1      -0.715  -1.238   0.000  0.00  0.00    +0.000 C 
ATOM      2  O   UNL     1      -1.429  -1.650   0.000  0.00  0.00    +0.000 OA
ATOM      3  C   UNL     1      -1.429  -2.475   0.000  0.00  0.00    +0.000 C 
ATOM      4  C   UNL     1      -0.715  -2.888   0.000  0.00  0.00    +0.000 C 
ATOM      5  C   UNL     1       0.000  -2.475   0.000  0.00  0.00    +0.000 C 
ATOM      6  O   UNL     1       0.715  -2.888   0.000  0.00  0.00    +0.000 OA
ATOM      7  C   UNL     1       0.000  -1.650   0.000  0.00  0.00    +0.000 C 
ATOM      8  O   UNL     1       0.715  -1.238   0.000  0.00  0.00    +0.000 OA
ENDROOT
BRANCH   1  10
ATOM      9  C   UNL     1       0.000   0.000   0.000  0.00  0.00    +0.000 C 
ATOM     10  O   UNL     1      -0.715  -0.412   0.000  0.00  0.00    +0.000 OA
ENDBRANCH   1  10
BRANCH   3  11
ATOM     11  C   UNL     1      -2.143  -2.888   0.000  0.00  0.00    +0.000 C 
ATOM     12  O   UNL     1      -2.143  -3.712   0.000  0.00  0.00    +0.000 OA
ENDBRANCH   3  11
BRANCH   4  13
ATOM     13  O   UNL     1      -0.715  -3.712   0.000  0.00  0.00    +0.000 OA
BRANCH  13  14
ATOM     14  C   UNL     1       0.000  -4.125   0.000  0.00  0.00    +0.000 C 
ATOM     15  O   UNL     1       0.715  -3.712   0.000  0.00  0.00    +0.000 OA
ATOM     16  C   UNL     1       1.429  -4.125   0.000  0.00  0.00    +0.000 C 
ATOM     17  C   UNL     1       1.429  -4.950   0.000  0.00  0.00    +0.000 C 
ATOM     18  O   UNL     1       2.143  -5.362   0.000  0.00  0.00    +0.000 OA
ATOM     19  C   UNL     1       0.715  -5.362   0.000  0.00  0.00    +0.000 C 
ATOM     20  O   UNL     1       0.715  -6.188   0.000  0.00  0.00    +0.000 OA
ATOM     21  C   UNL     1       0.000  -4.950   0.000  0.00  0.00    +0.000 C 
ATOM     22  O   UNL     1      -0.715  -5.362   0.000  0.00  0.00    +0.000 OA
BRANCH  16  23
ATOM     23  C   UNL     1       2.143  -3.712   0.000  0.00  0.00    +0.000 C 
ATOM     24  O   UNL     1       2.143  -2.888   0.000  0.00  0.00    +0.000 OA
ENDBRANCH  16  23
ENDBRANCH  13  14
ENDBRANCH   4  13
TORSDOF 5
