REMARK  Name = 
REMARK  12 active torsions:
REMARK  status: ('A' for Active; 'I' for Inactive)
REMARK    1  A    between atoms: C_3  and  C_4
REMARK    2  A    between atoms: C_4  and  C_5
REMARK    3  A    between atoms: C_5  and  C_6
REMARK    4  A    between atoms: C_14  and  C_15
REMARK    5  A    between atoms: C_15  and  C_16
REMARK    6  A    between atoms: C_16  and  C_17
REMARK    7  A    between atoms: C_29  and  C_30
REMARK    8  A    between atoms: C_30  and  C_31
REMARK    9  A    between atoms: C_31  and  C_32
REMARK   10  A    between atoms: C_42  and  C_43
REMARK   11  A    between atoms: C_43  and  C_44
REMARK   12  A    between atoms: C_44  and  C_45
REMARK                            x       y       z     vdW  Elec       q    Type
REMARK                         _______ _______ _______ _____ _____    ______ ____
ROOT
ATOM      1  C   UNL     1      -3.466  -0.815   0.000  0.00  0.00    +0.000 C 
ATOM      2  C   UNL     1      -2.768  -0.375   0.000  0.00  0.00    +0.000 A 
ATOM      3  C   UNL     1      -2.715   0.449   0.000  0.00  0.00    +0.000 A 
ATOM      4  C   UNL     1      -1.915   0.652   0.000  0.00  0.00    +0.000 A 
ATOM      5  C   UNL     1      -1.395   1.589   0.000  0.00  0.00    +0.000 C 
ATOM      6  C   UNL     1      -0.680   2.002   0.000  0.00  0.00    +0.000 A 
ATOM      7  C   UNL     1      -0.375   2.768   0.000  0.00  0.00    +0.000 A 
ATOM      8  C   UNL     1      -0.815   3.466   0.000  0.00  0.00    +0.000 C 
ATOM      9  C   UNL     1       0.449   2.715   0.000  0.00  0.00    +0.000 A 
ATOM     10  C   UNL     1       0.652   1.915   0.000  0.00  0.00    +0.000 A 
ATOM     11  C   UNL     1       1.589   1.395   0.000  0.00  0.00    +0.000 C 
ATOM     12  C   UNL     1       2.002   0.680   0.000  0.00  0.00    +0.000 A 
ATOM     13  N   UNL     1       1.475   0.046   0.000  0.00  0.00    +0.000 N 
ATOM     14  C   UNL     1       1.915  -0.652   0.000  0.00  0.00    +0.000 A 
ATOM     15  C   UNL     1       1.395  -1.589   0.000  0.00  0.00    +0.000 C 
ATOM     16  C   UNL     1       0.680  -2.002   0.000  0.00  0.00    +0.000 A 
ATOM     17  C   UNL     1       0.375  -2.768   0.000  0.00  0.00    +0.000 A 
ATOM     18  C   UNL     1       0.815  -3.466   0.000  0.00  0.00    +0.000 C 
ATOM     19  C   UNL     1      -0.449  -2.715   0.000  0.00  0.00    +0.000 A 
ATOM     20  C   UNL     1      -0.652  -1.915   0.000  0.00  0.00    +0.000 A 
ATOM     21  C   UNL     1      -1.589  -1.395   0.000  0.00  0.00    +0.000 C 
ATOM     22  C   UNL     1      -2.002  -0.680   0.000  0.00  0.00    +0.000 A 
ATOM     23  N   UNL     1      -1.475  -0.046   0.000  0.00  0.00    +0.000 N 
ATOM     24 CO   UNL     1       0.000   0.000   0.000  0.00  0.00    +0.000 Co
ATOM     25  N   UNL     1       0.046  -1.475   0.000  0.00  0.00    +0.000 N 
ATOM     26  N   UNL     1      -0.046   1.475   0.000  0.00  0.00    +0.000 N 
ATOM     27  C   UNL     1       2.715  -0.449   0.000  0.00  0.00    +0.000 A 
ATOM     28  C   UNL     1       2.768   0.375   0.000  0.00  0.00    +0.000 A 
ATOM     29  C   UNL     1       3.466   0.815   0.000  0.00  0.00    +0.000 C 
ENDROOT
BRANCH   3  30
ATOM     30  C   UNL     1      -3.349   0.976   0.000  0.00  0.00    +0.000 C 
BRANCH  30  31
ATOM     31  C   UNL     1      -4.123   0.690   0.000  0.00  0.00    +0.000 C 
BRANCH  31  32
ATOM     32  C   UNL     1      -4.757   1.218   0.000  0.00  0.00    +0.000 C 
ATOM     33  O   UNL     1      -5.531   0.932   0.000  0.00  0.00    +0.000 OA
ATOM     34  O   UNL     1      -4.618   2.031   0.000  0.00  0.00    +0.000 OA
ENDBRANCH  31  32
ENDBRANCH  30  31
ENDBRANCH   3  30
BRANCH   9  35
ATOM     35  C   UNL     1       0.976   3.349   0.000  0.00  0.00    +0.000 C 
BRANCH  35  36
ATOM     36  C   UNL     1       1.789   3.209   0.000  0.00  0.00    +0.000 C 
BRANCH  36  37
ATOM     37  C   UNL     1       2.317   3.844   0.000  0.00  0.00    +0.000 C 
ATOM     38  O   UNL     1       2.031   4.618   0.000  0.00  0.00    +0.000 OA
ATOM     39  O   UNL     1       3.130   3.704   0.000  0.00  0.00    +0.000 OA
ENDBRANCH  36  37
ENDBRANCH  35  36
ENDBRANCH   9  35
BRANCH  27  40
ATOM     40  C   UNL     1       3.349  -0.976   0.000  0.00  0.00    +0.000 C 
BRANCH  40  41
ATOM     41  C   UNL     1       4.123  -0.690   0.000  0.00  0.00    +0.000 C 
BRANCH  41  42
ATOM     42  C   UNL     1       4.757  -1.218   0.000  0.00  0.00    +0.000 C 
ATOM     43  O   UNL     1       5.531  -0.932   0.000  0.00  0.00    +0.000 OA
ATOM     44  O   UNL     1       4.618  -2.031   0.000  0.00  0.00    +0.000 OA
ENDBRANCH  41  42
ENDBRANCH  40  41
ENDBRANCH  27  40
BRANCH  19  45
ATOM     45  C   UNL     1      -0.976  -3.349   0.000  0.00  0.00    +0.000 C 
BRANCH  45  46
ATOM     46  C   UNL     1      -1.789  -3.209   0.000  0.00  0.00    +0.000 C 
BRANCH  46  47
ATOM     47  C   UNL     1      -2.317  -3.844   0.000  0.00  0.00    +0.000 C 
ATOM     48  O   UNL     1      -2.031  -4.618   0.000  0.00  0.00    +0.000 OA
ATOM     49  O   UNL     1      -3.130  -3.704   0.000  0.00  0.00    +0.000 OA
ENDBRANCH  46  47
ENDBRANCH  45  46
ENDBRANCH  19  45
TORSDOF 12
