REMARK  Name = 
REMARK  8 active torsions:
REMARK  status: ('A' for Active; 'I' for Inactive)
REMARK    1  A    between atoms: C_4  and  C_9
REMARK    2  A    between atoms: C_4  and  N_14
REMARK    3  A    between atoms: C_5  and  C_8
REMARK    4  A    between atoms: C_5  and  O_22
REMARK    5  A    between atoms: CB_7  and  CA_10
REMARK    6  A    between atoms: CA_10  and  C_12
REMARK    7  A    between atoms: CA_10  and  N_14
REMARK    8  A    between atoms: O_22  and  P_23
REMARK                            x       y       z     vdW  Elec       q    Type
REMARK                         _______ _______ _______ _____ _____    ______ ____
ROOT
ATOM      1  C   UNK A   0       0.000  -0.825   0.000  0.00  0.00    +0.000 C 
ATOM      2  C   UNK A   0       1.429  -2.475   0.000  0.00  0.00    +0.000 A 
ATOM      3  C   UNK A   0       0.715  -1.238   0.000  0.00  0.00    +0.000 A 
ATOM      4  C   UNK A   0       2.143  -2.062   0.000  0.00  0.00    +0.000 A 
ATOM      5  C   UNK A   0       2.143  -1.238   0.000  0.00  0.00    +0.000 A 
ATOM      6  C   UNK A   0       1.429  -0.825   0.000  0.00  0.00    +0.000 A 
ATOM      7  N   UNK A   0       0.715  -2.062   0.000  0.00  0.00    +0.000 NA
ATOM      8  O   UNK A   0       1.429   0.000   0.000  0.00  0.00    +0.000 OA
ENDROOT
BRANCH   4   9
ATOM      9  C   UNK A   0       2.858  -2.475   0.000  0.00  0.00    +0.000 C 
BRANCH   9  10
ATOM     10  O   UNK A   0       2.858  -3.300   0.000  0.00  0.00    +0.000 OA
BRANCH  10  14
ATOM     11  O   UNK A   0       4.287  -4.125   0.000  0.00  0.00    +0.000 OA
ATOM     12  O   UNK A   0       3.160  -4.427   0.000  0.00  0.00    +0.000 OA
ATOM     13  O   UNK A   0       3.985  -2.998   0.000  0.00  0.00    +0.000 OA
ATOM     14  P   UNK A   0       3.572  -3.712   0.000  0.00  0.00    +0.000 P 
ENDBRANCH  10  14
ENDBRANCH   9  10
ENDBRANCH   4   9
BRANCH   5  15
ATOM     15  C   UNK A   0       2.858  -0.825   0.000  0.00  0.00    +0.000 C 
BRANCH  15  16
ATOM     16  N   THR A   1       2.858   0.000   0.000  0.00  0.00    +0.000 NA
BRANCH  16  17
ATOM     17  CA  THR A   1       3.572   0.412   0.000  0.00  0.00    +0.000 C 
BRANCH  17  19
ATOM     18  CG2 THR A   1       4.287   1.650   0.000  0.00  0.00    +0.000 C 
ATOM     19  CB  THR A   1       3.572   1.238   0.000  0.00  0.00    +0.000 C 
ATOM     20  OG1 THR A   1       2.858   1.650   0.000  0.00  0.00    +0.000 OA
ENDBRANCH  17  19
BRANCH  17  21
ATOM     21  C   THR A   1       4.287   0.000   0.000  0.00  0.00    +0.000 C 
ATOM     22  O   THR A   1       5.001   0.412   0.000  0.00  0.00    +0.000 OA
ATOM     23  OXT THR A   1       4.287  -0.825   0.000  0.00  0.00    +0.000 OA
ENDBRANCH  17  21
ENDBRANCH  16  17
ENDBRANCH  15  16
ENDBRANCH   5  15
TORSDOF 8
