REMARK  Name = 
REMARK  3 active torsions:
REMARK  status: ('A' for Active; 'I' for Inactive)
REMARK    1  A    between atoms: C_2  and  C_3
REMARK    2  A    between atoms: C_3  and  C_4
REMARK    3  A    between atoms: C_4  and  C_5
REMARK                            x       y       z     vdW  Elec       q    Type
REMARK                         _______ _______ _______ _____ _____    ______ ____
ROOT
ATOM      1  C   UNL     1      -0.001   0.123   0.000  0.00  0.00    +0.000 C 
ATOM      2  C   UNL     1       0.494  -0.535   0.000  0.00  0.00    +0.000 A 
ATOM      3  C   UNL     1      -0.001  -1.195   0.000  0.00  0.00    +0.000 A 
ATOM      4  C   UNL     1       0.329  -1.937   0.000  0.00  0.00    +0.000 A 
ATOM      5  C   UNL     1       1.154  -2.020   0.000  0.00  0.00    +0.000 A 
ATOM      6  C   UNL     1       1.649  -1.360   0.000  0.00  0.00    +0.000 A 
ATOM      7  C   UNL     1       1.319  -0.618   0.000  0.00  0.00    +0.000 A 
ATOM      8  O   UNL     1      -0.742  -0.124   0.000  0.00  0.00    +0.000 OA
ATOM      9  C   UNL     1      -0.742  -0.948   0.000  0.00  0.00    +0.000 C 
ATOM     10  O   UNL     1      -1.401  -1.443   0.000  0.00  0.00    +0.000 OA
ENDROOT
BRANCH   1  11
ATOM     11  C   UNL     1       0.247   0.948   0.000  0.00  0.00    +0.000 C 
BRANCH  11  12
ATOM     12  C   UNL     1      -0.247   1.525   0.000  0.00  0.00    +0.000 C 
BRANCH  12  14
ATOM     13  C   UNL     1      -1.649   2.020   0.000  0.00  0.00    +0.000 C 
ATOM     14  C   UNL     1      -1.072   1.360   0.000  0.00  0.00    +0.000 C 
ENDBRANCH  12  14
ENDBRANCH  11  12
ENDBRANCH   1  11
TORSDOF 3
