REMARK  Name = 
REMARK  3 active torsions:
REMARK  status: ('A' for Active; 'I' for Inactive)
REMARK    1  A    between atoms: CA_2  and  C_3
REMARK    2  A    between atoms: CA_2  and  C_15
REMARK    3  A    between atoms: C_3  and  N_4
REMARK                            x       y       z     vdW  Elec       q    Type
REMARK                         _______ _______ _______ _____ _____    ______ ____
ROOT
ATOM      1  N   UNL     1       3.279   1.238   0.000  0.00  0.00    +0.000 N 
ATOM      2  C   UNL     1       3.993   0.825   0.000  0.00  0.00    +0.000 A 
ATOM      3  O   UNL     1       4.708   1.238   0.000  0.00  0.00    +0.000 OA
ATOM      4  N   UNL     1       3.993   0.000   0.000  0.00  0.00    +0.000 NA
ATOM      5  C   UNL     1       3.279  -0.412   0.000  0.00  0.00    +0.000 A 
ATOM      6  O   UNL     1       3.279  -1.238   0.000  0.00  0.00    +0.000 OA
ATOM      7  C   UNL     1       2.564   0.000   0.000  0.00  0.00    +0.000 A 
ATOM      8  C   UNL     1       2.564   0.825   0.000  0.00  0.00    +0.000 A 
ATOM      9  C   UNL     1       1.780   1.080   0.000  0.00  0.00    +0.000 C 
ATOM     10  C   UNL     1       1.295   0.412   0.000  0.00  0.00    +0.000 C 
ATOM     11  C   UNL     1       1.780  -0.255   0.000  0.00  0.00    +0.000 C 
ENDROOT
BRANCH   1  12
ATOM     12  C   UNL     1       3.279   2.062   0.000  0.00  0.00    +0.000 C 
BRANCH  12  14
ATOM     13  N   UNL     1       1.850   2.062   0.000  0.00  0.00    +0.000 NA
ATOM     14  CA  UNL     1       2.564   2.475   0.000  0.00  0.00    +0.000 C 
BRANCH  14  15
ATOM     15  C   UNL     1       2.564   3.300   0.000  0.00  0.00    +0.000 C 
ATOM     16  O   UNL     1       1.850   3.712   0.000  0.00  0.00    +0.000 OA
ATOM     17  OXT UNL     1       3.279   3.712   0.000  0.00  0.00    +0.000 OA
ENDBRANCH  14  15
ENDBRANCH  12  14
ENDBRANCH   1  12
TORSDOF 3
