REMARK  Name = 
REMARK  6 active torsions:
REMARK  status: ('A' for Active; 'I' for Inactive)
REMARK    1  A    between atoms: C_1  and  N_2
REMARK    2  A    between atoms: C_7  and  C_13
REMARK    3  A    between atoms: C_13  and  O_16
REMARK    4  A    between atoms: O_16  and  P_18
REMARK    5  A    between atoms: P_18  and  O_19
REMARK    6  A    between atoms: O_19  and  P_22
REMARK                            x       y       z     vdW  Elec       q    Type
REMARK                         _______ _______ _______ _____ _____    ______ ____
ROOT
ATOM      1  C   UNL     1       1.282   0.148   0.000  0.00  0.00    +0.000 C 
ATOM      2  O   UNL     1       0.639   0.619   0.000  0.00  0.00    +0.000 OA
ATOM      3  C   UNL     1       1.038  -0.660   0.000  0.00  0.00    +0.000 C 
ATOM      4  C   UNL     1      -0.034   0.127   0.000  0.00  0.00    +0.000 C 
ATOM      5  C   UNL     1       0.213  -0.660   0.000  0.00  0.00    +0.000 C 
ATOM      6  O   UNL     1       1.523  -1.323   0.000  0.00  0.00    +0.000 OA
ATOM      7  O   UNL     1      -0.275  -1.320   0.000  0.00  0.00    +0.000 OA
ENDROOT
BRANCH   1   8
ATOM      8  N   UNL     1       2.069   0.406   0.000  0.00  0.00    +0.000 N 
ATOM      9  C   UNL     1       2.688  -0.144   0.000  0.00  0.00    +0.000 A 
ATOM     10  C   UNL     1       2.241   1.213   0.000  0.00  0.00    +0.000 A 
ATOM     11  N   UNL     1       3.479   0.117   0.000  0.00  0.00    +0.000 NA
ATOM     12  O   UNL     1       2.526  -0.949   0.000  0.00  0.00    +0.000 OA
ATOM     13  C   UNL     1       3.022   1.475   0.000  0.00  0.00    +0.000 A 
ATOM     14  C   UNL     1       3.647   0.925   0.000  0.00  0.00    +0.000 A 
ATOM     15  N   UNL     1       4.431   1.183   0.000  0.00  0.00    +0.000 NA
ENDBRANCH   1   8
BRANCH   4  16
ATOM     16  C   UNL     1      -0.818   0.382   0.000  0.00  0.00    +0.000 C 
BRANCH  16  17
ATOM     17  O   UNL     1      -1.427  -0.172   0.000  0.00  0.00    +0.000 OA
BRANCH  17  18
ATOM     18  P   UNL     1      -2.252  -0.172   0.000  0.00  0.00    +0.000 P 
ATOM     19  O   UNL     1      -2.255  -0.994   0.000  0.00  0.00    +0.000 OA
ATOM     20  O   UNL     1      -2.255   0.650   0.000  0.00  0.00    +0.000 OA
BRANCH  18  21
ATOM     21  O   UNL     1      -3.073  -0.172   0.000  0.00  0.00    +0.000 OA
BRANCH  21  22
ATOM     22  P   UNL     1      -3.895  -0.169   0.000  0.00  0.00    +0.000 P 
ATOM     23  O   UNL     1      -3.898  -0.990   0.000  0.00  0.00    +0.000 OA
ATOM     24  O   UNL     1      -4.716  -0.169   0.000  0.00  0.00    +0.000 OA
ATOM     25  O   UNL     1      -3.898   0.656   0.000  0.00  0.00    +0.000 OA
ENDBRANCH  21  22
ENDBRANCH  18  21
ENDBRANCH  17  18
ENDBRANCH  16  17
ENDBRANCH   4  16
TORSDOF 6
