REMARK  Name = 
REMARK  9 active torsions:
REMARK  status: ('A' for Active; 'I' for Inactive)
REMARK    1  A    between atoms: C_1  and  C_6
REMARK    2  A    between atoms: C_1  and  O_31
REMARK    3  A    between atoms: C_2  and  C_7
REMARK    4  A    between atoms: C_2  and  O_32
REMARK    5  A    between atoms: C_5  and  P_35
REMARK    6  A    between atoms: C_5  and  P_36
REMARK    7  A    between atoms: C_15  and  N_21
REMARK    8  A    between atoms: O_31  and  P_35
REMARK    9  A    between atoms: O_32  and  P_36
REMARK                            x       y       z     vdW  Elec       q    Type
REMARK                         _______ _______ _______ _____ _____    ______ ____
ROOT
ATOM      1  C   UNL     1      -0.568  -1.494   0.000  0.00  0.00    +0.000 C 
ENDROOT
BRANCH   1   2
ATOM      2  C   UNL     1       0.099  -1.009   0.000  0.00  0.00    +0.000 C 
ATOM      3  C   UNL     1       0.884  -1.264   0.000  0.00  0.00    +0.000 C 
ATOM      4  C   UNL     1       1.369  -0.597   0.000  0.00  0.00    +0.000 C 
ATOM      5  C   UNL     1       0.884   0.071   0.000  0.00  0.00    +0.000 C 
ATOM      6  O   UNL     1       1.139  -2.049   0.000  0.00  0.00    +0.000 OA
ATOM      7  O   UNL     1       2.194  -0.597   0.000  0.00  0.00    +0.000 OA
ATOM      8  O   UNL     1       0.099  -0.184   0.000  0.00  0.00    +0.000 OA
BRANCH   5  18
ATOM      9  C   UNL     1       3.352   1.110   0.000  0.00  0.00    +0.000 A 
ATOM     10  C   UNL     1       0.654   1.523   0.000  0.00  0.00    +0.000 A 
ATOM     11  C   UNL     1       1.923   1.935   0.000  0.00  0.00    +0.000 A 
ATOM     12  C   UNL     1       2.638   2.348   0.000  0.00  0.00    +0.000 A 
ATOM     13  C   UNL     1       1.923   1.110   0.000  0.00  0.00    +0.000 A 
ATOM     14  N   UNL     1       2.638   3.173   0.000  0.00  0.00    +0.000 NA
ATOM     15  N   UNL     1       3.352   1.935   0.000  0.00  0.00    +0.000 NA
ATOM     16  N   UNL     1       2.638   0.698   0.000  0.00  0.00    +0.000 NA
ATOM     17  N   UNL     1       1.139   2.190   0.000  0.00  0.00    +0.000 NA
ATOM     18  N   UNL     1       1.139   0.856   0.000  0.00  0.00    +0.000 N 
ENDBRANCH   5  18
ENDBRANCH   1   2
BRANCH   1  19
ATOM     19  O   UNL     1      -0.482  -2.314   0.000  0.00  0.00    +0.000 OA
BRANCH  19  22
ATOM     20  O   UNL     1      -1.634  -2.132   0.000  0.00  0.00    +0.000 OA
ATOM     21  O   UNL     1      -0.665  -3.467   0.000  0.00  0.00    +0.000 OA
ATOM     22  P   UNL     1      -1.149  -2.799   0.000  0.00  0.00    +0.000 P 
BRANCH  22  23
ATOM     23  C   UNL     1      -1.817  -3.284   0.000  0.00  0.00    +0.000 C 
BRANCH  23  26
ATOM     24  O   UNL     1      -2.551  -4.191   0.000  0.00  0.00    +0.000 OA
ATOM     25  O   UNL     1      -0.910  -4.019   0.000  0.00  0.00    +0.000 OA
ATOM     26  P   UNL     1      -1.731  -4.105   0.000  0.00  0.00    +0.000 P 
BRANCH  26  27
ATOM     27  O   UNL     1      -1.644  -4.925   0.000  0.00  0.00    +0.000 OA
BRANCH  27  28
ATOM     28  C   UNL     1      -2.312  -5.410   0.000  0.00  0.00    +0.000 C 
BRANCH  28  29
ATOM     29  C   UNL     1      -2.226  -6.231   0.000  0.00  0.00    +0.000 C 
ATOM     30  C   UNL     1      -2.839  -6.783   0.000  0.00  0.00    +0.000 C 
ATOM     31  C   UNL     1      -2.503  -7.536   0.000  0.00  0.00    +0.000 C 
ATOM     32  C   UNL     1      -1.683  -7.450   0.000  0.00  0.00    +0.000 C 
ATOM     33  O   UNL     1      -3.646  -6.611   0.000  0.00  0.00    +0.000 OA
ATOM     34  O   UNL     1      -2.916  -8.251   0.000  0.00  0.00    +0.000 OA
ATOM     35  O   UNL     1      -1.131  -8.063   0.000  0.00  0.00    +0.000 OA
ATOM     36  O   UNL     1      -1.511  -6.643   0.000  0.00  0.00    +0.000 OA
ENDBRANCH  28  29
ENDBRANCH  27  28
ENDBRANCH  26  27
ENDBRANCH  23  26
ENDBRANCH  22  23
ENDBRANCH  19  22
ENDBRANCH   1  19
TORSDOF 9
