REMARK  Name = 
REMARK  4 active torsions:
REMARK  status: ('A' for Active; 'I' for Inactive)
REMARK    1  A    between atoms: C_5  and  C_8
REMARK    2  A    between atoms: C_6  and  N_13
REMARK    3  A    between atoms: C_7  and  O_20
REMARK    4  A    between atoms: C_12  and  O_20
REMARK                            x       y       z     vdW  Elec       q    Type
REMARK                         _______ _______ _______ _____ _____    ______ ____
ROOT
ATOM      1  C   UNL     1       0.715   6.188   0.000  0.00  0.00    +0.000 C 
ATOM      2  C   UNL     1       0.000   5.775   0.000  0.00  0.00    +0.000 C 
ATOM      3  C   UNL     1       0.000   4.950   0.000  0.00  0.00    +0.000 C 
ATOM      4  C   UNL     1       0.715   4.537   0.000  0.00  0.00    +0.000 C 
ATOM      5  C   UNL     1       1.429   4.950   0.000  0.00  0.00    +0.000 C 
ATOM      6  O   UNL     1      -0.715   6.188   0.000  0.00  0.00    +0.000 OA
ATOM      7  O   UNL     1      -0.715   4.537   0.000  0.00  0.00    +0.000 OA
ATOM      8  O   UNL     1       0.715   3.712   0.000  0.00  0.00    +0.000 OA
ATOM      9  O   UNL     1       1.429   5.775   0.000  0.00  0.00    +0.000 OA
ENDROOT
BRANCH   1  10
ATOM     10  C   UNL     1       0.715   7.013   0.000  0.00  0.00    +0.000 C 
ATOM     11  O   UNL     1       0.000   7.425   0.000  0.00  0.00    +0.000 OA
ENDBRANCH   1  10
BRANCH   5  12
ATOM     12  O   UNL     1       2.143   4.537   0.000  0.00  0.00    +0.000 OA
BRANCH  12  18
ATOM     13  C   UNL     1       2.143   2.062   0.000  0.00  0.00    +0.000 A 
ATOM     14  C   UNL     1       1.429   2.475   0.000  0.00  0.00    +0.000 A 
ATOM     15  C   UNL     1       2.858   2.475   0.000  0.00  0.00    +0.000 A 
ATOM     16  C   UNL     1       1.429   3.300   0.000  0.00  0.00    +0.000 A 
ATOM     17  C   UNL     1       2.858   3.300   0.000  0.00  0.00    +0.000 A 
ATOM     18  C   UNL     1       2.143   3.712   0.000  0.00  0.00    +0.000 A 
BRANCH  17  19
ATOM     19  N   UNL     1       3.572   3.712   0.000  0.00  0.00    +0.000 N 
ATOM     20  O   UNL     1       3.572   4.537   0.000  0.00  0.00    +0.000 OA
ATOM     21  O   UNL     1       4.287   3.300   0.000  0.00  0.00    +0.000 OA
ENDBRANCH  17  19
ENDBRANCH  12  18
ENDBRANCH   5  12
TORSDOF 4
