REMARK  Name = 
REMARK  23 active torsions:
REMARK  status: ('A' for Active; 'I' for Inactive)
REMARK    1  A    between atoms: C_3  and  C_5
REMARK    2  A    between atoms: C_4  and  C_6
REMARK    3  A    between atoms: C_5  and  C_7
REMARK    4  A    between atoms: C_6  and  C_8
REMARK    5  A    between atoms: C_7  and  C_9
REMARK    6  A    between atoms: C_8  and  C_11
REMARK    7  A    between atoms: C_9  and  C_10
REMARK    8  A    between atoms: C_10  and  C_12
REMARK    9  A    between atoms: C_11  and  C_13
REMARK   10  A    between atoms: C_12  and  C_15
REMARK   11  A    between atoms: C_13  and  C_17
REMARK   12  A    between atoms: C_14  and  C_16
REMARK   13  A    between atoms: C_15  and  O_26
REMARK   14  A    between atoms: C_16  and  O_27
REMARK   15  A    between atoms: C_17  and  P_30
REMARK   16  A    between atoms: C_18  and  C_20
REMARK   17  A    between atoms: C_18  and  O_26
REMARK   18  A    between atoms: C_19  and  C_20
REMARK   19  A    between atoms: C_19  and  O_28
REMARK   20  A    between atoms: C_20  and  O_29
REMARK   21  A    between atoms: O_27  and  P_31
REMARK   22  A    between atoms: O_28  and  P_31
REMARK   23  A    between atoms: O_29  and  P_30
REMARK                            x       y       z     vdW  Elec       q    Type
REMARK                         _______ _______ _______ _____ _____    ______ ____
ROOT
ATOM      1  C   UNL     1       2.305  -2.445   0.000  0.00  0.00    +0.000 C 
ENDROOT
BRANCH   1   2
ATOM      2  C   UNL     1       1.591  -2.858   0.000  0.00  0.00    +0.000 C 
BRANCH   2   3
ATOM      3  O   UNL     1       0.876  -2.445   0.000  0.00  0.00    +0.000 OA
BRANCH   3   4
ATOM      4  C   UNL     1       0.162  -2.858   0.000  0.00  0.00    +0.000 C 
BRANCH   4   5
ATOM      5  C   UNL     1      -0.553  -2.445   0.000  0.00  0.00    +0.000 C 
BRANCH   5   6
ATOM      6  C   UNL     1      -1.267  -2.858   0.000  0.00  0.00    +0.000 C 
BRANCH   6   7
ATOM      7  C   UNL     1      -1.982  -2.445   0.000  0.00  0.00    +0.000 C 
BRANCH   7   8
ATOM      8  C   UNL     1      -2.696  -2.858   0.000  0.00  0.00    +0.000 C 
BRANCH   8   9
ATOM      9  C   UNL     1      -3.410  -2.445   0.000  0.00  0.00    +0.000 C 
BRANCH   9  11
ATOM     10  C   UNL     1      -4.840  -2.445   0.000  0.00  0.00    +0.000 C 
ATOM     11  C   UNL     1      -4.125  -2.858   0.000  0.00  0.00    +0.000 C 
ENDBRANCH   9  11
ENDBRANCH   8   9
ENDBRANCH   7   8
ENDBRANCH   6   7
ENDBRANCH   5   6
ENDBRANCH   4   5
ENDBRANCH   3   4
ENDBRANCH   2   3
ENDBRANCH   1   2
BRANCH   1  12
ATOM     12  C   UNL     1       2.305  -1.620   0.000  0.00  0.00    +0.000 C 
BRANCH  12  13
ATOM     13  O   UNL     1       3.020  -1.208   0.000  0.00  0.00    +0.000 OA
BRANCH  13  16
ATOM     14  O   UNL     1       3.845  -0.383   0.000  0.00  0.00    +0.000 OA
ATOM     15  O   UNL     1       3.020   0.442   0.000  0.00  0.00    +0.000 OA
ATOM     16  P   UNL     1       3.020  -0.383   0.000  0.00  0.00    +0.000 P 
BRANCH  16  17
ATOM     17  O   UNL     1       2.195  -0.383   0.000  0.00  0.00    +0.000 OA
BRANCH  17  18
ATOM     18  C   UNL     1       1.782   0.332   0.000  0.00  0.00    +0.000 C 
BRANCH  18  19
ATOM     19  C   UNL     1       0.957   0.332   0.000  0.00  0.00    +0.000 C 
ATOM     20  N   UNL     1       0.545   1.046   0.000  0.00  0.00    +0.000 NA
ENDBRANCH  18  19
ENDBRANCH  17  18
ENDBRANCH  16  17
ENDBRANCH  13  16
ENDBRANCH  12  13
ENDBRANCH   1  12
BRANCH   1  21
ATOM     21  O   UNL     1       3.020  -2.858   0.000  0.00  0.00    +0.000 OA
BRANCH  21  24
ATOM     22  O   UNL     1       4.147  -3.160   0.000  0.00  0.00    +0.000 OA
ATOM     23  O   UNL     1       3.322  -1.731   0.000  0.00  0.00    +0.000 OA
ATOM     24  P   UNL     1       3.734  -2.445   0.000  0.00  0.00    +0.000 P 
BRANCH  24  25
ATOM     25  C   UNL     1       4.449  -2.033   0.000  0.00  0.00    +0.000 C 
BRANCH  25  26
ATOM     26  C   UNL     1       5.163  -2.445   0.000  0.00  0.00    +0.000 C 
BRANCH  26  27
ATOM     27  C   UNL     1       5.878  -2.033   0.000  0.00  0.00    +0.000 C 
BRANCH  27  28
ATOM     28  C   UNL     1       6.592  -2.445   0.000  0.00  0.00    +0.000 C 
BRANCH  28  29
ATOM     29  C   UNL     1       7.306  -2.033   0.000  0.00  0.00    +0.000 C 
BRANCH  29  31
ATOM     30  C   UNL     1       8.736  -2.033   0.000  0.00  0.00    +0.000 C 
ATOM     31  C   UNL     1       8.021  -2.445   0.000  0.00  0.00    +0.000 C 
ENDBRANCH  29  31
ENDBRANCH  28  29
ENDBRANCH  27  28
ENDBRANCH  26  27
ENDBRANCH  25  26
ENDBRANCH  24  25
ENDBRANCH  21  24
ENDBRANCH   1  21
TORSDOF 23
