REMARK  Name = 
REMARK  9 active torsions:
REMARK  status: ('A' for Active; 'I' for Inactive)
REMARK    1  A    between atoms: C_1  and  C_4
REMARK    2  A    between atoms: C_2  and  C_5
REMARK    3  A    between atoms: C_3  and  C_6
REMARK    4  A    between atoms: C_3  and  O_32
REMARK    5  A    between atoms: C_14  and  O_36
REMARK    6  A    between atoms: C_15  and  O_37
REMARK    7  A    between atoms: C_17  and  O_37
REMARK    8  A    between atoms: C_18  and  O_36
REMARK    9  A    between atoms: O_32  and  P_38
REMARK                            x       y       z     vdW  Elec       q    Type
REMARK                         _______ _______ _______ _____ _____    ______ ____
ROOT
ATOM      1  C   UNL     1      -6.430   2.062   0.000  0.00  0.00    +0.000 C 
ATOM      2  C   UNL     1      -7.145   2.475   0.000  0.00  0.00    +0.000 C 
ATOM      3  C   UNL     1      -6.430   3.712   0.000  0.00  0.00    +0.000 C 
ATOM      4  C   UNL     1      -7.145   3.300   0.000  0.00  0.00    +0.000 C 
ATOM      5  C   UNL     1      -5.716   3.300   0.000  0.00  0.00    +0.000 C 
ATOM      6  O   UNL     1      -7.859   2.062   0.000  0.00  0.00    +0.000 OA
ATOM      7  O   UNL     1      -6.430   4.537   0.000  0.00  0.00    +0.000 OA
ATOM      8  O   UNL     1      -5.716   2.475   0.000  0.00  0.00    +0.000 OA
ENDROOT
BRANCH   1   9
ATOM      9  C   UNL     1      -6.430   1.238   0.000  0.00  0.00    +0.000 C 
ATOM     10  O   UNL     1      -5.716   0.825   0.000  0.00  0.00    +0.000 OA
ENDBRANCH   1   9
BRANCH   5  11
ATOM     11  O   UNL     1      -5.001   3.712   0.000  0.00  0.00    +0.000 OA
BRANCH  11  15
ATOM     12  C   UNL     1      -2.858   3.300   0.000  0.00  0.00    +0.000 C 
ATOM     13  C   UNL     1      -3.572   3.712   0.000  0.00  0.00    +0.000 C 
ATOM     14  C   UNL     1      -4.287   2.475   0.000  0.00  0.00    +0.000 C 
ATOM     15  C   UNL     1      -4.287   3.300   0.000  0.00  0.00    +0.000 C 
ATOM     16  C   UNL     1      -3.572   2.062   0.000  0.00  0.00    +0.000 C 
ATOM     17  O   UNL     1      -3.572   4.537   0.000  0.00  0.00    +0.000 OA
ATOM     18  O   UNL     1      -5.001   2.062   0.000  0.00  0.00    +0.000 OA
ATOM     19  O   UNL     1      -3.572   1.238   0.000  0.00  0.00    +0.000 OA
ATOM     20  O   UNL     1      -2.858   2.475   0.000  0.00  0.00    +0.000 OA
BRANCH  12  21
ATOM     21  C   UNL     1      -2.143   3.712   0.000  0.00  0.00    +0.000 C 
ATOM     22  O   UNL     1      -1.429   3.300   0.000  0.00  0.00    +0.000 OA
ENDBRANCH  12  21
ENDBRANCH  11  15
ENDBRANCH   5  11
BRANCH   4  23
ATOM     23  O   UNL     1      -7.859   3.712   0.000  0.00  0.00    +0.000 OA
BRANCH  23  28
ATOM     24  C   UNL     1      -7.145   5.775   0.000  0.00  0.00    +0.000 C 
ATOM     25  C   UNL     1      -7.859   6.188   0.000  0.00  0.00    +0.000 C 
ATOM     26  C   UNL     1      -8.574   5.775   0.000  0.00  0.00    +0.000 C 
ATOM     27  C   UNL     1      -8.574   4.950   0.000  0.00  0.00    +0.000 C 
ATOM     28  C   UNL     1      -7.859   4.537   0.000  0.00  0.00    +0.000 C 
ATOM     29  O   UNL     1      -7.859   7.013   0.000  0.00  0.00    +0.000 OA
ATOM     30  O   UNL     1      -9.288   6.188   0.000  0.00  0.00    +0.000 OA
ATOM     31  O   UNL     1      -9.288   4.537   0.000  0.00  0.00    +0.000 OA
ATOM     32  O   UNL     1      -7.145   4.950   0.000  0.00  0.00    +0.000 OA
BRANCH  24  33
ATOM     33  C   UNL     1      -6.430   6.188   0.000  0.00  0.00    +0.000 C 
BRANCH  33  34
ATOM     34  O   UNL     1      -6.430   7.013   0.000  0.00  0.00    +0.000 OA
BRANCH  34  38
ATOM     35  O   UNL     1      -6.128   8.139   0.000  0.00  0.00    +0.000 OA
ATOM     36  O   UNL     1      -5.001   7.838   0.000  0.00  0.00    +0.000 OA
ATOM     37  O   UNL     1      -5.303   6.710   0.000  0.00  0.00    +0.000 OA
ATOM     38  P   UNL     1      -5.716   7.425   0.000  0.00  0.00    +0.000 P 
ENDBRANCH  34  38
ENDBRANCH  33  34
ENDBRANCH  24  33
ENDBRANCH  23  28
ENDBRANCH   4  23
TORSDOF 9
