REMARK  Name = 
REMARK  24 active torsions:
REMARK  status: ('A' for Active; 'I' for Inactive)
REMARK    1  A    between atoms: C_4  and  C_5
REMARK    2  A    between atoms: C_4  and  C_15
REMARK    3  A    between atoms: C_5  and  N_30
REMARK    4  A    between atoms: C_6  and  C_7
REMARK    5  A    between atoms: C_6  and  N_29
REMARK    6  A    between atoms: C_7  and  S_58
REMARK    7  A    between atoms: C_8  and  C_16
REMARK    8  A    between atoms: C_8  and  C_27
REMARK    9  A    between atoms: C_9  and  C_17
REMARK   10  A    between atoms: C_9  and  C_27
REMARK   11  A    between atoms: C_10  and  C_14
REMARK   12  A    between atoms: C_10  and  O_50
REMARK   13  A    between atoms: C_11  and  C_26
REMARK   14  A    between atoms: C_11  and  O_51
REMARK   15  A    between atoms: C_17  and  S_58
REMARK   16  A    between atoms: C_20  and  O_53
REMARK   17  A    between atoms: C_21  and  C_24
REMARK   18  A    between atoms: C_21  and  C_26
REMARK   19  A    between atoms: C_25  and  N_34
REMARK   20  A    between atoms: O_50  and  P_56
REMARK   21  A    between atoms: O_51  and  P_57
REMARK   22  A    between atoms: O_53  and  P_55
REMARK   23  A    between atoms: O_54  and  P_56
REMARK   24  A    between atoms: O_54  and  P_57
REMARK                            x       y       z     vdW  Elec       q    Type
REMARK                         _______ _______ _______ _____ _____    ______ ____
ROOT
ATOM      1  O   UNL     1      -3.075  -1.039   0.000  0.00  0.00    +0.000 OA
ATOM      2  O   UNL     1      -3.746  -2.546   0.000  0.00  0.00    +0.000 OA
ATOM      3  P   UNL     1      -3.410  -1.793   0.000  0.00  0.00    +0.000 P 
ENDROOT
BRANCH   3   4
ATOM      4  O   UNL     1      -4.164  -1.457   0.000  0.00  0.00    +0.000 OA
BRANCH   4   5
ATOM      5  C   UNL     1      -4.832  -1.942   0.000  0.00  0.00    +0.000 C 
BRANCH   5   8
ATOM      6  C   UNL     1      -5.250  -0.853   0.000  0.00  0.00    +0.000 C 
ATOM      7  C   UNL     1      -5.921  -2.360   0.000  0.00  0.00    +0.000 C 
ATOM      8  C   UNL     1      -5.585  -1.607   0.000  0.00  0.00    +0.000 C 
BRANCH   8   9
ATOM      9  C   UNL     1      -6.339  -1.271   0.000  0.00  0.00    +0.000 C 
ATOM     10  O   UNL     1      -6.425  -0.451   0.000  0.00  0.00    +0.000 OA
BRANCH   9  11
ATOM     11  C   UNL     1      -7.006  -1.756   0.000  0.00  0.00    +0.000 C 
ATOM     12  N   UNL     1      -7.760  -1.420   0.000  0.00  0.00    +0.000 NA
ATOM     13  O   UNL     1      -6.920  -2.576   0.000  0.00  0.00    +0.000 OA
BRANCH  12  14
ATOM     14  C   UNL     1      -8.428  -1.905   0.000  0.00  0.00    +0.000 C 
BRANCH  14  15
ATOM     15  C   UNL     1      -9.181  -1.570   0.000  0.00  0.00    +0.000 C 
BRANCH  15  16
ATOM     16  C   UNL     1      -9.849  -2.055   0.000  0.00  0.00    +0.000 C 
ATOM     17  N   UNL     1     -10.602  -1.719   0.000  0.00  0.00    +0.000 NA
ATOM     18  O   UNL     1      -9.762  -2.875   0.000  0.00  0.00    +0.000 OA
BRANCH  17  19
ATOM     19  C   UNL     1     -11.270  -2.204   0.000  0.00  0.00    +0.000 C 
BRANCH  19  20
ATOM     20  C   UNL     1     -11.184  -3.025   0.000  0.00  0.00    +0.000 C 
BRANCH  20  21
ATOM     21  S   UNL     1     -11.851  -3.509   0.000  0.00  0.00    +0.000 S 
BRANCH  21  22
ATOM     22  C   UNL     1     -11.765  -4.330   0.000  0.00  0.00    +0.000 C 
ATOM     23  O   UNL     1     -11.011  -4.665   0.000  0.00  0.00    +0.000 OA
BRANCH  22  24
ATOM     24  C   UNL     1     -12.432  -4.815   0.000  0.00  0.00    +0.000 C 
BRANCH  24  26
ATOM     25  C   UNL     1     -11.525  -5.549   0.000  0.00  0.00    +0.000 C 
ATOM     26  C   UNL     1     -12.346  -5.635   0.000  0.00  0.00    +0.000 C 
ATOM     27  O   UNL     1     -13.166  -5.721   0.000  0.00  0.00    +0.000 OA
BRANCH  26  28
ATOM     28  C   UNL     1     -12.260  -6.456   0.000  0.00  0.00    +0.000 C 
BRANCH  28  29
ATOM     29  C   UNL     1     -12.927  -6.941   0.000  0.00  0.00    +0.000 C 
ATOM     30  O   UNL     1     -12.841  -7.761   0.000  0.00  0.00    +0.000 OA
ATOM     31  O   UNL     1     -13.681  -6.605   0.000  0.00  0.00    +0.000 OA
ENDBRANCH  28  29
ENDBRANCH  26  28
ENDBRANCH  24  26
ENDBRANCH  22  24
ENDBRANCH  21  22
ENDBRANCH  20  21
ENDBRANCH  19  20
ENDBRANCH  17  19
ENDBRANCH  15  16
ENDBRANCH  14  15
ENDBRANCH  12  14
ENDBRANCH   9  11
ENDBRANCH   8   9
ENDBRANCH   5   8
ENDBRANCH   4   5
ENDBRANCH   3   4
BRANCH   3  32
ATOM     32  O   UNL     1      -2.657  -2.128   0.000  0.00  0.00    +0.000 OA
BRANCH  32  35
ATOM     33  O   UNL     1      -2.474  -0.976   0.000  0.00  0.00    +0.000 OA
ATOM     34  O   UNL     1      -1.504  -2.311   0.000  0.00  0.00    +0.000 OA
ATOM     35  P   UNL     1      -1.989  -1.643   0.000  0.00  0.00    +0.000 P 
BRANCH  35  36
ATOM     36  O   UNL     1      -1.322  -1.158   0.000  0.00  0.00    +0.000 OA
BRANCH  36  37
ATOM     37  C   UNL     1      -0.568  -1.494   0.000  0.00  0.00    +0.000 C 
BRANCH  37  38
ATOM     38  C   UNL     1       0.099  -1.009   0.000  0.00  0.00    +0.000 C 
ATOM     39  C   UNL     1       1.369  -0.597   0.000  0.00  0.00    +0.000 C 
ATOM     40  C   UNL     1       0.884  -1.264   0.000  0.00  0.00    +0.000 C 
ATOM     41  C   UNL     1       0.884   0.071   0.000  0.00  0.00    +0.000 C 
ATOM     42  O   UNL     1       2.194  -0.597   0.000  0.00  0.00    +0.000 OA
ATOM     43  O   UNL     1       0.099  -0.184   0.000  0.00  0.00    +0.000 OA
BRANCH  41  53
ATOM     44  C   UNL     1       3.352   1.110   0.000  0.00  0.00    +0.000 A 
ATOM     45  C   UNL     1       0.654   1.523   0.000  0.00  0.00    +0.000 A 
ATOM     46  C   UNL     1       1.923   1.935   0.000  0.00  0.00    +0.000 A 
ATOM     47  C   UNL     1       2.638   2.348   0.000  0.00  0.00    +0.000 A 
ATOM     48  C   UNL     1       1.923   1.110   0.000  0.00  0.00    +0.000 A 
ATOM     49  N   UNL     1       2.638   3.173   0.000  0.00  0.00    +0.000 NA
ATOM     50  N   UNL     1       3.352   1.935   0.000  0.00  0.00    +0.000 NA
ATOM     51  N   UNL     1       2.638   0.698   0.000  0.00  0.00    +0.000 NA
ATOM     52  N   UNL     1       1.139   2.190   0.000  0.00  0.00    +0.000 NA
ATOM     53  N   UNL     1       1.139   0.856   0.000  0.00  0.00    +0.000 N 
ENDBRANCH  41  53
BRANCH  40  54
ATOM     54  O   UNL     1       1.139  -2.049   0.000  0.00  0.00    +0.000 OA
BRANCH  54  58
ATOM     55  O   UNL     1      -0.026  -2.110   0.000  0.00  0.00    +0.000 OA
ATOM     56  O   UNL     1       1.200  -3.214   0.000  0.00  0.00    +0.000 OA
ATOM     57  O   UNL     1       0.035  -3.275   0.000  0.00  0.00    +0.000 OA
ATOM     58  P   UNL     1       0.587  -2.662   0.000  0.00  0.00    +0.000 P 
ENDBRANCH  54  58
ENDBRANCH  40  54
ENDBRANCH  37  38
ENDBRANCH  36  37
ENDBRANCH  35  36
ENDBRANCH  32  35
ENDBRANCH   3  32
TORSDOF 24
