REMARK  Name = 
REMARK  2 active torsions:
REMARK  status: ('A' for Active; 'I' for Inactive)
REMARK    1  A    between atoms: C_2  and  C_3
REMARK    2  A    between atoms: C_5  and  N_14
REMARK                            x       y       z     vdW  Elec       q    Type
REMARK                         _______ _______ _______ _____ _____    ______ ____
ROOT
ATOM      1  C   UNL     1       1.270  -0.922   0.000  0.00  0.00    +0.000 C 
ATOM      2  O   UNL     1       0.785  -0.255   0.000  0.00  0.00    +0.000 OA
ATOM      3  C   UNL     1       1.270   0.412   0.000  0.00  0.00    +0.000 C 
ATOM      4  C   UNL     1       2.054   0.158   0.000  0.00  0.00    +0.000 C 
ATOM      5  O   UNL     1       2.839   0.412   0.000  0.00  0.00    +0.000 OA
ATOM      6  V   UNL     1       3.324  -0.255   0.000  0.00  0.00    +0.000 V 
ATOM      7  O   UNL     1       3.698   0.480   0.000  0.00  0.00    +0.000 OA
ATOM      8  O   UNL     1       4.149  -0.255   0.000  0.00  0.00    +0.000 OA
ATOM      9  O   UNL     1       3.698  -0.990   0.000  0.00  0.00    +0.000 OA
ATOM     10  O   UNL     1       2.839  -0.922   0.000  0.00  0.00    +0.000 OA
ATOM     11  C   UNL     1       2.054  -0.667   0.000  0.00  0.00    +0.000 C 
ENDROOT
BRANCH   3  12
ATOM     12  N   UNL     1       1.015   1.197   0.000  0.00  0.00    +0.000 N 
ATOM     13  C   UNL     1       0.208   1.369   0.000  0.00  0.00    +0.000 A 
ATOM     14  C   UNL     1      -0.047   2.153   0.000  0.00  0.00    +0.000 A 
ATOM     15  C   UNL     1       0.505   2.766   0.000  0.00  0.00    +0.000 A 
ATOM     16  O   UNL     1       0.250   3.551   0.000  0.00  0.00    +0.000 OA
ATOM     17  N   UNL     1       1.312   2.595   0.000  0.00  0.00    +0.000 NA
ATOM     18  C   UNL     1       1.567   1.810   0.000  0.00  0.00    +0.000 A 
ATOM     19  O   UNL     1       2.374   1.639   0.000  0.00  0.00    +0.000 OA
ENDBRANCH   3  12
BRANCH   1  21
ATOM     20  O   UNL     1       1.567  -2.320   0.000  0.00  0.00    +0.000 OA
ATOM     21  C   UNL     1       1.015  -1.707   0.000  0.00  0.00    +0.000 C 
ENDBRANCH   1  21
TORSDOF 2
