REMARK  Name = 
REMARK  4 active torsions:
REMARK  status: ('A' for Active; 'I' for Inactive)
REMARK    1  A    between atoms: C_9  and  C_12
REMARK    2  A    between atoms: C_17  and  N_24
REMARK    3  A    between atoms: C_18  and  O_26
REMARK    4  A    between atoms: C_19  and  O_27
REMARK                            x       y       z     vdW  Elec       q    Type
REMARK                         _______ _______ _______ _____ _____    ______ ____
ROOT
ATOM      1  C   UNL     1       2.365  -1.016   0.000  0.00  0.00    +0.000 C 
ATOM      2  C   UNL     1       1.540  -1.016   0.000  0.00  0.00    +0.000 C 
ATOM      3  C   UNL     1       3.602  -0.302   0.000  0.00  0.00    +0.000 A 
ATOM      4  C   UNL     1       2.777   1.127   0.000  0.00  0.00    +0.000 A 
ATOM      5  C   UNL     1       1.127   1.127   0.000  0.00  0.00    +0.000 C 
ATOM      6  C   UNL     1       0.302  -0.302   0.000  0.00  0.00    +0.000 C 
ATOM      7  C   UNL     1       2.777  -0.302   0.000  0.00  0.00    +0.000 A 
ATOM      8  C   UNL     1       2.365   0.412   0.000  0.00  0.00    +0.000 A 
ATOM      9  C   UNL     1       0.302   1.127   0.000  0.00  0.00    +0.000 C 
ATOM     10  C   UNL     1       1.540   0.412   0.000  0.00  0.00    +0.000 C 
ATOM     11  C   UNL     1      -0.111   0.412   0.000  0.00  0.00    +0.000 C 
ATOM     12  C   UNL     1       4.014   0.412   0.000  0.00  0.00    +0.000 A 
ATOM     13  C   UNL     1       3.602   1.127   0.000  0.00  0.00    +0.000 A 
ATOM     14  N   UNL     1      -0.111   1.841   0.000  0.00  0.00    +0.000 NA
ATOM     15  N   UNL     1       1.127  -0.302   0.000  0.00  0.00    +0.000 NA
ENDROOT
BRANCH  11  20
ATOM     16  C   UNL     1      -2.205   0.825   0.000  0.00  0.00    +0.000 C 
ATOM     17  C   UNL     1      -1.421  -0.255   0.000  0.00  0.00    +0.000 C 
ATOM     18  C   UNL     1      -2.205   0.000   0.000  0.00  0.00    +0.000 C 
ATOM     19  C   UNL     1      -1.421   1.080   0.000  0.00  0.00    +0.000 C 
ATOM     20  N   UNL     1      -0.935   0.412   0.000  0.00  0.00    +0.000 N 
ATOM     21  O   UNL     1      -1.165   1.865   0.000  0.00  0.00    +0.000 OA
BRANCH  18  22
ATOM     22  C   UNL     1      -2.873  -0.485   0.000  0.00  0.00    +0.000 C 
ATOM     23  F   UNL     1      -2.786  -1.305   0.000  0.00  0.00    +0.000 F 
ENDBRANCH  18  22
ENDBRANCH  11  20
BRANCH  12  25
ATOM     24  C   UNL     1       5.252   1.127   0.000  0.00  0.00    +0.000 C 
ATOM     25  O   UNL     1       4.840   0.412   0.000  0.00  0.00    +0.000 OA
ENDBRANCH  12  25
BRANCH  13  27
ATOM     26  C   UNL     1       4.840   1.841   0.000  0.00  0.00    +0.000 C 
ATOM     27  O   UNL     1       4.014   1.841   0.000  0.00  0.00    +0.000 OA
ENDBRANCH  13  27
TORSDOF 4
