REMARK  Name = 
REMARK  6 active torsions:
REMARK  status: ('A' for Active; 'I' for Inactive)
REMARK    1  A    between atoms: N_8  and  C_9
REMARK    2  A    between atoms: C_9  and  C_10
REMARK    3  A    between atoms: C_10  and  C_11
REMARK    4  A    between atoms: C_11  and  C_12
REMARK    5  A    between atoms: C_12  and  C_13
REMARK    6  A    between atoms: C_13  and  P_16
REMARK                            x       y       z     vdW  Elec       q    Type
REMARK                         _______ _______ _______ _____ _____    ______ ____
ROOT
ATOM      1  N   UNL     1      -4.758   4.784   0.000  0.00  0.00    +0.000 NA
ATOM      2  C   UNL     1      -4.731   3.959   0.000  0.00  0.00    +0.000 A 
ATOM      3  N   UNL     1      -4.003   3.571   0.000  0.00  0.00    +0.000 NA
ATOM      4  C   UNL     1      -3.976   2.746   0.000  0.00  0.00    +0.000 A 
ATOM      5  C   UNL     1      -4.676   2.310   0.000  0.00  0.00    +0.000 A 
ATOM      6  N   UNL     1      -4.478   1.510   0.000  0.00  0.00    +0.000 NA
ATOM      7  C   UNL     1      -3.655   1.450   0.000  0.00  0.00    +0.000 A 
ATOM      8  N   UNL     1      -3.345   2.215   0.000  0.00  0.00    +0.000 N 
ATOM      9  C   UNL     1      -5.404   2.699   0.000  0.00  0.00    +0.000 A 
ATOM     10  O   UNL     1      -6.105   2.263   0.000  0.00  0.00    +0.000 OA
ATOM     11  N   UNL     1      -5.431   3.524   0.000  0.00  0.00    +0.000 NA
ENDROOT
BRANCH   8  12
ATOM     12  C   UNL     1      -2.544   2.413   0.000  0.00  0.00    +0.000 C 
BRANCH  12  13
ATOM     13  C   UNL     1      -1.972   1.819   0.000  0.00  0.00    +0.000 C 
BRANCH  13  14
ATOM     14  C   UNL     1      -1.171   2.017   0.000  0.00  0.00    +0.000 C 
BRANCH  14  15
ATOM     15  C   UNL     1      -0.599   1.422   0.000  0.00  0.00    +0.000 C 
BRANCH  15  16
ATOM     16  C   UNL     1       0.202   1.620   0.000  0.00  0.00    +0.000 C 
ATOM     17  F   UNL     1       0.400   0.820   0.000  0.00  0.00    +0.000 F 
ATOM     18  F   UNL     1       0.004   2.421   0.000  0.00  0.00    +0.000 F 
BRANCH  16  19
ATOM     19  P   UNL     1       1.002   1.819   0.000  0.00  0.00    +0.000 P 
ATOM     20  O   UNL     1       1.803   2.017   0.000  0.00  0.00    +0.000 OA
ATOM     21  O   UNL     1       1.201   1.018   0.000  0.00  0.00    +0.000 OA
ATOM     22  O   UNL     1       0.804   2.619   0.000  0.00  0.00    +0.000 OA
ENDBRANCH  16  19
ENDBRANCH  15  16
ENDBRANCH  14  15
ENDBRANCH  13  14
ENDBRANCH  12  13
ENDBRANCH   8  12
TORSDOF 6
