REMARK  Name = 
REMARK  6 active torsions:
REMARK  status: ('A' for Active; 'I' for Inactive)
REMARK    1  A    between atoms: C_2  and  C_4
REMARK    2  A    between atoms: C_4  and  N_5
REMARK    3  A    between atoms: N_5  and  C_6
REMARK    4  A    between atoms: N_5  and  C_10
REMARK    5  A    between atoms: C_6  and  C_7
REMARK    6  A    between atoms: C_10  and  C_11
REMARK                            x       y       z     vdW  Elec       q    Type
REMARK                         _______ _______ _______ _____ _____    ______ ____
ROOT
ATOM      1  N   UNL     1       0.715  -2.666   0.000  0.00  0.00    +0.000 NA
ENDROOT
BRANCH   1   2
ATOM      2  C   UNL     1       0.715  -3.491   0.000  0.00  0.00    +0.000 C 
BRANCH   2   4
ATOM      3  N   UNL     1       1.429  -4.729   0.000  0.00  0.00    +0.000 NA
ATOM      4  C   UNL     1       1.429  -3.904   0.000  0.00  0.00    +0.000 C 
ATOM      5  O   UNL     1       2.143  -3.491   0.000  0.00  0.00    +0.000 OA
ENDBRANCH   2   4
ENDBRANCH   1   2
BRANCH   1   6
ATOM      6  C   UNL     1       1.429  -2.254   0.000  0.00  0.00    +0.000 C 
BRANCH   6   7
ATOM      7  C   UNL     1       1.429  -1.429   0.000  0.00  0.00    +0.000 C 
ATOM      8  O   UNL     1       1.093  -0.675   0.000  0.00  0.00    +0.000 OA
ATOM      9  O   UNL     1       2.143  -1.016   0.000  0.00  0.00    +0.000 OA
ENDBRANCH   6   7
ENDBRANCH   1   6
BRANCH   1  10
ATOM     10  C   UNL     1       0.000  -2.254   0.000  0.00  0.00    +0.000 C 
BRANCH  10  11
ATOM     11  C   UNL     1       0.000  -1.429   0.000  0.00  0.00    +0.000 C 
ATOM     12  O   UNL     1      -0.715  -1.016   0.000  0.00  0.00    +0.000 OA
ATOM     13  O   UNL     1       0.715  -1.016   0.000  0.00  0.00    +0.000 OA
ENDBRANCH  10  11
ENDBRANCH   1  10
TORSDOF 6
