REMARK  Name = 
REMARK  2 active torsions:
REMARK  status: ('A' for Active; 'I' for Inactive)
REMARK    1  A    between atoms: N_2  and  C_4
REMARK    2  A    between atoms: C_4  and  C_5
REMARK                            x       y       z     vdW  Elec       q    Type
REMARK                         _______ _______ _______ _____ _____    ______ ____
ROOT
ATOM      1  C   UNL     1       1.238   0.715   0.000  0.00  0.00    +0.000 C 
ENDROOT
BRANCH   1   3
ATOM      2  C   UNL     1       1.238   2.143   0.000  0.00  0.00    +0.000 C 
ATOM      3  N   UNL     1       0.825   1.429   0.000  0.00  0.00    +0.000 NA
ATOM      4  C   UNL     1       0.000   1.429   0.000  0.00  0.00    +0.000 C 
ENDBRANCH   1   3
BRANCH   1   5
ATOM      5  C   UNL     1       0.825   0.000   0.000  0.00  0.00    +0.000 C 
ATOM      6  O   UNL     1       1.238  -0.715   0.000  0.00  0.00    +0.000 OA
ATOM      7  O   UNL     1       0.000   0.000   0.000  0.00  0.00    +0.000 OA
ENDBRANCH   1   5
TORSDOF 2
