REMARK  Name = 
REMARK  6 active torsions:
REMARK  status: ('A' for Active; 'I' for Inactive)
REMARK    1  A    between atoms: C_1  and  C_8
REMARK    2  A    between atoms: C_5  and  C_7
REMARK    3  A    between atoms: C_14  and  C_19
REMARK    4  A    between atoms: C_19  and  C_20
REMARK    5  A    between atoms: C_23  and  O_26
REMARK    6  A    between atoms: O_26  and  C_27
REMARK                            x       y       z     vdW  Elec       q    Type
REMARK                         _______ _______ _______ _____ _____    ______ ____
ROOT
ATOM      1  C   UNL     1       8.319 -24.260   0.000  0.00  0.00    +0.000 A 
ATOM      2  C   UNL     1       9.029 -24.679   0.000  0.00  0.00    +0.000 A 
ATOM      3  C   UNL     1       9.744 -24.269   0.000  0.00  0.00    +0.000 A 
ATOM      4  C   UNL     1       9.747 -23.443   0.000  0.00  0.00    +0.000 A 
ATOM      5  C   UNL     1       9.028 -23.029   0.000  0.00  0.00    +0.000 A 
ATOM      6  C   UNL     1       8.316 -23.441   0.000  0.00  0.00    +0.000 A 
ATOM      7 CL   UNL     1      10.462 -23.032   0.000  0.00  0.00    +0.000 Cl
ENDROOT
BRANCH   1  12
ATOM      8  C   UNL     1       6.179 -24.671   0.000  0.00  0.00    +0.000 C 
ATOM      9  C   UNL     1       6.179 -25.496   0.000  0.00  0.00    +0.000 C 
ATOM     10  C   UNL     1       6.891 -25.904   0.000  0.00  0.00    +0.000 C 
ATOM     11  C   UNL     1       7.603 -25.496   0.000  0.00  0.00    +0.000 C 
ATOM     12  C   UNL     1       7.603 -24.671   0.000  0.00  0.00    +0.000 C 
ATOM     13  O   UNL     1       6.891 -24.254   0.000  0.00  0.00    +0.000 OA
ATOM     14  O   UNL     1       8.317 -25.909   0.000  0.00  0.00    +0.000 OA
ATOM     15  O   UNL     1       5.465 -25.909   0.000  0.00  0.00    +0.000 OA
ATOM     16  O   UNL     1       6.891 -26.729   0.000  0.00  0.00    +0.000 OA
BRANCH   8  17
ATOM     17  C   UNL     1       5.463 -24.260   0.000  0.00  0.00    +0.000 C 
ATOM     18  O   UNL     1       5.461 -23.435   0.000  0.00  0.00    +0.000 OA
ENDBRANCH   8  17
ENDBRANCH   1  12
BRANCH   3  19
ATOM     19  C   UNL     1      10.457 -24.684   0.000  0.00  0.00    +0.000 C 
BRANCH  19  20
ATOM     20  C   UNL     1      11.173 -24.274   0.000  0.00  0.00    +0.000 A 
ATOM     21  C   UNL     1      11.882 -24.692   0.000  0.00  0.00    +0.000 A 
ATOM     22  C   UNL     1      12.597 -24.283   0.000  0.00  0.00    +0.000 A 
ATOM     23  C   UNL     1      12.600 -23.457   0.000  0.00  0.00    +0.000 A 
ATOM     24  C   UNL     1      11.882 -23.042   0.000  0.00  0.00    +0.000 A 
ATOM     25  C   UNL     1      11.170 -23.454   0.000  0.00  0.00    +0.000 A 
BRANCH  23  26
ATOM     26  O   UNL     1      13.316 -23.046   0.000  0.00  0.00    +0.000 OA
BRANCH  26  27
ATOM     27  C   UNL     1      14.029 -23.460   0.000  0.00  0.00    +0.000 C 
ATOM     28  C   UNL     1      14.745 -23.049   0.000  0.00  0.00    +0.000 C 
ENDBRANCH  26  27
ENDBRANCH  23  26
ENDBRANCH  19  20
ENDBRANCH   3  19
TORSDOF 6
