REMARK  Name = 
REMARK  15 active torsions:
REMARK  status: ('A' for Active; 'I' for Inactive)
REMARK    1  A    between atoms: C_3  and  C_9
REMARK    2  A    between atoms: C_4  and  C_11
REMARK    3  A    between atoms: C_5  and  C_12
REMARK    4  A    between atoms: C_6  and  C_13
REMARK    5  A    between atoms: C_7  and  C_14
REMARK    6  A    between atoms: C_7  and  O_58
REMARK    7  A    between atoms: C_10  and  N_38
REMARK    8  A    between atoms: C_15  and  N_38
REMARK    9  A    between atoms: C_30  and  O_64
REMARK   10  A    between atoms: C_31  and  O_65
REMARK   11  A    between atoms: C_32  and  O_66
REMARK   12  A    between atoms: C_34  and  O_58
REMARK   13  A    between atoms: C_35  and  O_65
REMARK   14  A    between atoms: C_36  and  O_66
REMARK   15  A    between atoms: C_37  and  O_64
REMARK                            x       y       z     vdW  Elec       q    Type
REMARK                         _______ _______ _______ _____ _____    ______ ____
ROOT
ATOM      1  C   UNL     1      -3.572  -6.188   0.000  0.00  0.00    +0.000 C 
ATOM      2  C   UNL     1      -3.572  -5.362   0.000  0.00  0.00    +0.000 C 
ATOM      3  C   UNL     1      -2.858  -6.600   0.000  0.00  0.00    +0.000 C 
ATOM      4  C   UNL     1      -2.143  -6.188   0.000  0.00  0.00    +0.000 C 
ATOM      5  C   UNL     1      -2.143  -5.362   0.000  0.00  0.00    +0.000 C 
ATOM      6  C   UNL     1      -2.858  -4.950   0.000  0.00  0.00    +0.000 C 
ATOM      7  O   UNL     1      -1.429  -6.600   0.000  0.00  0.00    +0.000 OA
ATOM      8  O   UNL     1      -1.429  -4.950   0.000  0.00  0.00    +0.000 OA
ENDROOT
BRANCH   2   9
ATOM      9  C   UNL     1      -4.287  -4.950   0.000  0.00  0.00    +0.000 C 
ATOM     10  O   UNL     1      -4.287  -4.125   0.000  0.00  0.00    +0.000 OA
ENDBRANCH   2   9
BRANCH   3  11
ATOM     11  N   UNL     1      -2.858  -7.425   0.000  0.00  0.00    +0.000 NA
BRANCH  11  14
ATOM     12  C   UNL     1      -4.287  -6.600   0.000  0.00  0.00    +0.000 C 
ATOM     13  C   UNL     1      -4.287  -7.425   0.000  0.00  0.00    +0.000 C 
ATOM     14  C   UNL     1      -3.572  -7.838   0.000  0.00  0.00    +0.000 C 
ATOM     15  C   UNL     1      -3.572  -8.662   0.000  0.00  0.00    +0.000 C 
ATOM     16  C   UNL     1      -4.287  -9.075   0.000  0.00  0.00    +0.000 C 
ATOM     17  C   UNL     1      -5.001  -8.662   0.000  0.00  0.00    +0.000 C 
ATOM     18  O   UNL     1      -2.858  -9.075   0.000  0.00  0.00    +0.000 OA
ATOM     19  O   UNL     1      -4.287  -9.900   0.000  0.00  0.00    +0.000 OA
ATOM     20  O   UNL     1      -5.001  -7.838   0.000  0.00  0.00    +0.000 OA
BRANCH  17  21
ATOM     21  O   UNL     1      -5.716  -9.075   0.000  0.00  0.00    +0.000 OA
BRANCH  21  25
ATOM     22  C   UNL     1      -7.145  -9.075   0.000  0.00  0.00    +0.000 C 
ATOM     23  C   UNL     1      -6.430  -7.838   0.000  0.00  0.00    +0.000 C 
ATOM     24  C   UNL     1      -7.145  -7.425   0.000  0.00  0.00    +0.000 C 
ATOM     25  C   UNL     1      -6.430  -8.662   0.000  0.00  0.00    +0.000 C 
ATOM     26  C   UNL     1      -7.859  -7.838   0.000  0.00  0.00    +0.000 C 
ATOM     27  O   UNL     1      -5.716  -7.425   0.000  0.00  0.00    +0.000 OA
ATOM     28  O   UNL     1      -7.145  -6.600   0.000  0.00  0.00    +0.000 OA
ATOM     29  O   UNL     1      -7.859  -8.662   0.000  0.00  0.00    +0.000 OA
BRANCH  22  30
ATOM     30  C   UNL     1      -7.145  -9.900   0.000  0.00  0.00    +0.000 C 
ATOM     31  O   UNL     1      -7.859 -10.312   0.000  0.00  0.00    +0.000 OA
ENDBRANCH  22  30
BRANCH  26  32
ATOM     32  O   UNL     1      -8.574  -7.425   0.000  0.00  0.00    +0.000 OA
BRANCH  32  33
ATOM     33  C   UNL     1      -8.574  -6.600   0.000  0.00  0.00    +0.000 C 
BRANCH  33  34
ATOM     34  C   UNL     1      -9.288  -6.188   0.000  0.00  0.00    +0.000 C 
ATOM     35  C   UNL     1      -9.288  -5.362   0.000  0.00  0.00    +0.000 C 
ATOM     36  C   UNL     1     -10.003  -4.950   0.000  0.00  0.00    +0.000 C 
ATOM     37  C   UNL     1     -10.717  -5.362   0.000  0.00  0.00    +0.000 C 
ATOM     38  C   UNL     1     -10.717  -6.188   0.000  0.00  0.00    +0.000 C 
ATOM     39  O   UNL     1      -8.574  -4.950   0.000  0.00  0.00    +0.000 OA
ATOM     40  O   UNL     1     -10.003  -4.125   0.000  0.00  0.00    +0.000 OA
ATOM     41  O   UNL     1     -11.431  -4.950   0.000  0.00  0.00    +0.000 OA
ATOM     42  O   UNL     1     -11.431  -6.600   0.000  0.00  0.00    +0.000 OA
ATOM     43  O   UNL     1     -10.003  -6.600   0.000  0.00  0.00    +0.000 OA
ENDBRANCH  33  34
ENDBRANCH  32  33
ENDBRANCH  26  32
ENDBRANCH  21  25
ENDBRANCH  17  21
ENDBRANCH  11  14
ENDBRANCH   3  11
BRANCH   6  44
ATOM     44  O   UNL     1      -2.858  -4.125   0.000  0.00  0.00    +0.000 OA
BRANCH  44  49
ATOM     45  C   UNL     1      -0.715  -3.712   0.000  0.00  0.00    +0.000 C 
ATOM     46  C   UNL     1      -1.429  -2.475   0.000  0.00  0.00    +0.000 C 
ATOM     47  C   UNL     1      -2.143  -2.888   0.000  0.00  0.00    +0.000 C 
ATOM     48  C   UNL     1      -0.715  -2.888   0.000  0.00  0.00    +0.000 C 
ATOM     49  C   UNL     1      -2.143  -3.712   0.000  0.00  0.00    +0.000 C 
ATOM     50  O   UNL     1      -1.429  -1.650   0.000  0.00  0.00    +0.000 OA
ATOM     51  O   UNL     1      -2.858  -2.475   0.000  0.00  0.00    +0.000 OA
ATOM     52  O   UNL     1      -1.429  -4.125   0.000  0.00  0.00    +0.000 OA
BRANCH  45  53
ATOM     53  C   UNL     1       0.000  -4.125   0.000  0.00  0.00    +0.000 C 
ATOM     54  O   UNL     1       0.000  -4.950   0.000  0.00  0.00    +0.000 OA
ENDBRANCH  45  53
BRANCH  48  55
ATOM     55  O   UNL     1       0.000  -2.475   0.000  0.00  0.00    +0.000 OA
BRANCH  55  60
ATOM     56  C   UNL     1       1.429  -4.125   0.000  0.00  0.00    +0.000 C 
ATOM     57  C   UNL     1       2.143  -3.712   0.000  0.00  0.00    +0.000 C 
ATOM     58  C   UNL     1       2.143  -2.888   0.000  0.00  0.00    +0.000 C 
ATOM     59  C   UNL     1       1.429  -2.475   0.000  0.00  0.00    +0.000 C 
ATOM     60  C   UNL     1       0.715  -2.888   0.000  0.00  0.00    +0.000 C 
ATOM     61  O   UNL     1       2.858  -4.125   0.000  0.00  0.00    +0.000 OA
ATOM     62  O   UNL     1       2.858  -2.475   0.000  0.00  0.00    +0.000 OA
ATOM     63  O   UNL     1       1.429  -1.650   0.000  0.00  0.00    +0.000 OA
ATOM     64  O   UNL     1       0.715  -3.712   0.000  0.00  0.00    +0.000 OA
BRANCH  56  65
ATOM     65  C   UNL     1       1.429  -4.950   0.000  0.00  0.00    +0.000 C 
ATOM     66  O   UNL     1       2.143  -5.362   0.000  0.00  0.00    +0.000 OA
ENDBRANCH  56  65
ENDBRANCH  55  60
ENDBRANCH  48  55
ENDBRANCH  44  49
ENDBRANCH   6  44
TORSDOF 15
