REMARK  Name = 
REMARK  6 active torsions:
REMARK  status: ('A' for Active; 'I' for Inactive)
REMARK    1  A    between atoms: C_5  and  C_6
REMARK    2  A    between atoms: C_6  and  O_7
REMARK    3  A    between atoms: O_7  and  P_8
REMARK    4  A    between atoms: C_12  and  C_13
REMARK    5  A    between atoms: C_13  and  N_14
REMARK    6  A    between atoms: N_14  and  C_15
REMARK                            x       y       z     vdW  Elec       q    Type
REMARK                         _______ _______ _______ _____ _____    ______ ____
ROOT
ATOM      1  C   UNL     1       1.322   7.240   0.000  0.00  0.00    +0.000 C 
ATOM      2  C   UNL     1       2.037   6.828   0.000  0.00  0.00    +0.000 A 
ATOM      3  N   UNL     1       2.751   7.240   0.000  0.00  0.00    +0.000 NA
ATOM      4  C   UNL     1       3.466   6.828   0.000  0.00  0.00    +0.000 A 
ATOM      5  C   UNL     1       3.466   6.003   0.000  0.00  0.00    +0.000 A 
ATOM      6  C   UNL     1       2.751   5.590   0.000  0.00  0.00    +0.000 A 
ATOM      7  C   UNL     1       2.037   6.003   0.000  0.00  0.00    +0.000 A 
ATOM      8  O   UNL     1       1.322   5.590   0.000  0.00  0.00    +0.000 OA
ENDROOT
BRANCH   5   9
ATOM      9  C   UNL     1       4.180   5.590   0.000  0.00  0.00    +0.000 C 
BRANCH   9  10
ATOM     10  O   UNL     1       4.895   6.003   0.000  0.00  0.00    +0.000 OA
BRANCH  10  11
ATOM     11  P   UNL     1       5.609   5.590   0.000  0.00  0.00    +0.000 P 
ATOM     12  O   UNL     1       6.324   5.178   0.000  0.00  0.00    +0.000 OA
ATOM     13  O   UNL     1       6.022   6.305   0.000  0.00  0.00    +0.000 OA
ATOM     14  O   UNL     1       5.197   4.876   0.000  0.00  0.00    +0.000 OA
ENDBRANCH  10  11
ENDBRANCH   9  10
ENDBRANCH   5   9
BRANCH   6  15
ATOM     15  C   UNL     1       2.751   4.765   0.000  0.00  0.00    +0.000 C 
BRANCH  15  16
ATOM     16  N   UNL     1       3.466   4.353   0.000  0.00  0.00    +0.000 NA
BRANCH  16  17
ATOM     17  C   UNL     1       3.466   3.528   0.000  0.00  0.00    +0.000 C 
ATOM     18  C   UNL     1       4.133   3.043   0.000  0.00  0.00    +0.000 C 
ATOM     19  O   UNL     1       3.878   2.258   0.000  0.00  0.00    +0.000 OA
ATOM     20  N   UNL     1       3.053   2.258   0.000  0.00  0.00    +0.000 NA
ATOM     21  C   UNL     1       2.798   3.043   0.000  0.00  0.00    +0.000 C 
ATOM     22  O   UNL     1       2.014   3.298   0.000  0.00  0.00    +0.000 OA
ENDBRANCH  16  17
ENDBRANCH  15  16
ENDBRANCH   6  15
TORSDOF 6
