REMARK  Name = 
REMARK  6 active torsions:
REMARK  status: ('A' for Active; 'I' for Inactive)
REMARK    1  A    between atoms: C_1  and  C_3
REMARK    2  A    between atoms: C_1  and  O_24
REMARK    3  A    between atoms: C_9  and  N_16
REMARK    4  A    between atoms: O_24  and  P_28
REMARK    5  A    between atoms: O_26  and  P_27
REMARK    6  A    between atoms: O_26  and  P_28
REMARK                            x       y       z     vdW  Elec       q    Type
REMARK                         _______ _______ _______ _____ _____    ______ ____
ROOT
ATOM      1  C   UNL     1       0.099  -1.009   0.000  0.00  0.00    +0.000 C 
ATOM      2  C   UNL     1       0.884  -1.264   0.000  0.00  0.00    +0.000 C 
ATOM      3  C   UNL     1       1.369  -0.597   0.000  0.00  0.00    +0.000 C 
ATOM      4  C   UNL     1       0.884   0.071   0.000  0.00  0.00    +0.000 C 
ATOM      5  O   UNL     1       1.139  -2.049   0.000  0.00  0.00    +0.000 OA
ATOM      6  O   UNL     1       2.194  -0.597   0.000  0.00  0.00    +0.000 OA
ATOM      7  O   UNL     1       0.099  -0.184   0.000  0.00  0.00    +0.000 OA
ENDROOT
BRANCH   4  18
ATOM      8  C   UNL     1       3.352   1.110   0.000  0.00  0.00    +0.000 A 
ATOM      9  C   UNL     1       1.923   1.935   0.000  0.00  0.00    +0.000 A 
ATOM     10  C   UNL     1       2.638   2.348   0.000  0.00  0.00    +0.000 A 
ATOM     11  C   UNL     1       1.923   1.110   0.000  0.00  0.00    +0.000 A 
ATOM     12  C   UNL     1       0.654   1.523   0.000  0.00  0.00    +0.000 A 
ATOM     13 BR   UNL     1      -0.171   1.523   0.000  0.00  0.00    +0.000 Br
ATOM     14  N   UNL     1       2.638   3.173   0.000  0.00  0.00    +0.000 NA
ATOM     15  N   UNL     1       3.352   1.935   0.000  0.00  0.00    +0.000 NA
ATOM     16  N   UNL     1       2.638   0.698   0.000  0.00  0.00    +0.000 NA
ATOM     17  N   UNL     1       1.139   2.190   0.000  0.00  0.00    +0.000 NA
ATOM     18  N   UNL     1       1.139   0.856   0.000  0.00  0.00    +0.000 N 
ENDBRANCH   4  18
BRANCH   1  19
ATOM     19  C   UNL     1      -0.568  -1.494   0.000  0.00  0.00    +0.000 C 
BRANCH  19  20
ATOM     20  O   UNL     1      -0.482  -2.314   0.000  0.00  0.00    +0.000 OA
BRANCH  20  23
ATOM     21  O   UNL     1      -1.634  -2.132   0.000  0.00  0.00    +0.000 OA
ATOM     22  O   UNL     1      -0.665  -3.467   0.000  0.00  0.00    +0.000 OA
ATOM     23  P   UNL     1      -1.149  -2.799   0.000  0.00  0.00    +0.000 P 
BRANCH  23  24
ATOM     24  O   UNL     1      -1.817  -3.284   0.000  0.00  0.00    +0.000 OA
BRANCH  24  28
ATOM     25  O   UNL     1      -1.644  -4.925   0.000  0.00  0.00    +0.000 OA
ATOM     26  O   UNL     1      -2.551  -4.191   0.000  0.00  0.00    +0.000 OA
ATOM     27  O   UNL     1      -0.910  -4.019   0.000  0.00  0.00    +0.000 OA
ATOM     28  P   UNL     1      -1.731  -4.105   0.000  0.00  0.00    +0.000 P 
ENDBRANCH  24  28
ENDBRANCH  23  24
ENDBRANCH  20  23
ENDBRANCH  19  20
ENDBRANCH   1  19
TORSDOF 6
