REMARK  Name = 
REMARK  9 active torsions:
REMARK  status: ('A' for Active; 'I' for Inactive)
REMARK    1  A    between atoms: N_6  and  C_7
REMARK    2  A    between atoms: C_9  and  C_10
REMARK    3  A    between atoms: C_10  and  O_11
REMARK    4  A    between atoms: O_11  and  P_12
REMARK    5  A    between atoms: P_12  and  O_15
REMARK    6  A    between atoms: O_15  and  P_16
REMARK    7  A    between atoms: P_16  and  O_19
REMARK    8  A    between atoms: O_19  and  C_20
REMARK    9  A    between atoms: C_20  and  C_21
REMARK                            x       y       z     vdW  Elec       q    Type
REMARK                         _______ _______ _______ _____ _____    ______ ____
ROOT
ATOM      1  C   UNL     1      -2.492   3.429   0.000  0.00  0.00    +0.000 C 
ENDROOT
BRANCH   1   4
ATOM      2  C   UNL     1      -4.512   2.739   0.000  0.00  0.00    +0.000 C 
ATOM      3  O   UNL     1      -3.960   3.353   0.000  0.00  0.00    +0.000 OA
ATOM      4  C   UNL     1      -3.206   3.017   0.000  0.00  0.00    +0.000 C 
ATOM      5  C   UNL     1      -3.292   2.196   0.000  0.00  0.00    +0.000 C 
ATOM      6  O   UNL     1      -2.679   1.644   0.000  0.00  0.00    +0.000 OA
ATOM      7  C   UNL     1      -4.099   2.025   0.000  0.00  0.00    +0.000 C 
ATOM      8  O   UNL     1      -4.435   1.271   0.000  0.00  0.00    +0.000 OA
BRANCH   2  14
ATOM      9  N   UNL     1      -8.059   2.399   0.000  0.00  0.00    +0.000 NA
ATOM     10  C   UNL     1      -7.305   2.063   0.000  0.00  0.00    +0.000 A 
ATOM     11  C   UNL     1      -6.638   2.548   0.000  0.00  0.00    +0.000 A 
ATOM     12  N   UNL     1      -6.552   3.369   0.000  0.00  0.00    +0.000 NA
ATOM     13  C   UNL     1      -5.745   3.540   0.000  0.00  0.00    +0.000 A 
ATOM     14  N   UNL     1      -5.332   2.826   0.000  0.00  0.00    +0.000 N 
ATOM     15  C   UNL     1      -5.884   2.212   0.000  0.00  0.00    +0.000 A 
ATOM     16  N   UNL     1      -5.798   1.392   0.000  0.00  0.00    +0.000 NA
ATOM     17  C   UNL     1      -6.465   0.907   0.000  0.00  0.00    +0.000 A 
ATOM     18  N   UNL     1      -7.219   1.243   0.000  0.00  0.00    +0.000 NA
ENDBRANCH   2  14
ENDBRANCH   1   4
BRANCH   1  19
ATOM     19  O   UNL     1      -1.777   3.017   0.000  0.00  0.00    +0.000 OA
BRANCH  19  20
ATOM     20  P   UNL     1      -1.063   3.429   0.000  0.00  0.00    +0.000 P 
ATOM     21  O   UNL     1      -0.650   2.715   0.000  0.00  0.00    +0.000 OA
ATOM     22  O   UNL     1      -1.475   4.144   0.000  0.00  0.00    +0.000 OA
BRANCH  20  23
ATOM     23  O   UNL     1      -0.348   3.842   0.000  0.00  0.00    +0.000 OA
BRANCH  23  24
ATOM     24  P   UNL     1       0.366   3.429   0.000  0.00  0.00    +0.000 P 
ATOM     25  O   UNL     1      -0.046   2.715   0.000  0.00  0.00    +0.000 OA
ATOM     26  O   UNL     1       0.779   4.144   0.000  0.00  0.00    +0.000 OA
BRANCH  24  27
ATOM     27  O   UNL     1       1.081   3.017   0.000  0.00  0.00    +0.000 OA
BRANCH  27  28
ATOM     28  C   UNL     1       1.795   3.429   0.000  0.00  0.00    +0.000 C 
BRANCH  28  29
ATOM     29  C   UNL     1       2.510   3.017   0.000  0.00  0.00    +0.000 C 
ATOM     30  O   UNL     1       3.263   3.353   0.000  0.00  0.00    +0.000 OA
ATOM     31  C   UNL     1       3.815   2.739   0.000  0.00  0.00    +0.000 C 
ATOM     32  O   UNL     1       4.636   2.826   0.000  0.00  0.00    +0.000 OA
ATOM     33  C   UNL     1       3.403   2.025   0.000  0.00  0.00    +0.000 C 
ATOM     34  O   UNL     1       3.738   1.271   0.000  0.00  0.00    +0.000 OA
ATOM     35  C   UNL     1       2.596   2.196   0.000  0.00  0.00    +0.000 C 
ATOM     36  O   UNL     1       1.983   1.644   0.000  0.00  0.00    +0.000 OA
ENDBRANCH  28  29
ENDBRANCH  27  28
ENDBRANCH  24  27
ENDBRANCH  23  24
ENDBRANCH  20  23
ENDBRANCH  19  20
ENDBRANCH   1  19
TORSDOF 9
