REMARK  Name = 
REMARK  4 active torsions:
REMARK  status: ('A' for Active; 'I' for Inactive)
REMARK    1  A    between atoms: C_2  and  C_5
REMARK    2  A    between atoms: C_5  and  C_7
REMARK    3  A    between atoms: C_7  and  C_8
REMARK    4  A    between atoms: C_8  and  C_10
REMARK                            x       y       z     vdW  Elec       q    Type
REMARK                         _______ _______ _______ _____ _____    ______ ____
ROOT
ATOM      1  C   UNL     1      -0.534  -2.203   0.000  0.00  0.00    +0.000 C 
ENDROOT
BRANCH   1   2
ATOM      2  C   UNL     1      -1.249  -1.790   0.000  0.00  0.00    +0.000 C 
ATOM      3  O   UNL     1      -1.249  -0.965   0.000  0.00  0.00    +0.000 OA
BRANCH   2   5
ATOM      4  F   UNL     1      -2.678  -2.615   0.000  0.00  0.00    +0.000 F 
ATOM      5  C   UNL     1      -1.963  -2.203   0.000  0.00  0.00    +0.000 C 
ATOM      6  F   UNL     1      -1.551  -2.917   0.000  0.00  0.00    +0.000 F 
ATOM      7  F   UNL     1      -2.376  -1.488   0.000  0.00  0.00    +0.000 F 
ENDBRANCH   2   5
ENDBRANCH   1   2
BRANCH   1   8
ATOM      8  C   UNL     1       0.180  -1.790   0.000  0.00  0.00    +0.000 C 
ATOM      9  O   UNL     1       0.180  -0.965   0.000  0.00  0.00    +0.000 OA
BRANCH   8  10
ATOM     10  C   UNL     1       0.895  -2.203   0.000  0.00  0.00    +0.000 A 
ATOM     11  C   UNL     1       1.648  -1.867   0.000  0.00  0.00    +0.000 A 
ATOM     12  C   UNL     1       2.200  -2.480   0.000  0.00  0.00    +0.000 A 
ATOM     13  C   UNL     1       1.788  -3.195   0.000  0.00  0.00    +0.000 A 
ATOM     14  S   UNL     1       0.981  -3.023   0.000  0.00  0.00    +0.000 S 
ENDBRANCH   8  10
ENDBRANCH   1   8
TORSDOF 4
