REMARK  Name = 
REMARK  4 active torsions:
REMARK  status: ('A' for Active; 'I' for Inactive)
REMARK    1  A    between atoms: C_1  and  C_2
REMARK    2  A    between atoms: C_1  and  N_17
REMARK    3  A    between atoms: C_2  and  C_3
REMARK    4  A    between atoms: C_2  and  C_10
REMARK                            x       y       z     vdW  Elec       q    Type
REMARK                         _______ _______ _______ _____ _____    ______ ____
ROOT
ATOM      1  C   UNL     1       2.870   0.892   0.000  0.00  0.00    +0.000 C 
ENDROOT
BRANCH   1   2
ATOM      2  C   UNL     1       2.870   0.067   0.000  0.00  0.00    +0.000 A 
ATOM      3  C   UNL     1       3.584  -0.345   0.000  0.00  0.00    +0.000 A 
ATOM      4  C   UNL     1       3.584  -1.171   0.000  0.00  0.00    +0.000 A 
ATOM      5  C   UNL     1       2.870  -1.583   0.000  0.00  0.00    +0.000 A 
ATOM      6  C   UNL     1       2.155  -1.171   0.000  0.00  0.00    +0.000 A 
ATOM      7  C   UNL     1       2.155  -0.345   0.000  0.00  0.00    +0.000 A 
ATOM      8  O   UNL     1       2.870  -2.408   0.000  0.00  0.00    +0.000 OA
ENDBRANCH   1   2
BRANCH   1   9
ATOM      9  C   UNL     1       3.584   1.304   0.000  0.00  0.00    +0.000 C 
ATOM     10  C   UNL     1       4.114   1.937   0.000  0.00  0.00    +0.000 C 
ATOM     11  C   UNL     1       4.927   1.793   0.000  0.00  0.00    +0.000 C 
ATOM     12  C   UNL     1       5.209   1.018   0.000  0.00  0.00    +0.000 C 
ATOM     13  C   UNL     1       4.679   0.386   0.000  0.00  0.00    +0.000 C 
ATOM     14  C   UNL     1       3.866   0.529   0.000  0.00  0.00    +0.000 C 
ATOM     15  O   UNL     1       3.054   1.937   0.000  0.00  0.00    +0.000 OA
ENDBRANCH   1   9
BRANCH   1  16
ATOM     16  C   UNL     1       2.155   1.304   0.000  0.00  0.00    +0.000 C 
BRANCH  16  17
ATOM     17  N   UNL     1       1.441   0.892   0.000  0.00  0.00    +0.000 NA
ATOM     18  C   UNL     1       0.726   1.304   0.000  0.00  0.00    +0.000 C 
ATOM     19  C   UNL     1       1.441   0.067   0.000  0.00  0.00    +0.000 C 
ENDBRANCH  16  17
ENDBRANCH   1  16
TORSDOF 4
