REMARK  Name = 
REMARK  8 active torsions:
REMARK  status: ('A' for Active; 'I' for Inactive)
REMARK    1  A    between atoms: C_2  and  C_6
REMARK    2  A    between atoms: C_3  and  C_4
REMARK    3  A    between atoms: C_3  and  C_5
REMARK    4  A    between atoms: C_4  and  C_10
REMARK    5  A    between atoms: C_6  and  N_15
REMARK    6  A    between atoms: C_7  and  C_10
REMARK    7  A    between atoms: C_7  and  C_11
REMARK    8  A    between atoms: C_10  and  C_12
REMARK                            x       y       z     vdW  Elec       q    Type
REMARK                         _______ _______ _______ _____ _____    ______ ____
ROOT
ATOM      1  C   UNL     1       2.399  -2.027   0.000  0.00  0.00    +0.000 C 
ENDROOT
BRANCH   1   4
ATOM      2  C   UNL     1       1.089  -2.694   0.000  0.00  0.00    +0.000 A 
ATOM      3  C   UNL     1       0.304  -1.614   0.000  0.00  0.00    +0.000 A 
ATOM      4  C   UNL     1       1.574  -2.027   0.000  0.00  0.00    +0.000 A 
ATOM      5  N   UNL     1       1.089  -1.359   0.000  0.00  0.00    +0.000 NA
ATOM      6  N   UNL     1       0.304  -2.439   0.000  0.00  0.00    +0.000 N 
BRANCH   6   7
ATOM      7  C   UNL     1      -0.363  -2.924   0.000  0.00  0.00    +0.000 C 
BRANCH   7   9
ATOM      8  C   UNL     1      -1.784  -3.074   0.000  0.00  0.00    +0.000 C 
ATOM      9  C   UNL     1      -1.117  -2.589   0.000  0.00  0.00    +0.000 C 
ENDBRANCH   7   9
ENDBRANCH   6   7
ENDBRANCH   1   4
BRANCH   1  10
ATOM     10  C   UNL     1       2.811  -1.312   0.000  0.00  0.00    +0.000 C 
BRANCH  10  11
ATOM     11  C   UNL     1       2.399  -0.598   0.000  0.00  0.00    +0.000 C 
ATOM     12  O   UNL     1       1.574  -0.598   0.000  0.00  0.00    +0.000 OA
ATOM     13  O   UNL     1       2.811   0.117   0.000  0.00  0.00    +0.000 OA
ENDBRANCH  10  11
BRANCH  10  14
ATOM     14  C   UNL     1       3.636  -1.312   0.000  0.00  0.00    +0.000 C 
BRANCH  14  15
ATOM     15  C   UNL     1       4.049  -0.598   0.000  0.00  0.00    +0.000 C 
BRANCH  15  16
ATOM     16  C   UNL     1       4.874  -0.598   0.000  0.00  0.00    +0.000 C 
ATOM     17  N   UNL     1       5.286   0.117   0.000  0.00  0.00    +0.000 NA
ENDBRANCH  15  16
ENDBRANCH  14  15
ENDBRANCH  10  14
ENDBRANCH   1  10
TORSDOF 8
