REMARK  Name = 
REMARK  9 active torsions:
REMARK  status: ('A' for Active; 'I' for Inactive)
REMARK    1  A    between atoms: C_2  and  O_3
REMARK    2  A    between atoms: O_3  and  P_4
REMARK    3  A    between atoms: P_4  and  O_6
REMARK    4  A    between atoms: P_4  and  C_9
REMARK    5  A    between atoms: O_6  and  C_7
REMARK    6  A    between atoms: C_9  and  N_11
REMARK    7  A    between atoms: N_14  and  C_15
REMARK    8  A    between atoms: N_14  and  N_18
REMARK    9  A    between atoms: C_15  and  C_16
REMARK                            x       y       z     vdW  Elec       q    Type
REMARK                         _______ _______ _______ _____ _____    ______ ____
ROOT
ATOM      1  C   UNL     1       7.116   2.094   0.000  0.00  0.00    +0.000 C 
ATOM      2  C   UNL     1       7.010   2.913   0.000  0.00  0.00    +0.000 C 
ENDROOT
BRANCH   1   3
ATOM      3  N   UNL     1       7.878   1.777   0.000  0.00  0.00    +0.000 NA
ATOM      4  C   UNL     1       8.533   2.278   0.000  0.00  0.00    +0.000 C 
ATOM      5  O   UNL     1       8.427   3.096   0.000  0.00  0.00    +0.000 OA
ATOM      6  N   UNL     1       9.295   1.960   0.000  0.00  0.00    +0.000 N 
BRANCH   6   7
ATOM      7  N   UNL     1       9.400   1.142   0.000  0.00  0.00    +0.000 NA
ATOM      8  O   UNL     1      10.162   0.825   0.000  0.00  0.00    +0.000 OA
ENDBRANCH   6   7
BRANCH   6   9
ATOM      9  C   UNL     1       9.950   2.461   0.000  0.00  0.00    +0.000 C 
BRANCH   9  10
ATOM     10  C   UNL     1      10.712   2.143   0.000  0.00  0.00    +0.000 C 
ATOM     11 CL   UNL     1      11.367   2.644   0.000  0.00  0.00    +0.000 Cl
ENDBRANCH   9  10
ENDBRANCH   6   9
ENDBRANCH   1   3
BRANCH   1  12
ATOM     12  P   UNL     1       6.460   1.594   0.000  0.00  0.00    +0.000 P 
ATOM     13  O   UNL     1       6.961   0.938   0.000  0.00  0.00    +0.000 OA
BRANCH  12  14
ATOM     14  O   UNL     1       5.805   1.093   0.000  0.00  0.00    +0.000 OA
BRANCH  14  16
ATOM     15  C   UNL     1       4.388   0.910   0.000  0.00  0.00    +0.000 C 
ATOM     16  C   UNL     1       5.043   1.410   0.000  0.00  0.00    +0.000 C 
ENDBRANCH  14  16
ENDBRANCH  12  14
BRANCH  12  17
ATOM     17  O   UNL     1       5.960   2.249   0.000  0.00  0.00    +0.000 OA
BRANCH  17  18
ATOM     18  C   UNL     1       5.141   2.143   0.000  0.00  0.00    +0.000 C 
ATOM     19  C   UNL     1       4.641   2.799   0.000  0.00  0.00    +0.000 C 
ENDBRANCH  17  18
ENDBRANCH  12  17
ENDBRANCH   1  12
TORSDOF 9
