REMARK  Name = 
REMARK  13 active torsions:
REMARK  status: ('A' for Active; 'I' for Inactive)
REMARK    1  A    between atoms: C_8  and  N_12
REMARK    2  A    between atoms: N_12  and  C_13
REMARK    3  A    between atoms: C_13  and  C_14
REMARK    4  A    between atoms: C_14  and  C_15
REMARK    5  A    between atoms: C_15  and  C_16
REMARK    6  A    between atoms: C_16  and  C_17
REMARK    7  A    between atoms: C_17  and  C_18
REMARK    8  A    between atoms: C_18  and  C_19
REMARK    9  A    between atoms: C_19  and  C_20
REMARK   10  A    between atoms: C_20  and  C_21
REMARK   11  A    between atoms: C_21  and  C_22
REMARK   12  A    between atoms: C_22  and  N_23
REMARK   13  A    between atoms: N_23  and  C_24
REMARK                            x       y       z     vdW  Elec       q    Type
REMARK                         _______ _______ _______ _____ _____    ______ ____
ROOT
ATOM      1  C   UNL     1      10.717   6.188   0.000  0.00  0.00    +0.000 C 
ENDROOT
BRANCH   1   2
ATOM      2  C   UNL     1      11.431   5.775   0.000  0.00  0.00    +0.000 C 
BRANCH   2   3
ATOM      3  C   UNL     1      12.146   6.188   0.000  0.00  0.00    +0.000 C 
BRANCH   3   4
ATOM      4  C   UNL     1      12.861   5.775   0.000  0.00  0.00    +0.000 C 
BRANCH   4   5
ATOM      5  N   UNL     1      13.575   6.188   0.000  0.00  0.00    +0.000 NA
BRANCH   5   6
ATOM      6  C   UNL     1      14.289   5.775   0.000  0.00  0.00    +0.000 A 
ATOM      7  C   UNL     1      15.004   6.188   0.000  0.00  0.00    +0.000 A 
ATOM      8  C   UNL     1      15.004   7.013   0.000  0.00  0.00    +0.000 C 
ATOM      9  C   UNL     1      15.718   7.425   0.000  0.00  0.00    +0.000 C 
ATOM     10  C   UNL     1      16.433   7.013   0.000  0.00  0.00    +0.000 C 
ATOM     11  C   UNL     1      16.433   6.188   0.000  0.00  0.00    +0.000 C 
ATOM     12  C   UNL     1      15.718   5.775   0.000  0.00  0.00    +0.000 A 
ATOM     13  N   UNL     1      15.718   4.950   0.000  0.00  0.00    +0.000 NA
ATOM     14  C   UNL     1      15.004   4.537   0.000  0.00  0.00    +0.000 A 
ATOM     15  C   UNL     1      15.004   3.712   0.000  0.00  0.00    +0.000 A 
ATOM     16  C   UNL     1      14.289   3.300   0.000  0.00  0.00    +0.000 A 
ATOM     17  C   UNL     1      13.575   3.712   0.000  0.00  0.00    +0.000 A 
ATOM     18  C   UNL     1      13.575   4.537   0.000  0.00  0.00    +0.000 A 
ATOM     19  C   UNL     1      14.289   4.950   0.000  0.00  0.00    +0.000 A 
ENDBRANCH   5   6
ENDBRANCH   4   5
ENDBRANCH   3   4
ENDBRANCH   2   3
ENDBRANCH   1   2
BRANCH   1  20
ATOM     20  C   UNL     1      10.003   5.775   0.000  0.00  0.00    +0.000 C 
BRANCH  20  21
ATOM     21  C   UNL     1       9.288   6.188   0.000  0.00  0.00    +0.000 C 
BRANCH  21  22
ATOM     22  C   UNL     1       8.574   5.775   0.000  0.00  0.00    +0.000 C 
BRANCH  22  23
ATOM     23  C   UNL     1       7.859   6.188   0.000  0.00  0.00    +0.000 C 
BRANCH  23  24
ATOM     24  C   UNL     1       7.145   5.775   0.000  0.00  0.00    +0.000 C 
BRANCH  24  25
ATOM     25  C   UNL     1       6.430   6.188   0.000  0.00  0.00    +0.000 C 
BRANCH  25  26
ATOM     26  N   UNL     1       5.716   5.775   0.000  0.00  0.00    +0.000 NA
BRANCH  26  34
ATOM     27  O   UNL     1       5.001   9.488   0.000  0.00  0.00    +0.000 OA
ATOM     28  C   UNL     1       5.001   8.662   0.000  0.00  0.00    +0.000 A 
ATOM     29  N   UNL     1       4.287   8.250   0.000  0.00  0.00    +0.000 NA
ATOM     30  C   UNL     1       4.287   7.425   0.000  0.00  0.00    +0.000 A 
ATOM     31  C   UNL     1       5.001   7.013   0.000  0.00  0.00    +0.000 A 
ATOM     32  C   UNL     1       5.716   7.425   0.000  0.00  0.00    +0.000 A 
ATOM     33  C   UNL     1       5.716   8.250   0.000  0.00  0.00    +0.000 A 
ATOM     34  C   UNL     1       5.001   6.188   0.000  0.00  0.00    +0.000 C 
ATOM     35  C   UNL     1       4.287   5.775   0.000  0.00  0.00    +0.000 C 
ATOM     36  C   UNL     1       3.572   6.188   0.000  0.00  0.00    +0.000 C 
ATOM     37  C   UNL     1       3.572   7.013   0.000  0.00  0.00    +0.000 C 
ENDBRANCH  26  34
ENDBRANCH  25  26
ENDBRANCH  24  25
ENDBRANCH  23  24
ENDBRANCH  22  23
ENDBRANCH  21  22
ENDBRANCH  20  21
ENDBRANCH   1  20
TORSDOF 13
