REMARK  Name = 
REMARK  3 active torsions:
REMARK  status: ('A' for Active; 'I' for Inactive)
REMARK    1  A    between atoms: C_16  and  C_21
REMARK    2  A    between atoms: C_17  and  N_31
REMARK    3  A    between atoms: C_18  and  N_30
REMARK                            x       y       z     vdW  Elec       q    Type
REMARK                         _______ _______ _______ _____ _____    ______ ____
ROOT
ATOM      1  C   UNL     1       2.858   0.825   0.000  0.00  0.00    +0.000 C 
ATOM      2  C   UNL     1      -2.143  -1.238   0.000  0.00  0.00    +0.000 A 
ATOM      3  C   UNL     1      -1.429  -1.650   0.000  0.00  0.00    +0.000 A 
ATOM      4  C   UNL     1      -1.429   0.000   0.000  0.00  0.00    +0.000 A 
ATOM      5  C   UNL     1       1.429   0.000   0.000  0.00  0.00    +0.000 A 
ATOM      6  C   UNL     1       2.858   0.000   0.000  0.00  0.00    +0.000 A 
ATOM      7  C   UNL     1      -2.143  -0.412   0.000  0.00  0.00    +0.000 A 
ATOM      8  C   UNL     1       2.143  -0.412   0.000  0.00  0.00    +0.000 A 
ATOM      9  C   UNL     1      -0.715  -1.238   0.000  0.00  0.00    +0.000 A 
ATOM     10  C   UNL     1       3.572  -0.412   0.000  0.00  0.00    +0.000 A 
ATOM     11  C   UNL     1       2.143  -1.238   0.000  0.00  0.00    +0.000 A 
ATOM     12  C   UNL     1       3.572  -1.238   0.000  0.00  0.00    +0.000 A 
ATOM     13  C   UNL     1       0.715  -1.238   0.000  0.00  0.00    +0.000 A 
ATOM     14  N   UNL     1      -0.715  -0.412   0.000  0.00  0.00    +0.000 NA
ATOM     15  N   UNL     1       0.715  -0.412   0.000  0.00  0.00    +0.000 NA
ATOM     16  N   UNL     1       0.000  -1.650   0.000  0.00  0.00    +0.000 NA
ATOM     17  N   UNL     1       1.429  -1.650   0.000  0.00  0.00    +0.000 NA
ATOM     18  N   UNL     1       2.858  -1.650   0.000  0.00  0.00    +0.000 N 
ATOM     19  O   UNL     1       4.287  -1.650   0.000  0.00  0.00    +0.000 OA
ENDROOT
BRANCH   7  25
ATOM     20  C   UNL     1      -4.287   0.000   0.000  0.00  0.00    +0.000 C 
ATOM     21  C   UNL     1      -3.572   1.238   0.000  0.00  0.00    +0.000 C 
ATOM     22  C   UNL     1      -3.572  -0.412   0.000  0.00  0.00    +0.000 C 
ATOM     23  C   UNL     1      -2.858   0.825   0.000  0.00  0.00    +0.000 C 
ATOM     24  N   UNL     1      -4.287   0.825   0.000  0.00  0.00    +0.000 NA
ATOM     25  N   UNL     1      -2.858   0.000   0.000  0.00  0.00    +0.000 N 
ENDBRANCH   7  25
BRANCH  18  30
ATOM     26  C   UNL     1       2.445  -3.744   0.000  0.00  0.00    +0.000 C 
ATOM     27  C   UNL     1       3.270  -3.744   0.000  0.00  0.00    +0.000 C 
ATOM     28  C   UNL     1       2.190  -2.960   0.000  0.00  0.00    +0.000 C 
ATOM     29  C   UNL     1       3.525  -2.960   0.000  0.00  0.00    +0.000 C 
ATOM     30  C   UNL     1       2.858  -2.475   0.000  0.00  0.00    +0.000 C 
ENDBRANCH  18  30
BRANCH  10  32
ATOM     31  C   UNL     1       5.001  -0.412   0.000  0.00  0.00    +0.000 C 
ATOM     32  C   UNL     1       4.287   0.000   0.000  0.00  0.00    +0.000 C 
ATOM     33  O   UNL     1       4.287   0.825   0.000  0.00  0.00    +0.000 OA
ENDBRANCH  10  32
TORSDOF 3
