REMARK  Name = 
REMARK  20 active torsions:
REMARK  status: ('A' for Active; 'I' for Inactive)
REMARK    1  A    between atoms: C_6  and  C_8
REMARK    2  A    between atoms: C_7  and  C_9
REMARK    3  A    between atoms: C_8  and  C_10
REMARK    4  A    between atoms: C_9  and  C_11
REMARK    5  A    between atoms: C_10  and  C_12
REMARK    6  A    between atoms: C_11  and  C_13
REMARK    7  A    between atoms: C_12  and  C_20
REMARK    8  A    between atoms: C_13  and  C_21
REMARK    9  A    between atoms: C_14  and  C_17
REMARK   10  A    between atoms: C_14  and  C_19
REMARK   11  A    between atoms: C_15  and  C_16
REMARK   12  A    between atoms: C_15  and  N_22
REMARK   13  A    between atoms: C_16  and  O_28
REMARK   14  A    between atoms: C_17  and  P_30
REMARK   15  A    between atoms: C_18  and  C_19
REMARK   16  A    between atoms: C_18  and  O_27
REMARK   17  A    between atoms: C_19  and  O_29
REMARK   18  A    between atoms: C_20  and  O_27
REMARK   19  A    between atoms: C_21  and  O_29
REMARK   20  A    between atoms: O_28  and  P_30
REMARK                            x       y       z     vdW  Elec       q    Type
REMARK                         _______ _______ _______ _____ _____    ______ ____
ROOT
ATOM      1  C   UNL     1       5.443  -0.855   0.000  0.00  0.00    +0.000 C 
ENDROOT
BRANCH   1   2
ATOM      2  C   UNL     1       5.443  -1.680   0.000  0.00  0.00    +0.000 C 
BRANCH   2   3
ATOM      3  C   UNL     1       6.158  -2.092   0.000  0.00  0.00    +0.000 C 
BRANCH   3   6
ATOM      4  O   UNL     1       5.333  -2.917   0.000  0.00  0.00    +0.000 OA
ATOM      5  O   UNL     1       6.983  -2.917   0.000  0.00  0.00    +0.000 OA
ATOM      6  P   UNL     1       6.158  -2.917   0.000  0.00  0.00    +0.000 P 
BRANCH   6   7
ATOM      7  O   UNL     1       6.158  -3.742   0.000  0.00  0.00    +0.000 OA
BRANCH   7   8
ATOM      8  C   UNL     1       6.872  -4.155   0.000  0.00  0.00    +0.000 C 
BRANCH   8   9
ATOM      9  C   UNL     1       6.872  -4.980   0.000  0.00  0.00    +0.000 C 
BRANCH   9  13
ATOM     10  C   UNL     1       8.301  -5.805   0.000  0.00  0.00    +0.000 C 
ATOM     11  C   UNL     1       7.174  -6.107   0.000  0.00  0.00    +0.000 C 
ATOM     12  C   UNL     1       7.999  -4.678   0.000  0.00  0.00    +0.000 C 
ATOM     13  N   UNL     1       7.587  -5.392   0.000  0.00  0.00    +0.000 N 
ENDBRANCH   9  13
ENDBRANCH   8   9
ENDBRANCH   7   8
ENDBRANCH   6   7
ENDBRANCH   3   6
ENDBRANCH   2   3
ENDBRANCH   1   2
BRANCH   1  14
ATOM     14  C   UNL     1       4.729  -0.442   0.000  0.00  0.00    +0.000 C 
BRANCH  14  15
ATOM     15  O   UNL     1       4.729   0.383   0.000  0.00  0.00    +0.000 OA
BRANCH  15  16
ATOM     16  C   UNL     1       4.014   0.795   0.000  0.00  0.00    +0.000 C 
ATOM     17  O   UNL     1       3.300   0.383   0.000  0.00  0.00    +0.000 OA
BRANCH  16  18
ATOM     18  C   UNL     1       4.014   1.620   0.000  0.00  0.00    +0.000 C 
BRANCH  18  19
ATOM     19  C   UNL     1       3.300   2.033   0.000  0.00  0.00    +0.000 C 
BRANCH  19  20
ATOM     20  C   UNL     1       3.300   2.858   0.000  0.00  0.00    +0.000 C 
BRANCH  20  22
ATOM     21  C   UNL     1       2.586   4.095   0.000  0.00  0.00    +0.000 C 
ATOM     22  C   UNL     1       2.586   3.270   0.000  0.00  0.00    +0.000 C 
ENDBRANCH  20  22
ENDBRANCH  19  20
ENDBRANCH  18  19
ENDBRANCH  16  18
ENDBRANCH  15  16
ENDBRANCH  14  15
ENDBRANCH   1  14
BRANCH   1  23
ATOM     23  O   UNL     1       6.158  -0.442   0.000  0.00  0.00    +0.000 OA
BRANCH  23  24
ATOM     24  C   UNL     1       6.158   0.383   0.000  0.00  0.00    +0.000 C 
ATOM     25  O   UNL     1       5.443   0.795   0.000  0.00  0.00    +0.000 OA
BRANCH  24  26
ATOM     26  C   UNL     1       6.872   0.795   0.000  0.00  0.00    +0.000 C 
BRANCH  26  27
ATOM     27  C   UNL     1       6.872   1.620   0.000  0.00  0.00    +0.000 C 
BRANCH  27  28
ATOM     28  C   UNL     1       7.587   2.033   0.000  0.00  0.00    +0.000 C 
BRANCH  28  30
ATOM     29  C   UNL     1       8.301   3.270   0.000  0.00  0.00    +0.000 C 
ATOM     30  C   UNL     1       7.587   2.858   0.000  0.00  0.00    +0.000 C 
ENDBRANCH  28  30
ENDBRANCH  27  28
ENDBRANCH  26  27
ENDBRANCH  24  26
ENDBRANCH  23  24
ENDBRANCH   1  23
TORSDOF 20
