REMARK  Name = 
REMARK  6 active torsions:
REMARK  status: ('A' for Active; 'I' for Inactive)
REMARK    1  A    between atoms: C_6  and  C_9
REMARK    2  A    between atoms: C_9  and  N_10
REMARK    3  A    between atoms: C_11  and  C_13
REMARK    4  A    between atoms: N_18  and  S_23
REMARK    5  A    between atoms: S_23  and  C_26
REMARK    6  A    between atoms: C_26  and  C_27
REMARK                            x       y       z     vdW  Elec       q    Type
REMARK                         _______ _______ _______ _____ _____    ______ ____
ROOT
ATOM      1  C   UNL     1       1.139  -1.365   0.000  0.00  0.00    +0.000 C 
ATOM      2  C   UNL     1       0.654  -0.698   0.000  0.00  0.00    +0.000 C 
ATOM      3  C   UNL     1       1.139  -0.030   0.000  0.00  0.00    +0.000 C 
ATOM      4  C   UNL     1       1.923  -0.285   0.000  0.00  0.00    +0.000 C 
ATOM      5  C   UNL     1       2.638   0.127   0.000  0.00  0.00    +0.000 C 
ATOM      6  N   UNL     1       3.352  -0.285   0.000  0.00  0.00    +0.000 NA
ATOM      7  C   UNL     1       3.352  -1.110   0.000  0.00  0.00    +0.000 C 
ATOM      8  C   UNL     1       2.638  -1.523   0.000  0.00  0.00    +0.000 C 
ATOM      9  O   UNL     1       2.638  -2.348   0.000  0.00  0.00    +0.000 OA
ATOM     10  N   UNL     1       1.923  -1.110   0.000  0.00  0.00    +0.000 N 
ENDROOT
BRANCH   1  12
ATOM     11  N   UNL     1       1.436  -2.763   0.000  0.00  0.00    +0.000 NA
ATOM     12  C   UNL     1       0.884  -2.150   0.000  0.00  0.00    +0.000 C 
ATOM     13  O   UNL     1       0.077  -2.321   0.000  0.00  0.00    +0.000 OA
BRANCH  11  14
ATOM     14  C   UNL     1       1.181  -3.548   0.000  0.00  0.00    +0.000 C 
BRANCH  14  20
ATOM     15  N   UNL     1       4.196  -5.829   0.000  0.00  0.00    +0.000 NA
ATOM     16  C   UNL     1       3.389  -6.000   0.000  0.00  0.00    +0.000 C 
ATOM     17  N   UNL     1       2.837  -5.387   0.000  0.00  0.00    +0.000 N 
ATOM     18  C   UNL     1       2.030  -5.559   0.000  0.00  0.00    +0.000 C 
ATOM     19  C   UNL     1       1.478  -4.945   0.000  0.00  0.00    +0.000 C 
ATOM     20  C   UNL     1       1.733  -4.161   0.000  0.00  0.00    +0.000 C 
ATOM     21  C   UNL     1       2.540  -3.989   0.000  0.00  0.00    +0.000 C 
ATOM     22  C   UNL     1       3.092  -4.602   0.000  0.00  0.00    +0.000 C 
ATOM     23  N   UNL     1       3.134  -6.785   0.000  0.00  0.00    +0.000 NA
ATOM     24  O   UNL     1       3.686  -7.398   0.000  0.00  0.00    +0.000 OA
ENDBRANCH  14  20
ENDBRANCH  11  14
ENDBRANCH   1  12
BRANCH   6  25
ATOM     25  S   UNL     1       4.067   0.127   0.000  0.00  0.00    +0.000 S 
ATOM     26  O   UNL     1       3.654   0.842   0.000  0.00  0.00    +0.000 OA
ATOM     27  O   UNL     1       4.479  -0.587   0.000  0.00  0.00    +0.000 OA
BRANCH  25  28
ATOM     28  C   UNL     1       4.781   0.540   0.000  0.00  0.00    +0.000 C 
BRANCH  28  29
ATOM     29  C   UNL     1       5.496   0.127   0.000  0.00  0.00    +0.000 A 
ATOM     30  C   UNL     1       6.210   0.540   0.000  0.00  0.00    +0.000 A 
ATOM     31  C   UNL     1       6.925   0.127   0.000  0.00  0.00    +0.000 A 
ATOM     32  C   UNL     1       6.925  -0.698   0.000  0.00  0.00    +0.000 A 
ATOM     33  C   UNL     1       6.210  -1.110   0.000  0.00  0.00    +0.000 A 
ATOM     34  C   UNL     1       5.496  -0.698   0.000  0.00  0.00    +0.000 A 
ENDBRANCH  28  29
ENDBRANCH  25  28
ENDBRANCH   6  25
TORSDOF 6
