REMARK  Name = 
REMARK  6 active torsions:
REMARK  status: ('A' for Active; 'I' for Inactive)
REMARK    1  A    between atoms: N_6  and  C_7
REMARK    2  A    between atoms: C_7  and  C_8
REMARK    3  A    between atoms: C_8  and  N_9
REMARK    4  A    between atoms: N_9  and  CA_10
REMARK    5  A    between atoms: CA_10  and  CB_11
REMARK    6  A    between atoms: CA_10  and  C_13
REMARK                            x       y       z     vdW  Elec       q    Type
REMARK                         _______ _______ _______ _____ _____    ______ ____
ROOT
ATOM      1  N   UNL     1      -2.492   4.223   0.000  0.00  0.00    +0.000 NA
ATOM      2  C   UNL     1      -1.707   3.968   0.000  0.00  0.00    +0.000 A 
ATOM      3  N   UNL     1      -1.094   4.520   0.000  0.00  0.00    +0.000 NA
ATOM      4  C   UNL     1      -0.309   4.265   0.000  0.00  0.00    +0.000 A 
ATOM      5  C   UNL     1      -0.138   3.458   0.000  0.00  0.00    +0.000 A 
ATOM      6  N   UNL     1       0.682   3.372   0.000  0.00  0.00    +0.000 N 
ATOM      7  C   UNL     1       1.018   4.126   0.000  0.00  0.00    +0.000 A 
ATOM      8  N   UNL     1       0.405   4.678   0.000  0.00  0.00    +0.000 NA
ATOM      9  C   UNL     1      -0.751   2.906   0.000  0.00  0.00    +0.000 A 
ATOM     10  O   UNL     1      -0.580   2.099   0.000  0.00  0.00    +0.000 OA
ATOM     11  N   UNL     1      -1.536   3.161   0.000  0.00  0.00    +0.000 NA
ENDROOT
BRANCH   6  12
ATOM     12  C   UNL     1       1.095   2.658   0.000  0.00  0.00    +0.000 C 
BRANCH  12  13
ATOM     13  C   ACE A   0       1.920   2.658   0.000  0.00  0.00    +0.000 C 
BRANCH  13  14
ATOM     14  N   UNL     1       2.333   1.943   0.000  0.00  0.00    +0.000 NA
BRANCH  14  15
ATOM     15  CA  UNL     1       3.158   1.943   0.000  0.00  0.00    +0.000 C 
BRANCH  15  16
ATOM     16  C   UNL     1       3.570   2.658   0.000  0.00  0.00    +0.000 C 
ATOM     17  O   UNL     1       4.395   2.658   0.000  0.00  0.00    +0.000 OA
ENDBRANCH  15  16
BRANCH  15  18
ATOM     18  CB  UNL     1       3.570   1.229   0.000  0.00  0.00    +0.000 C 
ATOM     19  O   UNL     1       4.395   1.229   0.000  0.00  0.00    +0.000 OA
ENDBRANCH  15  18
ENDBRANCH  14  15
ENDBRANCH  13  14
ENDBRANCH  12  13
ENDBRANCH   6  12
TORSDOF 6
