REMARK  Name = 
REMARK  6 active torsions:
REMARK  status: ('A' for Active; 'I' for Inactive)
REMARK    1  A    between atoms: C_4  and  C_7
REMARK    2  A    between atoms: C_4  and  O_21
REMARK    3  A    between atoms: C_6  and  O_23
REMARK    4  A    between atoms: C_8  and  N_12
REMARK    5  A    between atoms: O_21  and  P_24
REMARK    6  A    between atoms: O_23  and  P_25
REMARK                            x       y       z     vdW  Elec       q    Type
REMARK                         _______ _______ _______ _____ _____    ______ ____
ROOT
ATOM      1  C   UNL     1      -0.655   1.805   0.000  0.00  0.00    +0.000 C 
ATOM      2  C   UNL     1      -1.322   2.290   0.000  0.00  0.00    +0.000 C 
ATOM      3  C   UNL     1      -1.990   1.805   0.000  0.00  0.00    +0.000 C 
ATOM      4  C   UNL     1      -0.910   1.021   0.000  0.00  0.00    +0.000 C 
ATOM      5  O   UNL     1      -1.735   1.021   0.000  0.00  0.00    +0.000 OA
ENDROOT
BRANCH   4  12
ATOM      6  C   UNL     1      -0.611  -1.822   0.000  0.00  0.00    +0.000 C 
ATOM      7  C   UNL     1      -0.760  -0.401   0.000  0.00  0.00    +0.000 A 
ATOM      8  C   UNL     1      -0.275  -1.068   0.000  0.00  0.00    +0.000 A 
ATOM      9  C   UNL     1       0.545  -0.982   0.000  0.00  0.00    +0.000 A 
ATOM     10  C   UNL     1       0.396   0.439   0.000  0.00  0.00    +0.000 A 
ATOM     11  N   UNL     1       0.881  -0.228   0.000  0.00  0.00    +0.000 NA
ATOM     12  N   UNL     1      -0.425   0.353   0.000  0.00  0.00    +0.000 N 
ATOM     13  O   UNL     1       1.030  -1.649   0.000  0.00  0.00    +0.000 OA
ATOM     14  O   UNL     1       0.731   1.193   0.000  0.00  0.00    +0.000 OA
ENDBRANCH   4  12
BRANCH   3  15
ATOM     15  C   UNL     1      -2.774   2.060   0.000  0.00  0.00    +0.000 C 
BRANCH  15  16
ATOM     16  O   UNL     1      -2.946   2.867   0.000  0.00  0.00    +0.000 OA
BRANCH  16  20
ATOM     17  O   UNL     1      -4.515   3.377   0.000  0.00  0.00    +0.000 OA
ATOM     18  O   UNL     1      -3.475   3.907   0.000  0.00  0.00    +0.000 OA
ATOM     19  O   UNL     1      -3.985   2.337   0.000  0.00  0.00    +0.000 OA
ATOM     20  P   UNL     1      -3.730   3.122   0.000  0.00  0.00    +0.000 P 
ENDBRANCH  16  20
ENDBRANCH  15  16
ENDBRANCH   3  15
BRANCH   2  21
ATOM     21  O   UNL     1      -1.322   3.115   0.000  0.00  0.00    +0.000 OA
BRANCH  21  25
ATOM     22  O   UNL     1      -0.195   2.813   0.000  0.00  0.00    +0.000 OA
ATOM     23  O   UNL     1      -1.020   4.242   0.000  0.00  0.00    +0.000 OA
ATOM     24  O   UNL     1       0.107   3.940   0.000  0.00  0.00    +0.000 OA
ATOM     25  P   UNL     1      -0.608   3.528   0.000  0.00  0.00    +0.000 P 
ENDBRANCH  21  25
ENDBRANCH   2  21
TORSDOF 6
