REMARK  Name = 
REMARK  9 active torsions:
REMARK  status: ('A' for Active; 'I' for Inactive)
REMARK    1  A    between atoms: C_7  and  O_13
REMARK    2  A    between atoms: C_10  and  N_15
REMARK    3  A    between atoms: O_13  and  C_16
REMARK    4  A    between atoms: C_17  and  C_20
REMARK    5  A    between atoms: C_22  and  O_28
REMARK    6  A    between atoms: C_27  and  O_33
REMARK    7  A    between atoms: O_28  and  C_34
REMARK    8  A    between atoms: C_31  and  C_36
REMARK    9  A    between atoms: C_36  and  C_41
REMARK                            x       y       z     vdW  Elec       q    Type
REMARK                         _______ _______ _______ _____ _____    ______ ____
ROOT
ATOM      1  C   UNL     1      14.888  -8.312   0.000  0.00  0.00    +0.000 A 
ATOM      2  C   UNL     1      14.888  -9.144   0.000  0.00  0.00    +0.000 A 
ATOM      3  C   UNL     1      14.170  -7.900   0.000  0.00  0.00    +0.000 A 
ATOM      4  O   UNL     1      15.611  -7.888   0.000  0.00  0.00    +0.000 OA
ATOM      5  C   UNL     1      15.614  -9.560   0.000  0.00  0.00    +0.000 A 
ATOM      6  C   UNL     1      14.170  -9.563   0.000  0.00  0.00    +0.000 A 
ATOM      7  C   UNL     1      13.455  -8.312   0.000  0.00  0.00    +0.000 A 
ATOM      8  C   UNL     1      14.166  -7.079   0.000  0.00  0.00    +0.000 C 
ATOM      9  C   UNL     1      16.378  -8.304   0.000  0.00  0.00    +0.000 A 
ATOM     10  C   UNL     1      16.344  -9.148   0.000  0.00  0.00    +0.000 A 
ATOM     11  O   UNL     1      15.614 -10.384   0.000  0.00  0.00    +0.000 OA
ATOM     12  C   UNL     1      13.455  -9.144   0.000  0.00  0.00    +0.000 A 
ATOM     13  O   UNL     1      17.047  -7.892   0.000  0.00  0.00    +0.000 OA
ENDROOT
BRANCH  10  14
ATOM     14  N   UNL     1      17.304  -9.507   0.000  0.00  0.00    +0.000 NA
ATOM     15  C   UNL     1      18.019  -9.095   0.000  0.00  0.00    +0.000 C 
ATOM     16  O   UNL     1      18.019  -8.274   0.000  0.00  0.00    +0.000 OA
BRANCH  15  17
ATOM     17  C   UNL     1      18.730  -9.507   0.000  0.00  0.00    +0.000 A 
ATOM     18  C   UNL     1      18.733 -10.331   0.000  0.00  0.00    +0.000 A 
ATOM     19  C   UNL     1      19.437  -9.098   0.000  0.00  0.00    +0.000 A 
ATOM     20  C   UNL     1      19.441 -10.743   0.000  0.00  0.00    +0.000 A 
ATOM     21  C   UNL     1      20.151  -9.503   0.000  0.00  0.00    +0.000 A 
ATOM     22  C   UNL     1      20.155 -10.327   0.000  0.00  0.00    +0.000 A 
ATOM     23  O   UNL     1      20.866 -10.736   0.000  0.00  0.00    +0.000 OA
BRANCH  20  24
ATOM     24  C   UNL     1      19.441 -11.567   0.000  0.00  0.00    +0.000 C 
BRANCH  24  25
ATOM     25  C   UNL     1      20.155 -11.979   0.000  0.00  0.00    +0.000 C 
ATOM     26  C   UNL     1      20.155 -12.800   0.000  0.00  0.00    +0.000 C 
ATOM     27  C   UNL     1      20.866 -13.212   0.000  0.00  0.00    +0.000 C 
ATOM     28  C   UNL     1      19.441 -13.212   0.000  0.00  0.00    +0.000 C 
ENDBRANCH  24  25
ENDBRANCH  20  24
ENDBRANCH  15  17
ENDBRANCH  10  14
BRANCH   7  29
ATOM     29  O   UNL     1      12.745  -7.904   0.000  0.00  0.00    +0.000 OA
BRANCH  29  30
ATOM     30  C   UNL     1      12.034  -8.316   0.000  0.00  0.00    +0.000 C 
ATOM     31  C   UNL     1      12.034  -9.148   0.000  0.00  0.00    +0.000 C 
ATOM     32  O   UNL     1      11.312  -7.904   0.000  0.00  0.00    +0.000 OA
ATOM     33  C   UNL     1      11.312  -9.567   0.000  0.00  0.00    +0.000 C 
ATOM     34  O   UNL     1      12.748  -9.556   0.000  0.00  0.00    +0.000 OA
ATOM     35  C   UNL     1      10.601  -8.316   0.000  0.00  0.00    +0.000 C 
ATOM     36  C   UNL     1      10.601  -9.148   0.000  0.00  0.00    +0.000 C 
ATOM     37  C   UNL     1      10.109  -7.461   0.000  0.00  0.00    +0.000 C 
ATOM     38  C   UNL     1       9.750  -8.482   0.000  0.00  0.00    +0.000 C 
BRANCH  36  39
ATOM     39  O   UNL     1       9.886  -9.556   0.000  0.00  0.00    +0.000 OA
ATOM     40  C   UNL     1       9.047  -9.560   0.000  0.00  0.00    +0.000 C 
ENDBRANCH  36  39
BRANCH  33  41
ATOM     41  O   UNL     1      11.312 -10.391   0.000  0.00  0.00    +0.000 OA
BRANCH  41  42
ATOM     42  C   UNL     1      10.597 -10.800   0.000  0.00  0.00    +0.000 C 
ATOM     43  N   UNL     1      10.593 -11.620   0.000  0.00  0.00    +0.000 NA
ATOM     44  O   UNL     1       9.886 -10.388   0.000  0.00  0.00    +0.000 OA
ENDBRANCH  41  42
ENDBRANCH  33  41
ENDBRANCH  29  30
ENDBRANCH   7  29
TORSDOF 9
