REMARK  Name = 
REMARK  2 active torsions:
REMARK  status: ('A' for Active; 'I' for Inactive)
REMARK    1  A    between atoms: C_6  and  C_9
REMARK    2  A    between atoms: C_9  and  C_24
REMARK                            x       y       z     vdW  Elec       q    Type
REMARK                         _______ _______ _______ _____ _____    ______ ____
ROOT
ATOM      1  C   UNL     1       0.715  -1.238   0.000  0.00  0.00    +0.000 C 
ATOM      2  O   UNL     1       0.715  -0.412   0.000  0.00  0.00    +0.000 OA
ATOM      3  C   UNL     1       1.429   0.000   0.000  0.00  0.00    +0.000 C 
ATOM      4  O   UNL     1       1.429   0.825   0.000  0.00  0.00    +0.000 OA
ATOM      5  C   UNL     1       2.143  -0.412   0.000  0.00  0.00    +0.000 A 
ATOM      6  C   UNL     1       2.143  -1.238   0.000  0.00  0.00    +0.000 A 
ATOM      7  C   UNL     1       2.858  -1.650   0.000  0.00  0.00    +0.000 A 
ATOM      8  C   UNL     1       2.858  -2.475   0.000  0.00  0.00    +0.000 A 
ATOM      9  C   UNL     1       2.143  -2.888   0.000  0.00  0.00    +0.000 A 
ATOM     10  C   UNL     1       1.429  -2.475   0.000  0.00  0.00    +0.000 A 
ATOM     11  C   UNL     1       1.429  -1.650   0.000  0.00  0.00    +0.000 A 
ATOM     12  C   UNL     1       3.572  -1.238   0.000  0.00  0.00    +0.000 A 
ATOM     13 CL   UNL     1       4.287  -1.650   0.000  0.00  0.00    +0.000 Cl
ATOM     14  C   UNL     1       3.572  -0.412   0.000  0.00  0.00    +0.000 A 
ATOM     15  C   UNL     1       2.858   0.000   0.000  0.00  0.00    +0.000 A 
ENDROOT
BRANCH   1  21
ATOM     16  O   UNL     1      -0.414  -4.338   0.000  0.00  0.00    +0.000 OA
ATOM     17  C   UNL     1      -0.132  -3.563   0.000  0.00  0.00    +0.000 A 
ATOM     18  C   UNL     1      -0.662  -2.931   0.000  0.00  0.00    +0.000 A 
ATOM     19 BR   UNL     1      -1.475  -3.075   0.000  0.00  0.00    +0.000 Br
ATOM     20  C   UNL     1      -0.380  -2.156   0.000  0.00  0.00    +0.000 A 
ATOM     21  C   UNL     1       0.432  -2.013   0.000  0.00  0.00    +0.000 A 
ATOM     22  C   UNL     1       0.963  -2.645   0.000  0.00  0.00    +0.000 A 
ATOM     23  C   UNL     1       0.680  -3.420   0.000  0.00  0.00    +0.000 A 
ENDBRANCH   1  21
BRANCH   1  24
ATOM     24  C   UNL     1      -0.098  -1.094   0.000  0.00  0.00    +0.000 A 
ATOM     25  C   UNL     1      -0.628  -1.726   0.000  0.00  0.00    +0.000 A 
ATOM     26  C   UNL     1      -1.441  -1.583   0.000  0.00  0.00    +0.000 A 
ATOM     27 BR   UNL     1      -1.971  -2.215   0.000  0.00  0.00    +0.000 Br
ATOM     28  C   UNL     1      -1.723  -0.808   0.000  0.00  0.00    +0.000 A 
ATOM     29  O   UNL     1      -2.535  -0.664   0.000  0.00  0.00    +0.000 OA
ATOM     30  C   UNL     1      -1.193  -0.176   0.000  0.00  0.00    +0.000 A 
ATOM     31  C   UNL     1      -0.380  -0.319   0.000  0.00  0.00    +0.000 A 
ENDBRANCH   1  24
TORSDOF 2
