REMARK  Name = 
REMARK  5 active torsions:
REMARK  status: ('A' for Active; 'I' for Inactive)
REMARK    1  A    between atoms: C_5  and  C_6
REMARK    2  A    between atoms: C_5  and  N_16
REMARK    3  A    between atoms: C_7  and  C_9
REMARK    4  A    between atoms: C_7  and  C_11
REMARK    5  A    between atoms: C_8  and  C_12
REMARK                            x       y       z     vdW  Elec       q    Type
REMARK                         _______ _______ _______ _____ _____    ______ ____
ROOT
ATOM      1  C   UNL     1      -0.715   3.466   0.000  0.00  0.00    +0.000 C 
ATOM      2  C   UNL     1      -0.302   2.196   0.000  0.00  0.00    +0.000 C 
ATOM      3  C   UNL     1      -1.382   2.981   0.000  0.00  0.00    +0.000 C 
ATOM      4  N   UNL     1      -0.047   2.981   0.000  0.00  0.00    +0.000 NA
ATOM      5  N   UNL     1      -1.127   2.196   0.000  0.00  0.00    +0.000 N 
ATOM      6  O   UNL     1      -2.167   3.236   0.000  0.00  0.00    +0.000 OA
ENDROOT
BRANCH   2   7
ATOM      7  C   UNL     1       0.183   1.529   0.000  0.00  0.00    +0.000 C 
ATOM      8  N   UNL     1      -0.153   0.775   0.000  0.00  0.00    +0.000 NA
ENDBRANCH   2   7
BRANCH   5   9
ATOM      9  C   UNL     1      -1.612   1.529   0.000  0.00  0.00    +0.000 C 
BRANCH   9  10
ATOM     10  C   UNL     1      -1.276   0.775   0.000  0.00  0.00    +0.000 C 
ATOM     11  O   UNL     1      -1.761   0.108   0.000  0.00  0.00    +0.000 OA
ENDBRANCH   9  10
ENDBRANCH   5   9
BRANCH   1  12
ATOM     12  C   UNL     1      -0.715   4.291   0.000  0.00  0.00    +0.000 C 
BRANCH  12  17
ATOM     13  C   UNL     1      -1.429   5.529   0.000  0.00  0.00    +0.000 C 
ATOM     14  C   UNL     1      -2.143   4.291   0.000  0.00  0.00    +0.000 C 
ATOM     15  C   UNL     1      -2.143   5.941   0.000  0.00  0.00    +0.000 C 
ATOM     16  C   UNL     1      -2.858   4.704   0.000  0.00  0.00    +0.000 C 
ATOM     17  C   UNL     1      -1.429   4.704   0.000  0.00  0.00    +0.000 C 
ATOM     18  C   UNL     1      -2.858   5.529   0.000  0.00  0.00    +0.000 C 
ATOM     19  O   UNL     1      -3.572   5.941   0.000  0.00  0.00    +0.000 OA
ENDBRANCH  12  17
ENDBRANCH   1  12
TORSDOF 5
