REMARK  Name = 
REMARK  8 active torsions:
REMARK  status: ('A' for Active; 'I' for Inactive)
REMARK    1  A    between atoms: C_3  and  O_12
REMARK    2  A    between atoms: C_4  and  O_13
REMARK    3  A    between atoms: C_5  and  C_6
REMARK    4  A    between atoms: C_5  and  O_14
REMARK    5  A    between atoms: C_6  and  C_7
REMARK    6  A    between atoms: O_12  and  P_15
REMARK    7  A    between atoms: O_13  and  P_15
REMARK    8  A    between atoms: O_14  and  P_15
REMARK                            x       y       z     vdW  Elec       q    Type
REMARK                         _______ _______ _______ _____ _____    ______ ____
ROOT
ATOM      1  O   UNK     1       2.254   0.825   0.000  0.00  0.00    +0.000 OA
ATOM      2  P   UNK     1       1.540   0.412   0.000  0.00  0.00    +0.000 P 
ENDROOT
BRANCH   2   3
ATOM      3  O   UNK     1       1.952  -0.302   0.000  0.00  0.00    +0.000 OA
BRANCH   3   5
ATOM      4  C   UNK     1       1.952  -1.731   0.000  0.00  0.00    +0.000 C 
ATOM      5  C   UNK     1       1.540  -1.016   0.000  0.00  0.00    +0.000 C 
ENDBRANCH   3   5
ENDBRANCH   2   3
BRANCH   2   6
ATOM      6  O   UNK     1       0.825   0.000   0.000  0.00  0.00    +0.000 OA
BRANCH   6   8
ATOM      7  C   UNK     1      -0.604   0.000   0.000  0.00  0.00    +0.000 C 
ATOM      8  C   UNK     1       0.111   0.412   0.000  0.00  0.00    +0.000 C 
ENDBRANCH   6   8
ENDBRANCH   2   6
BRANCH   2   9
ATOM      9  O   UNK     1       1.127   1.127   0.000  0.00  0.00    +0.000 OA
BRANCH   9  10
ATOM     10  C   UNK     1       1.540   1.841   0.000  0.00  0.00    +0.000 C 
BRANCH  10  11
ATOM     11  C   UNK     1       1.127   2.556   0.000  0.00  0.00    +0.000 C 
ATOM     12  N   UNK     1       0.302   2.556   0.000  0.00  0.00    +0.000 NA
BRANCH  11  13
ATOM     13  C   UNK     1       1.540   3.270   0.000  0.00  0.00    +0.000 C 
ATOM     14  O   UNK     1       1.127   3.985   0.000  0.00  0.00    +0.000 OA
ATOM     15  O   UNK     1       2.365   3.270   0.000  0.00  0.00    +0.000 OA
ENDBRANCH  11  13
ENDBRANCH  10  11
ENDBRANCH   9  10
ENDBRANCH   2   9
TORSDOF 8
