REMARK  Name = 
REMARK  6 active torsions:
REMARK  status: ('A' for Active; 'I' for Inactive)
REMARK    1  A    between atoms: C_6  and  C_18
REMARK    2  A    between atoms: N_7  and  C_12
REMARK    3  A    between atoms: C_21  and  O_22
REMARK    4  A    between atoms: O_22  and  C_23
REMARK    5  A    between atoms: C_23  and  C_24
REMARK    6  A    between atoms: C_24  and  N_25
REMARK                            x       y       z     vdW  Elec       q    Type
REMARK                         _______ _______ _______ _____ _____    ______ ____
ROOT
ATOM      1  O   UNL     1       0.000  -1.650   0.000  0.00  0.00    +0.000 OA
ATOM      2  C   UNL     1       0.715  -1.238   0.000  0.00  0.00    +0.000 A 
ATOM      3  C   UNL     1       0.715  -0.412   0.000  0.00  0.00    +0.000 A 
ATOM      4  C   UNL     1       1.429   0.000   0.000  0.00  0.00    +0.000 A 
ATOM      5  C   UNL     1       2.143  -0.412   0.000  0.00  0.00    +0.000 A 
ATOM      6  C   UNL     1       2.858   0.000   0.000  0.00  0.00    +0.000 C 
ATOM      7  N   UNL     1       3.572  -0.412   0.000  0.00  0.00    +0.000 N 
ATOM      8  C   UNL     1       3.572  -1.238   0.000  0.00  0.00    +0.000 C 
ATOM      9  C   UNL     1       2.858  -1.650   0.000  0.00  0.00    +0.000 C 
ATOM     10  C   UNL     1       2.143  -1.238   0.000  0.00  0.00    +0.000 A 
ATOM     11  C   UNL     1       1.429  -1.650   0.000  0.00  0.00    +0.000 A 
ENDROOT
BRANCH   7  12
ATOM     12  C   UNL     1       4.287   0.000   0.000  0.00  0.00    +0.000 A 
ATOM     13  C   UNL     1       4.287   0.825   0.000  0.00  0.00    +0.000 A 
ATOM     14  C   UNL     1       5.001   1.238   0.000  0.00  0.00    +0.000 A 
ATOM     15  C   UNL     1       5.716   0.825   0.000  0.00  0.00    +0.000 A 
ATOM     16  C   UNL     1       5.716   0.000   0.000  0.00  0.00    +0.000 A 
ATOM     17  C   UNL     1       5.001  -0.412   0.000  0.00  0.00    +0.000 A 
ENDBRANCH   7  12
BRANCH   6  18
ATOM     18  C   UNL     1       2.858   0.825   0.000  0.00  0.00    +0.000 A 
ATOM     19  C   UNL     1       2.143   1.238   0.000  0.00  0.00    +0.000 A 
ATOM     20  C   UNL     1       2.143   2.062   0.000  0.00  0.00    +0.000 A 
ATOM     21  C   UNL     1       2.858   2.475   0.000  0.00  0.00    +0.000 A 
ATOM     22  C   UNL     1       3.572   2.062   0.000  0.00  0.00    +0.000 A 
ATOM     23  C   UNL     1       3.572   1.238   0.000  0.00  0.00    +0.000 A 
BRANCH  21  24
ATOM     24  O   UNL     1       2.858   3.300   0.000  0.00  0.00    +0.000 OA
BRANCH  24  25
ATOM     25  C   UNL     1       3.572   3.712   0.000  0.00  0.00    +0.000 C 
BRANCH  25  26
ATOM     26  C   UNL     1       3.572   4.537   0.000  0.00  0.00    +0.000 C 
BRANCH  26  27
ATOM     27  N   UNL     1       4.287   4.950   0.000  0.00  0.00    +0.000 NA
ATOM     28  C   UNL     1       4.287   5.775   0.000  0.00  0.00    +0.000 C 
ATOM     29  C   UNL     1       5.001   6.188   0.000  0.00  0.00    +0.000 C 
ATOM     30  C   UNL     1       5.716   5.775   0.000  0.00  0.00    +0.000 C 
ATOM     31  C   UNL     1       5.716   4.950   0.000  0.00  0.00    +0.000 C 
ATOM     32  C   UNL     1       5.001   4.537   0.000  0.00  0.00    +0.000 C 
ENDBRANCH  26  27
ENDBRANCH  25  26
ENDBRANCH  24  25
ENDBRANCH  21  24
ENDBRANCH   6  18
TORSDOF 6
