REMARK  Name = 
REMARK  10 active torsions:
REMARK  status: ('A' for Active; 'I' for Inactive)
REMARK    1  A    between atoms: C_2  and  C_4
REMARK    2  A    between atoms: C_4  and  C_5
REMARK    3  A    between atoms: C_5  and  N_6
REMARK    4  A    between atoms: N_6  and  C_7
REMARK    5  A    between atoms: N_6  and  S_33
REMARK    6  A    between atoms: C_7  and  C_8
REMARK    7  A    between atoms: C_8  and  C_10
REMARK    8  A    between atoms: C_23  and  C_24
REMARK    9  A    between atoms: C_24  and  C_25
REMARK   10  A    between atoms: S_33  and  C_36
REMARK                            x       y       z     vdW  Elec       q    Type
REMARK                         _______ _______ _______ _____ _____    ______ ____
ROOT
ATOM      1  C   UNL     1       0.966  -2.781   0.000  0.00  0.00    +0.000 C 
ATOM      2  C   UNL     1       1.135  -1.949   0.000  0.00  0.00    +0.000 C 
ATOM      3  C   UNL     1       1.778  -1.373   0.000  0.00  0.00    +0.000 A 
ATOM      4  C   UNL     1       2.189  -0.630   0.000  0.00  0.00    +0.000 A 
ATOM      5  C   UNL     1       3.033  -0.593   0.000  0.00  0.00    +0.000 A 
ATOM      6  C   UNL     1       3.485  -1.303   0.000  0.00  0.00    +0.000 A 
ATOM      7  O   UNL     1       4.237  -1.711   0.000  0.00  0.00    +0.000 OA
ATOM      8  C   UNL     1       4.783  -2.361   0.000  0.00  0.00    +0.000 C 
ATOM      9  C   UNL     1       4.905  -3.201   0.000  0.00  0.00    +0.000 C 
ATOM     10  C   UNL     1       4.601  -3.992   0.000  0.00  0.00    +0.000 C 
ATOM     11  C   UNL     1       3.985  -4.573   0.000  0.00  0.00    +0.000 C 
ATOM     12  O   UNL     1       4.407  -5.282   0.000  0.00  0.00    +0.000 OA
ATOM     13  N   UNL     1       3.182  -4.837   0.000  0.00  0.00    +0.000 NA
ATOM     14  C   UNL     1       2.336  -4.736   0.000  0.00  0.00    +0.000 C 
ATOM     15  C   UNL     1       1.616  -4.305   0.000  0.00  0.00    +0.000 C 
ATOM     16  O   UNL     1       1.053  -4.908   0.000  0.00  0.00    +0.000 OA
ATOM     17  N   UNL     1       1.135  -3.616   0.000  0.00  0.00    +0.000 NA
ATOM     18  C   UNL     1       3.079  -2.034   0.000  0.00  0.00    +0.000 A 
ATOM     19  C   UNL     1       2.255  -2.056   0.000  0.00  0.00    +0.000 A 
ENDROOT
BRANCH   1  20
ATOM     20  C   UNL     1       0.141  -2.781   0.000  0.00  0.00    +0.000 C 
ATOM     21  O   UNL     1      -0.272  -3.496   0.000  0.00  0.00    +0.000 OA
BRANCH  20  22
ATOM     22  C   UNL     1      -0.272  -2.067   0.000  0.00  0.00    +0.000 C 
BRANCH  22  23
ATOM     23  N   UNL     1      -1.097  -2.067   0.000  0.00  0.00    +0.000 NA
BRANCH  23  24
ATOM     24  S   UNL     1      -1.510  -1.353   0.000  0.00  0.00    +0.000 S 
ATOM     25  O   UNL     1      -0.795  -0.940   0.000  0.00  0.00    +0.000 OA
ATOM     26  O   UNL     1      -2.224  -1.765   0.000  0.00  0.00    +0.000 OA
BRANCH  24  27
ATOM     27  C   UNL     1      -1.922  -0.638   0.000  0.00  0.00    +0.000 A 
ATOM     28  C   UNL     1      -2.747  -0.638   0.000  0.00  0.00    +0.000 A 
ATOM     29  C   UNL     1      -3.159   0.076   0.000  0.00  0.00    +0.000 A 
ATOM     30  C   UNL     1      -2.747   0.791   0.000  0.00  0.00    +0.000 A 
ATOM     31  C   UNL     1      -1.922   0.791   0.000  0.00  0.00    +0.000 A 
ATOM     32  C   UNL     1      -1.510   0.076   0.000  0.00  0.00    +0.000 A 
ENDBRANCH  24  27
ENDBRANCH  23  24
BRANCH  23  33
ATOM     33  C   UNL     1      -1.510  -2.781   0.000  0.00  0.00    +0.000 C 
BRANCH  33  34
ATOM     34  C   UNL     1      -2.334  -2.781   0.000  0.00  0.00    +0.000 C 
BRANCH  34  36
ATOM     35  C   UNL     1      -2.334  -4.210   0.000  0.00  0.00    +0.000 C 
ATOM     36  C   UNL     1      -2.747  -3.496   0.000  0.00  0.00    +0.000 C 
ATOM     37  C   UNL     1      -3.572  -3.496   0.000  0.00  0.00    +0.000 C 
ENDBRANCH  34  36
ENDBRANCH  33  34
ENDBRANCH  23  33
ENDBRANCH  22  23
ENDBRANCH  20  22
ENDBRANCH   1  20
BRANCH  14  38
ATOM     38  C   UNL     1       2.070  -5.517   0.000  0.00  0.00    +0.000 C 
BRANCH  38  39
ATOM     39  C   UNL     1       2.613  -6.138   0.000  0.00  0.00    +0.000 C 
ATOM     40  N   UNL     1       3.422  -5.979   0.000  0.00  0.00    +0.000 NA
ATOM     41  O   UNL     1       2.346  -6.919   0.000  0.00  0.00    +0.000 OA
ENDBRANCH  38  39
ENDBRANCH  14  38
TORSDOF 10
