REMARK  Name = 
REMARK  3 active torsions:
REMARK  status: ('A' for Active; 'I' for Inactive)
REMARK    1  A    between atoms: C_6  and  S_7
REMARK    2  A    between atoms: S_7  and  C_8
REMARK    3  A    between atoms: C_16  and  O_17
REMARK                            x       y       z     vdW  Elec       q    Type
REMARK                         _______ _______ _______ _____ _____    ______ ____
ROOT
ATOM      1  C   UNL     1      -0.324  -0.769   0.000  0.00  0.00    +0.000 A 
ATOM      2  C   UNL     1       0.485  -1.012   0.000  0.00  0.00    +0.000 A 
ATOM      3  C   UNL     1       1.052  -0.526   0.000  0.00  0.00    +0.000 A 
ATOM      4  C   UNL     1       0.890   0.283   0.000  0.00  0.00    +0.000 A 
ATOM      5  C   UNL     1       0.081   0.526   0.000  0.00  0.00    +0.000 A 
ATOM      6  N   UNL     1       0.081   1.335   0.000  0.00  0.00    +0.000 NA
ATOM      7  C   UNL     1       0.890   1.578   0.000  0.00  0.00    +0.000 A 
ATOM      8  N   UNL     1       1.133   2.388   0.000  0.00  0.00    +0.000 NA
ATOM      9  C   UNL     1       0.567   2.954   0.000  0.00  0.00    +0.000 C 
ATOM     10  C   UNL     1      -0.485  -0.041   0.000  0.00  0.00    +0.000 A 
ATOM     11  O   UNL     1       0.890   3.764   0.000  0.00  0.00    +0.000 OA
ATOM     12  N   UNL     1       1.376   0.930   0.000  0.00  0.00    +0.000 NA
ENDROOT
BRANCH   9  13
ATOM     13  O   UNL     1      -0.242   2.792   0.000  0.00  0.00    +0.000 OA
ATOM     14  C   UNL     1      -0.728   3.440   0.000  0.00  0.00    +0.000 C 
ENDBRANCH   9  13
BRANCH   1  15
ATOM     15  S   UNL     1      -0.971  -1.335   0.000  0.00  0.00    +0.000 S 
BRANCH  15  21
ATOM     16  C   UNL     1       0.000  -2.388   0.000  0.00  0.00    +0.000 A 
ATOM     17  C   UNL     1       0.162  -3.197   0.000  0.00  0.00    +0.000 A 
ATOM     18  C   UNL     1      -0.404  -3.764   0.000  0.00  0.00    +0.000 A 
ATOM     19  C   UNL     1      -1.214  -3.521   0.000  0.00  0.00    +0.000 A 
ATOM     20  C   UNL     1      -1.376  -2.712   0.000  0.00  0.00    +0.000 A 
ATOM     21  C   UNL     1      -0.809  -2.144   0.000  0.00  0.00    +0.000 A 
ENDBRANCH  15  21
ENDBRANCH   1  15
TORSDOF 3
