REMARK  Name = 
REMARK  6 active torsions:
REMARK  status: ('A' for Active; 'I' for Inactive)
REMARK    1  A    between atoms: C_2  and  C_3
REMARK    2  A    between atoms: C_3  and  C_4
REMARK    3  A    between atoms: C_4  and  C_6
REMARK    4  A    between atoms: C_6  and  C_8
REMARK    5  A    between atoms: C_8  and  C_10
REMARK    6  A    between atoms: C_11  and  P_12
REMARK                            x       y       z     vdW  Elec       q    Type
REMARK                         _______ _______ _______ _____ _____    ______ ____
ROOT
ATOM      1  C   UNL     1       5.333   1.429   0.000  0.00  0.00    +0.000 C 
ATOM      2  O   UNL     1       5.333   0.604   0.000  0.00  0.00    +0.000 OA
ENDROOT
BRANCH   1   3
ATOM      3  C   UNL     1       6.047   1.841   0.000  0.00  0.00    +0.000 C 
ATOM      4  C   UNL     1       6.762   1.429   0.000  0.00  0.00    +0.000 C 
BRANCH   4   5
ATOM      5  P   UNL     1       7.476   1.841   0.000  0.00  0.00    +0.000 P 
ATOM      6  O   UNL     1       8.191   2.254   0.000  0.00  0.00    +0.000 OA
ATOM      7  O   UNL     1       7.889   1.127   0.000  0.00  0.00    +0.000 OA
ATOM      8  O   UNL     1       7.064   2.556   0.000  0.00  0.00    +0.000 OA
ENDBRANCH   4   5
ENDBRANCH   1   3
BRANCH   1   9
ATOM      9  C   UNL     1       4.618   1.841   0.000  0.00  0.00    +0.000 C 
ATOM     10  O   UNL     1       4.618   2.666   0.000  0.00  0.00    +0.000 OA
BRANCH   9  11
ATOM     11  C   UNL     1       3.904   1.429   0.000  0.00  0.00    +0.000 C 
ATOM     12  O   UNL     1       3.904   0.604   0.000  0.00  0.00    +0.000 OA
BRANCH  11  13
ATOM     13  C   UNL     1       3.189   1.841   0.000  0.00  0.00    +0.000 C 
BRANCH  13  15
ATOM     14  O   UNL     1       1.760   1.841   0.000  0.00  0.00    +0.000 OA
ATOM     15  C   UNL     1       2.475   1.429   0.000  0.00  0.00    +0.000 C 
ENDBRANCH  13  15
ENDBRANCH  11  13
ENDBRANCH   9  11
ENDBRANCH   1   9
TORSDOF 6
