REMARK  Name = 
REMARK  21 active torsions:
REMARK  status: ('A' for Active; 'I' for Inactive)
REMARK    1  A    between atoms: C_5  and  C_6
REMARK    2  A    between atoms: C_6  and  C_10
REMARK    3  A    between atoms: C_10  and  C_15
REMARK    4  A    between atoms: C_15  and  N_32
REMARK    5  A    between atoms: C_17  and  C_20
REMARK    6  A    between atoms: C_17  and  C_24
REMARK    7  A    between atoms: C_18  and  C_21
REMARK    8  A    between atoms: C_18  and  C_23
REMARK    9  A    between atoms: C_19  and  C_26
REMARK   10  A    between atoms: C_19  and  O_42
REMARK   11  A    between atoms: C_22  and  C_29
REMARK   12  A    between atoms: C_23  and  C_27
REMARK   13  A    between atoms: C_23  and  N_33
REMARK   14  A    between atoms: C_24  and  C_28
REMARK   15  A    between atoms: C_24  and  N_34
REMARK   16  A    between atoms: C_25  and  O_42
REMARK   17  A    between atoms: C_27  and  N_32
REMARK   18  A    between atoms: C_28  and  N_33
REMARK   19  A    between atoms: C_30  and  N_34
REMARK   20  A    between atoms: C_30  and  O_43
REMARK   21  A    between atoms: C_31  and  O_43
REMARK                            x       y       z     vdW  Elec       q    Type
REMARK                         _______ _______ _______ _____ _____    ______ ____
ROOT
ATOM      1  C   UNL     1       4.670   8.581   0.000  0.00  0.00    +0.000 C 
ENDROOT
BRANCH   1   2
ATOM      2  C   UNL     1       3.859   8.425   0.000  0.00  0.00    +0.000 C 
ATOM      3  O   UNL     1       3.319   9.049   0.000  0.00  0.00    +0.000 OA
BRANCH   2   4
ATOM      4  N   UNL     1       3.589   7.646   0.000  0.00  0.00    +0.000 NA
BRANCH   4   5
ATOM      5  C   UNL     1       2.779   7.490   0.000  0.00  0.00    +0.000 C 
BRANCH   5   6
ATOM      6  C   UNL     1       2.509   6.710   0.000  0.00  0.00    +0.000 C 
BRANCH   6   7
ATOM      7  C   UNL     1       1.699   6.555   0.000  0.00  0.00    +0.000 C 
BRANCH   7   9
ATOM      8  C   UNL     1       1.969   5.151   0.000  0.00  0.00    +0.000 C 
ATOM      9  C   UNL     1       1.429   5.775   0.000  0.00  0.00    +0.000 C 
ENDBRANCH   7   9
ENDBRANCH   6   7
ENDBRANCH   5   6
ENDBRANCH   4   5
ENDBRANCH   2   4
ENDBRANCH   1   2
BRANCH   1  10
ATOM     10  C   UNL     1       4.939   9.361   0.000  0.00  0.00    +0.000 C 
BRANCH  10  14
ATOM     11  C   UNL     1       4.670  10.764   0.000  0.00  0.00    +0.000 A 
ATOM     12  C   UNL     1       4.129  11.388   0.000  0.00  0.00    +0.000 A 
ATOM     13  C   UNL     1       3.589   9.829   0.000  0.00  0.00    +0.000 A 
ATOM     14  C   UNL     1       4.399   9.985   0.000  0.00  0.00    +0.000 A 
ATOM     15  C   UNL     1       3.049  10.452   0.000  0.00  0.00    +0.000 A 
ATOM     16  C   UNL     1       3.319  11.232   0.000  0.00  0.00    +0.000 A 
BRANCH  15  17
ATOM     17  C   UNL     1       2.239  10.296   0.000  0.00  0.00    +0.000 C 
ATOM     18  O   UNL     1       1.699  10.920   0.000  0.00  0.00    +0.000 OA
ATOM     19  O   UNL     1       1.969   9.517   0.000  0.00  0.00    +0.000 OA
ENDBRANCH  15  17
BRANCH  16  20
ATOM     20  O   UNL     1       2.779  11.855   0.000  0.00  0.00    +0.000 OA
BRANCH  20  21
ATOM     21  C   UNL     1       1.969  11.700   0.000  0.00  0.00    +0.000 C 
BRANCH  21  22
ATOM     22  C   UNL     1       1.429  12.323   0.000  0.00  0.00    +0.000 C 
ATOM     23  O   UNL     1       0.619  12.167   0.000  0.00  0.00    +0.000 OA
ATOM     24  O   UNL     1       1.699  13.103   0.000  0.00  0.00    +0.000 OA
ENDBRANCH  21  22
ENDBRANCH  20  21
ENDBRANCH  16  20
ENDBRANCH  10  14
ENDBRANCH   1  10
BRANCH   1  25
ATOM     25  N   UNL     1       5.210   7.958   0.000  0.00  0.00    +0.000 NA
BRANCH  25  26
ATOM     26  C   UNL     1       4.939   7.178   0.000  0.00  0.00    +0.000 C 
ATOM     27  O   UNL     1       4.129   7.022   0.000  0.00  0.00    +0.000 OA
BRANCH  26  28
ATOM     28  C   UNL     1       5.480   6.555   0.000  0.00  0.00    +0.000 C 
BRANCH  28  29
ATOM     29  C   UNL     1       6.290   6.710   0.000  0.00  0.00    +0.000 C 
BRANCH  29  35
ATOM     30  C   UNL     1       7.100   9.049   0.000  0.00  0.00    +0.000 A 
ATOM     31  C   UNL     1       6.290   8.893   0.000  0.00  0.00    +0.000 A 
ATOM     32  C   UNL     1       7.640   8.425   0.000  0.00  0.00    +0.000 A 
ATOM     33  C   UNL     1       6.020   8.114   0.000  0.00  0.00    +0.000 A 
ATOM     34  C   UNL     1       7.370   7.646   0.000  0.00  0.00    +0.000 A 
ATOM     35  C   UNL     1       6.560   7.490   0.000  0.00  0.00    +0.000 A 
ENDBRANCH  29  35
ENDBRANCH  28  29
BRANCH  28  36
ATOM     36  N   UNL     1       5.210   5.775   0.000  0.00  0.00    +0.000 NA
BRANCH  36  37
ATOM     37  C   UNL     1       5.750   5.151   0.000  0.00  0.00    +0.000 C 
ATOM     38  O   UNL     1       6.560   5.307   0.000  0.00  0.00    +0.000 OA
BRANCH  37  39
ATOM     39  O   UNL     1       5.480   4.372   0.000  0.00  0.00    +0.000 OA
BRANCH  39  43
ATOM     40  C   UNL     1       6.560   3.124   0.000  0.00  0.00    +0.000 C 
ATOM     41  C   UNL     1       6.643   4.288   0.000  0.00  0.00    +0.000 C 
ATOM     42  C   UNL     1       5.396   3.208   0.000  0.00  0.00    +0.000 C 
ATOM     43  C   UNL     1       6.020   3.748   0.000  0.00  0.00    +0.000 C 
ENDBRANCH  39  43
ENDBRANCH  37  39
ENDBRANCH  36  37
ENDBRANCH  28  36
ENDBRANCH  26  28
ENDBRANCH  25  26
ENDBRANCH   1  25
TORSDOF 21
