REMARK  Name = 
REMARK  9 active torsions:
REMARK  status: ('A' for Active; 'I' for Inactive)
REMARK    1  A    between atoms: C_4  and  C_7
REMARK    2  A    between atoms: C_7  and  C_8
REMARK    3  A    between atoms: C_7  and  C_15
REMARK    4  A    between atoms: C_7  and  O_16
REMARK    5  A    between atoms: C_8  and  C_9
REMARK    6  A    between atoms: C_15  and  C_20
REMARK    7  A    between atoms: O_16  and  C_17
REMARK    8  A    between atoms: C_17  and  C_18
REMARK    9  A    between atoms: C_20  and  N_21
REMARK                            x       y       z     vdW  Elec       q    Type
REMARK                         _______ _______ _______ _____ _____    ______ ____
ROOT
ATOM      1  C   UNL     1      -1.621   0.619   0.000  0.00  0.00    +0.000 C 
ENDROOT
BRANCH   1   5
ATOM      2  C   UNL     1      -1.621   3.094   0.000  0.00  0.00    +0.000 A 
ATOM      3  C   UNL     1      -2.335   2.681   0.000  0.00  0.00    +0.000 A 
ATOM      4  C   UNL     1      -2.335   1.856   0.000  0.00  0.00    +0.000 A 
ATOM      5  C   UNL     1      -1.621   1.444   0.000  0.00  0.00    +0.000 A 
ATOM      6  C   UNL     1      -0.906   1.856   0.000  0.00  0.00    +0.000 A 
ATOM      7  C   UNL     1      -0.906   2.681   0.000  0.00  0.00    +0.000 A 
ENDBRANCH   1   5
BRANCH   1   8
ATOM      8  C   UNL     1      -1.621  -0.206   0.000  0.00  0.00    +0.000 C 
ATOM      9  C   UNL     1      -2.335  -0.619   0.000  0.00  0.00    +0.000 C 
BRANCH   8  10
ATOM     10  C   UNL     1      -0.906  -0.619   0.000  0.00  0.00    +0.000 C 
BRANCH  10  11
ATOM     11  N   UNL     1      -0.906  -1.444   0.000  0.00  0.00    +0.000 NA
ATOM     12  C   UNL     1      -1.621  -1.856   0.000  0.00  0.00    +0.000 C 
ATOM     13  C   UNL     1      -0.192  -1.856   0.000  0.00  0.00    +0.000 C 
ENDBRANCH  10  11
ENDBRANCH   8  10
ENDBRANCH   1   8
BRANCH   1  14
ATOM     14  C   UNL     1      -2.335   0.206   0.000  0.00  0.00    +0.000 C 
BRANCH  14  15
ATOM     15  C   UNL     1      -3.050   0.619   0.000  0.00  0.00    +0.000 A 
ATOM     16  C   UNL     1      -3.764   1.856   0.000  0.00  0.00    +0.000 A 
ATOM     17  C   UNL     1      -4.478   1.444   0.000  0.00  0.00    +0.000 A 
ATOM     18  C   UNL     1      -4.478   0.619   0.000  0.00  0.00    +0.000 A 
ATOM     19  C   UNL     1      -3.764   0.206   0.000  0.00  0.00    +0.000 A 
ATOM     20  C   UNL     1      -3.050   1.444   0.000  0.00  0.00    +0.000 A 
ENDBRANCH  14  15
ENDBRANCH   1  14
BRANCH   1  21
ATOM     21  O   UNL     1      -0.906   0.206   0.000  0.00  0.00    +0.000 OA
BRANCH  21  22
ATOM     22  C   UNL     1      -0.192   0.619   0.000  0.00  0.00    +0.000 C 
ATOM     23  O   UNL     1      -0.192   1.444   0.000  0.00  0.00    +0.000 OA
BRANCH  22  24
ATOM     24  C   UNL     1       0.523   0.206   0.000  0.00  0.00    +0.000 C 
ATOM     25  C   UNL     1       1.237   0.619   0.000  0.00  0.00    +0.000 C 
ENDBRANCH  22  24
ENDBRANCH  21  22
ENDBRANCH   1  21
TORSDOF 9
