REMARK  Name = 
REMARK  11 active torsions:
REMARK  status: ('A' for Active; 'I' for Inactive)
REMARK    1  A    between atoms: N_6  and  C_7
REMARK    2  A    between atoms: C_9  and  C_10
REMARK    3  A    between atoms: C_10  and  O_11
REMARK    4  A    between atoms: O_11  and  P_12
REMARK    5  A    between atoms: P_12  and  O_15
REMARK    6  A    between atoms: O_15  and  C_16
REMARK    7  A    between atoms: C_16  and  C_17
REMARK    8  A    between atoms: C_17  and  C_18
REMARK    9  A    between atoms: C_18  and  C_19
REMARK   10  A    between atoms: C_19  and  C_20
REMARK   11  A    between atoms: C_20  and  C_21
REMARK                            x       y       z     vdW  Elec       q    Type
REMARK                         _______ _______ _______ _____ _____    ______ ____
ROOT
ATOM      1  O   UNL     1      -1.777   3.017   0.000  0.00  0.00    +0.000 OA
ENDROOT
BRANCH   1   2
ATOM      2  P   UNL     1      -1.063   3.429   0.000  0.00  0.00    +0.000 P 
ATOM      3  O   UNL     1      -0.650   2.715   0.000  0.00  0.00    +0.000 OA
ATOM      4  O   UNL     1      -1.475   4.144   0.000  0.00  0.00    +0.000 OA
BRANCH   2   5
ATOM      5  O   UNL     1      -0.348   3.842   0.000  0.00  0.00    +0.000 OA
BRANCH   5   6
ATOM      6  C   UNL     1       0.366   3.429   0.000  0.00  0.00    +0.000 C 
BRANCH   6   7
ATOM      7  C   UNL     1       1.081   3.842   0.000  0.00  0.00    +0.000 C 
BRANCH   7   8
ATOM      8  C   UNL     1       1.795   3.429   0.000  0.00  0.00    +0.000 C 
BRANCH   8   9
ATOM      9  C   UNL     1       2.510   3.842   0.000  0.00  0.00    +0.000 C 
BRANCH   9  10
ATOM     10  C   UNL     1       3.224   3.429   0.000  0.00  0.00    +0.000 C 
BRANCH  10  11
ATOM     11  C   UNL     1       3.939   3.842   0.000  0.00  0.00    +0.000 C 
ATOM     12  S   UNL     1       4.025   4.662   0.000  0.00  0.00    +0.000 S 
ATOM     13  C   UNL     1       4.832   4.834   0.000  0.00  0.00    +0.000 C 
ATOM     14  C   UNL     1       5.244   4.120   0.000  0.00  0.00    +0.000 C 
ATOM     15  N   UNL     1       5.998   3.784   0.000  0.00  0.00    +0.000 NA
ATOM     16  C   UNL     1       5.912   2.963   0.000  0.00  0.00    +0.000 C 
ATOM     17  O   UNL     1       6.525   2.411   0.000  0.00  0.00    +0.000 OA
ATOM     18  N   UNL     1       5.105   2.792   0.000  0.00  0.00    +0.000 NA
ATOM     19  C   UNL     1       4.692   3.506   0.000  0.00  0.00    +0.000 C 
ENDBRANCH  10  11
ENDBRANCH   9  10
ENDBRANCH   8   9
ENDBRANCH   7   8
ENDBRANCH   6   7
ENDBRANCH   5   6
ENDBRANCH   2   5
ENDBRANCH   1   2
BRANCH   1  20
ATOM     20  C   UNL     1      -2.492   3.429   0.000  0.00  0.00    +0.000 C 
BRANCH  20  23
ATOM     21  C   UNL     1      -4.512   2.739   0.000  0.00  0.00    +0.000 C 
ATOM     22  O   UNL     1      -3.960   3.353   0.000  0.00  0.00    +0.000 OA
ATOM     23  C   UNL     1      -3.206   3.017   0.000  0.00  0.00    +0.000 C 
ATOM     24  C   UNL     1      -3.292   2.196   0.000  0.00  0.00    +0.000 C 
ATOM     25  O   UNL     1      -2.679   1.644   0.000  0.00  0.00    +0.000 OA
ATOM     26  C   UNL     1      -4.099   2.025   0.000  0.00  0.00    +0.000 C 
ATOM     27  O   UNL     1      -4.435   1.271   0.000  0.00  0.00    +0.000 OA
BRANCH  21  33
ATOM     28  N   UNL     1      -8.059   2.399   0.000  0.00  0.00    +0.000 NA
ATOM     29  C   UNL     1      -7.305   2.063   0.000  0.00  0.00    +0.000 A 
ATOM     30  C   UNL     1      -6.638   2.548   0.000  0.00  0.00    +0.000 A 
ATOM     31  N   UNL     1      -6.552   3.369   0.000  0.00  0.00    +0.000 NA
ATOM     32  C   UNL     1      -5.745   3.540   0.000  0.00  0.00    +0.000 A 
ATOM     33  N   UNL     1      -5.332   2.826   0.000  0.00  0.00    +0.000 N 
ATOM     34  C   UNL     1      -5.884   2.212   0.000  0.00  0.00    +0.000 A 
ATOM     35  N   UNL     1      -5.798   1.392   0.000  0.00  0.00    +0.000 NA
ATOM     36  C   UNL     1      -6.465   0.907   0.000  0.00  0.00    +0.000 A 
ATOM     37  N   UNL     1      -7.219   1.243   0.000  0.00  0.00    +0.000 NA
ENDBRANCH  21  33
ENDBRANCH  20  23
ENDBRANCH   1  20
TORSDOF 11
