REMARK  Name = 
REMARK  2 active torsions:
REMARK  status: ('A' for Active; 'I' for Inactive)
REMARK    1  A    between atoms: N_12  and  C_22
REMARK    2  A    between atoms: C_22  and  C_23
REMARK                            x       y       z     vdW  Elec       q    Type
REMARK                         _______ _______ _______ _____ _____    ______ ____
ROOT
ATOM      1  C   UNL     1       0.000   0.825   0.000  0.00  0.00    +0.000 A 
ATOM      2  C   UNL     1      -0.715   0.412   0.000  0.00  0.00    +0.000 A 
ATOM      3  C   UNL     1      -0.714   2.062   0.000  0.00  0.00    +0.000 A 
ATOM      4  C   UNL     1      -1.429   1.650   0.000  0.00  0.00    +0.000 A 
ATOM      5  C   UNL     1      -1.429   0.825   0.000  0.00  0.00    +0.000 A 
ATOM      6  C   UNL     1       0.000   1.650   0.000  0.00  0.00    +0.000 A 
ATOM      7  C   UNL     1      -1.429  -0.825   0.000  0.00  0.00    +0.000 C 
ATOM      8  C   UNL     1      -1.429  -1.650   0.000  0.00  0.00    +0.000 C 
ATOM      9  C   UNL     1      -0.714  -2.062   0.000  0.00  0.00    +0.000 C 
ATOM     10  C   UNL     1       0.000  -1.650   0.000  0.00  0.00    +0.000 C 
ATOM     11  C   UNL     1       0.715  -0.412   0.000  0.00  0.00    +0.000 C 
ATOM     12  N   UNL     1       1.429  -0.825   0.000  0.00  0.00    +0.000 NA
ATOM     13  C   UNL     1       0.000  -0.825   0.000  0.00  0.00    +0.000 C 
ATOM     14  O   UNL     1       0.715  -1.238   0.000  0.00  0.00    +0.000 OA
ATOM     15  C   UNL     1       0.714   0.412   0.000  0.00  0.00    +0.000 C 
ATOM     16  C   UNL     1      -0.715  -0.412   0.000  0.00  0.00    +0.000 C 
ATOM     17  C   UNL     1       0.000   0.000   0.000  0.00  0.00    +0.000 C 
ATOM     18  C   UNL     1       1.444   0.000   0.000  0.00  0.00    +0.000 C 
ATOM     19  O   UNL     1      -2.143  -2.063   0.000  0.00  0.00    +0.000 OA
ATOM     20  O   UNL     1      -1.962   0.041   0.000  0.00  0.00    +0.000 OA
ATOM     21  O   UNL     1      -2.143   2.063   0.000  0.00  0.00    +0.000 OA
ENDROOT
BRANCH  12  22
ATOM     22  C   UNL     1       2.254  -0.825   0.000  0.00  0.00    +0.000 C 
BRANCH  22  23
ATOM     23  C   UNL     1       2.837  -1.408   0.000  0.00  0.00    +0.000 C 
ATOM     24  C   UNL     1       2.837  -2.233   0.000  0.00  0.00    +0.000 C 
ATOM     25  C   UNL     1       3.662  -1.408   0.000  0.00  0.00    +0.000 C 
ATOM     26  C   UNL     1       3.662  -2.233   0.000  0.00  0.00    +0.000 C 
ENDBRANCH  22  23
ENDBRANCH  12  22
TORSDOF 2
