REMARK  Name = 
REMARK  3 active torsions:
REMARK  status: ('A' for Active; 'I' for Inactive)
REMARK    1  A    between atoms: O_2  and  C_3
REMARK    2  A    between atoms: C_3  and  C_4
REMARK    3  A    between atoms: C_4  and  O_5
REMARK                            x       y       z     vdW  Elec       q    Type
REMARK                         _______ _______ _______ _____ _____    ______ ____
ROOT
ATOM      1  C   UNL     1       1.238   0.715   0.000  0.00  0.00    +0.000 C 
ENDROOT
BRANCH   1   3
ATOM      2  C   UNL     1      -0.191   0.715   0.000  0.00  0.00    +0.000 C 
ATOM      3  O   UNL     1       0.523   1.127   0.000  0.00  0.00    +0.000 OA
ENDBRANCH   1   3
BRANCH   1   4
ATOM      4  C   UNL     1       1.952   1.127   0.000  0.00  0.00    +0.000 C 
BRANCH   4   5
ATOM      5  O   UNL     1       2.666   0.715   0.000  0.00  0.00    +0.000 OA
ATOM      6  C   UNL     1       3.381   1.127   0.000  0.00  0.00    +0.000 C 
ENDBRANCH   4   5
ENDBRANCH   1   4
TORSDOF 3
