REMARK  Name = 
REMARK  4 active torsions:
REMARK  status: ('A' for Active; 'I' for Inactive)
REMARK    1  A    between atoms: C_1  and  C_2
REMARK    2  A    between atoms: C_1  and  C_3
REMARK    3  A    between atoms: C_3  and  O_7
REMARK    4  A    between atoms: O_7  and  P_8
REMARK                            x       y       z     vdW  Elec       q    Type
REMARK                         _______ _______ _______ _____ _____    ______ ____
ROOT
ATOM      1  C   UNL     1       3.904   1.429   0.000  0.00  0.00    +0.000 C 
ENDROOT
BRANCH   1   2
ATOM      2  C   UNL     1       3.189   1.841   0.000  0.00  0.00    +0.000 C 
BRANCH   2   3
ATOM      3  C   UNL     1       2.475   1.429   0.000  0.00  0.00    +0.000 C 
ATOM      4  O   UNL     1       1.760   1.841   0.000  0.00  0.00    +0.000 OA
ENDBRANCH   2   3
ENDBRANCH   1   2
BRANCH   1   5
ATOM      5  O   UNL     1       4.618   1.841   0.000  0.00  0.00    +0.000 OA
BRANCH   5   8
ATOM      6  O   UNL     1       6.047   1.841   0.000  0.00  0.00    +0.000 OA
ATOM      7  O   UNL     1       5.333   0.604   0.000  0.00  0.00    +0.000 OA
ATOM      8  P   UNL     1       5.333   1.429   0.000  0.00  0.00    +0.000 P 
ENDBRANCH   5   8
ENDBRANCH   1   5
TORSDOF 4
