REMARK  Name = 
REMARK  4 active torsions:
REMARK  status: ('A' for Active; 'I' for Inactive)
REMARK    1  A    between atoms: S_1  and  S_2
REMARK    2  A    between atoms: S_1  and  C_5
REMARK    3  A    between atoms: S_2  and  C_9
REMARK    4  A    between atoms: C_5  and  C_6
REMARK                            x       y       z     vdW  Elec       q    Type
REMARK                         _______ _______ _______ _____ _____    ______ ____
ROOT
ATOM      1  S   UNL     1       3.769  -0.149   0.000  0.00  0.00    +0.000 S 
ENDROOT
BRANCH   1   4
ATOM      2  N   UNL     1       2.317  -0.379   0.000  0.00  0.00    +0.000 NA
ATOM      3  N   UNL     1       2.730   0.890   0.000  0.00  0.00    +0.000 NA
ATOM      4  C   UNL     1       2.985   0.106   0.000  0.00  0.00    +0.000 A 
ATOM      5  C   UNL     1       1.650   0.106   0.000  0.00  0.00    +0.000 A 
ATOM      6  C   UNL     1       1.905   0.890   0.000  0.00  0.00    +0.000 A 
ENDBRANCH   1   4
BRANCH   1   7
ATOM      7  S   UNL     1       4.383   0.403   0.000  0.00  0.00    +0.000 S 
BRANCH   7   8
ATOM      8  C   UNL     1       5.167   0.148   0.000  0.00  0.00    +0.000 C 
ATOM      9  C   UNL     1       5.339  -0.659   0.000  0.00  0.00    +0.000 C 
BRANCH   8  10
ATOM     10  C   UNL     1       5.780   0.700   0.000  0.00  0.00    +0.000 C 
ATOM     11  C   UNL     1       6.565   0.445   0.000  0.00  0.00    +0.000 C 
ENDBRANCH   8  10
ENDBRANCH   7   8
ENDBRANCH   1   7
TORSDOF 4
