REMARK  Name = 
REMARK  9 active torsions:
REMARK  status: ('A' for Active; 'I' for Inactive)
REMARK    1  A    between atoms: C_2  and  C_4
REMARK    2  A    between atoms: C_3  and  CA_11
REMARK    3  A    between atoms: C_4  and  P_26
REMARK    4  A    between atoms: C_6  and  C_10
REMARK    5  A    between atoms: C_6  and  N_15
REMARK    6  A    between atoms: C_7  and  C_9
REMARK    7  A    between atoms: C_7  and  O_25
REMARK    8  A    between atoms: CA_11  and  C_13
REMARK    9  A    between atoms: O_25  and  P_27
REMARK                            x       y       z     vdW  Elec       q    Type
REMARK                         _______ _______ _______ _____ _____    ______ ____
ROOT
ATOM      1  C   UNL     1       0.715  -1.238   0.000  0.00  0.00    +0.000 C 
ATOM      2  C   UNL     1       1.429   0.825   0.000  0.00  0.00    +0.000 A 
ATOM      3  C   UNL     1       0.715  -0.412   0.000  0.00  0.00    +0.000 A 
ATOM      4  C   UNL     1       0.715   1.238   0.000  0.00  0.00    +0.000 A 
ATOM      5  C   UNL     1       0.000   0.825   0.000  0.00  0.00    +0.000 A 
ATOM      6  C   UNL     1       0.000   0.000   0.000  0.00  0.00    +0.000 A 
ATOM      7  N   UNL     1       1.429   0.000   0.000  0.00  0.00    +0.000 NA
ATOM      8  O   UNL     1      -0.715  -0.412   0.000  0.00  0.00    +0.000 OA
ENDROOT
BRANCH   4   9
ATOM      9  C   UNL     1       0.715   2.062   0.000  0.00  0.00    +0.000 C 
BRANCH   9  10
ATOM     10  O   UNL     1       1.429   2.475   0.000  0.00  0.00    +0.000 OA
BRANCH  10  14
ATOM     11  O   UNL     1       1.429   4.125   0.000  0.00  0.00    +0.000 OA
ATOM     12  O   UNL     1       2.254   3.300   0.000  0.00  0.00    +0.000 OA
ATOM     13  O   UNL     1       0.604   3.300   0.000  0.00  0.00    +0.000 OA
ATOM     14  P   UNL     1       1.429   3.300   0.000  0.00  0.00    +0.000 P 
ENDBRANCH  10  14
ENDBRANCH   9  10
ENDBRANCH   4   9
BRANCH   5  15
ATOM     15  C   UNL     1      -0.715   1.238   0.000  0.00  0.00    +0.000 C 
BRANCH  15  17
ATOM     16  CA  UNL     1      -2.143   1.238   0.000  0.00  0.00    +0.000 C 
ATOM     17  N   UNL     1      -1.429   0.825   0.000  0.00  0.00    +0.000 NA
BRANCH  16  18
ATOM     18  C   UNL     1      -2.858   0.825   0.000  0.00  0.00    +0.000 C 
ATOM     19  O   UNL     1      -2.858   0.000   0.000  0.00  0.00    +0.000 OA
ATOM     20  OXT UNL     1      -3.572   1.238   0.000  0.00  0.00    +0.000 OA
ENDBRANCH  16  18
BRANCH  16  22
ATOM     21  C   UNL     1      -2.858   2.475   0.000  0.00  0.00    +0.000 C 
ATOM     22  C   UNL     1      -2.143   2.062   0.000  0.00  0.00    +0.000 C 
BRANCH  21  23
ATOM     23  C   UNL     1      -2.858   3.300   0.000  0.00  0.00    +0.000 C 
BRANCH  23  27
ATOM     24  O   UNL     1      -4.287   4.125   0.000  0.00  0.00    +0.000 OA
ATOM     25  O   UNL     1      -3.985   2.998   0.000  0.00  0.00    +0.000 OA
ATOM     26  O   UNL     1      -3.160   4.427   0.000  0.00  0.00    +0.000 OA
ATOM     27  P   UNL     1      -3.572   3.712   0.000  0.00  0.00    +0.000 P 
ENDBRANCH  23  27
ENDBRANCH  21  23
ENDBRANCH  16  22
ENDBRANCH  15  17
ENDBRANCH   5  15
TORSDOF 9
