REMARK  Name = 
REMARK  9 active torsions:
REMARK  status: ('A' for Active; 'I' for Inactive)
REMARK    1  A    between atoms: CA_4  and  C_9
REMARK    2  A    between atoms: C_5  and  C_19
REMARK    3  A    between atoms: CA_7  and  N_13
REMARK    4  A    between atoms: C_14  and  C_15
REMARK    5  A    between atoms: C_15  and  C_16
REMARK    6  A    between atoms: C_19  and  S_20
REMARK    7  A    between atoms: S_20  and  C_24
REMARK    8  A    between atoms: N_23  and  C_26
REMARK    9  A    between atoms: C_26  and  S_33
REMARK                            x       y       z     vdW  Elec       q    Type
REMARK                         _______ _______ _______ _____ _____    ______ ____
ROOT
ATOM      1  S   UNL     1      13.700 -18.732   0.000  0.00  0.00    +0.000 S 
ATOM      2  C   UNL     1      12.986 -19.144   0.000  0.00  0.00    +0.000 C 
ATOM      3  N   UNL     1      12.986 -19.969   0.000  0.00  0.00    +0.000 N 
ATOM      4  CA  UNL     1      13.700 -20.382   0.000  0.00  0.00    +0.000 C 
ATOM      5  C   UNL     1      14.415 -19.969   0.000  0.00  0.00    +0.000 C 
ATOM      6  C   UNL     1      14.415 -19.144   0.000  0.00  0.00    +0.000 C 
ATOM      7  CA  UNL     1      12.161 -19.144   0.000  0.00  0.00    +0.000 C 
ATOM      8  C   UNL     1      12.161 -19.969   0.000  0.00  0.00    +0.000 C 
ATOM      9  O   UNL     1      11.578 -20.552   0.000  0.00  0.00    +0.000 OA
ENDROOT
BRANCH   7  10
ATOM     10  N   UNL     1      11.446 -18.732   0.000  0.00  0.00    +0.000 NA
ATOM     11  C   UNL     1      10.732 -19.144   0.000  0.00  0.00    +0.000 C 
ATOM     12  O   UNL     1      10.732 -19.969   0.000  0.00  0.00    +0.000 OA
BRANCH  11  13
ATOM     13  C   UNL     1      10.018 -18.732   0.000  0.00  0.00    +0.000 C 
ATOM     14  O   UNL     1      10.018 -17.907   0.000  0.00  0.00    +0.000 OA
BRANCH  13  15
ATOM     15  C   UNL     1       9.303 -19.144   0.000  0.00  0.00    +0.000 A 
ATOM     16  C   UNL     1       8.588 -18.732   0.000  0.00  0.00    +0.000 A 
ATOM     17  C   UNL     1       7.874 -19.144   0.000  0.00  0.00    +0.000 A 
ATOM     18  C   UNL     1       7.874 -19.969   0.000  0.00  0.00    +0.000 A 
ATOM     19  C   UNL     1       8.588 -20.382   0.000  0.00  0.00    +0.000 A 
ATOM     20  C   UNL     1       9.303 -19.969   0.000  0.00  0.00    +0.000 A 
ENDBRANCH  13  15
ENDBRANCH  11  13
ENDBRANCH   7  10
BRANCH   4  21
ATOM     21  C   UNL     1      13.700 -21.207   0.000  0.00  0.00    +0.000 C 
ATOM     22  O   UNL     1      12.986 -21.619   0.000  0.00  0.00    +0.000 OA
ATOM     23  OXT UNL     1      14.415 -21.619   0.000  0.00  0.00    +0.000 OA
ENDBRANCH   4  21
BRANCH   5  24
ATOM     24  C   UNL     1      15.129 -20.382   0.000  0.00  0.00    +0.000 C 
BRANCH  24  25
ATOM     25  S   UNL     1      15.844 -19.969   0.000  0.00  0.00    +0.000 S 
BRANCH  25  29
ATOM     26  N   UNL     1      17.511 -21.316   0.000  0.00  0.00    +0.000 NA
ATOM     27  N   UNL     1      17.879 -20.578   0.000  0.00  0.00    +0.000 NA
ATOM     28  N   UNL     1      17.290 -20.000   0.000  0.00  0.00    +0.000 N 
ATOM     29  C   UNL     1      16.558 -20.382   0.000  0.00  0.00    +0.000 A 
ATOM     30  N   UNL     1      16.695 -21.195   0.000  0.00  0.00    +0.000 NA
BRANCH  28  31
ATOM     31  C   UNL     1      17.397 -19.175   0.000  0.00  0.00    +0.000 C 
BRANCH  31  32
ATOM     32  S   UNL     1      18.112 -18.762   0.000  0.00  0.00    +0.000 S 
ATOM     33  O   UNL     1      18.826 -18.350   0.000  0.00  0.00    +0.000 OA
ATOM     34  O   UNL     1      17.699 -18.048   0.000  0.00  0.00    +0.000 OA
ATOM     35  O   UNL     1      18.524 -19.477   0.000  0.00  0.00    +0.000 OA
ENDBRANCH  31  32
ENDBRANCH  28  31
ENDBRANCH  25  29
ENDBRANCH  24  25
ENDBRANCH   5  24
TORSDOF 9
