REMARK  Name = 
REMARK  2 active torsions:
REMARK  status: ('A' for Active; 'I' for Inactive)
REMARK    1  A    between atoms: C5*_5  and  C4*_6
REMARK    2  A    between atoms: C1*_9  and  N_12
REMARK                            x       y       z     vdW  Elec       q    Type
REMARK                         _______ _______ _______ _____ _____    ______ ____
ROOT
ATOM      1  C4* UNL     1       4.002   0.629   0.000  0.00  0.00    +0.000 C 
ATOM      2  C3* UNL     1       3.334   1.114   0.000  0.00  0.00    +0.000 C 
ATOM      3  C2* UNL     1       2.667   0.629   0.000  0.00  0.00    +0.000 C 
ATOM      4  C1* UNL     1       2.922  -0.155   0.000  0.00  0.00    +0.000 C 
ATOM      5  O3* UNL     1       3.334   1.939   0.000  0.00  0.00    +0.000 OA
ATOM      6  O2* UNL     1       1.882   0.884   0.000  0.00  0.00    +0.000 OA
ATOM      7  O4* UNL     1       3.747  -0.155   0.000  0.00  0.00    +0.000 OA
ENDROOT
BRANCH   4  14
ATOM      8  C   UNL     1       1.708  -2.527   0.000  0.00  0.00    +0.000 C 
ATOM      9  C   UNL     1       2.503  -2.308   0.000  0.00  0.00    +0.000 C 
ATOM     10  C   UNL     1       1.041  -2.042   0.000  0.00  0.00    +0.000 C 
ATOM     11  C   UNL     1       2.828  -1.549   0.000  0.00  0.00    +0.000 C 
ATOM     12  C   UNL     1       1.625  -0.675   0.000  0.00  0.00    +0.000 C 
ATOM     13  N   UNL     1       1.004  -1.218   0.000  0.00  0.00    +0.000 NA
ATOM     14  N   UNL     1       2.437  -0.823   0.000  0.00  0.00    +0.000 N 
ATOM     15  O   UNL     1       1.405   0.120   0.000  0.00  0.00    +0.000 OA
ENDBRANCH   4  14
BRANCH   1  16
ATOM     16  C5* UNL     1       4.786   0.884   0.000  0.00  0.00    +0.000 C 
ATOM     17  O5* UNL     1       4.958   1.691   0.000  0.00  0.00    +0.000 OA
ENDBRANCH   1  16
TORSDOF 2
