REMARK  Name = 
REMARK  44 active torsions:
REMARK  status: ('A' for Active; 'I' for Inactive)
REMARK    1  A    between atoms: C_6  and  C_8
REMARK    2  A    between atoms: C_7  and  C_9
REMARK    3  A    between atoms: C_8  and  C_10
REMARK    4  A    between atoms: C_9  and  C_11
REMARK    5  A    between atoms: C_10  and  C_12
REMARK    6  A    between atoms: C_11  and  C_13
REMARK    7  A    between atoms: C_12  and  C_14
REMARK    8  A    between atoms: C_13  and  C_15
REMARK    9  A    between atoms: C_14  and  C_16
REMARK   10  A    between atoms: C_15  and  C_17
REMARK   11  A    between atoms: C_16  and  C_18
REMARK   12  A    between atoms: C_17  and  C_19
REMARK   13  A    between atoms: C_18  and  C_20
REMARK   14  A    between atoms: C_19  and  C_21
REMARK   15  A    between atoms: C_20  and  C_22
REMARK   16  A    between atoms: C_21  and  C_23
REMARK   17  A    between atoms: C_22  and  C_24
REMARK   18  A    between atoms: C_23  and  C_25
REMARK   19  A    between atoms: C_24  and  C_26
REMARK   20  A    between atoms: C_25  and  C_27
REMARK   21  A    between atoms: C_26  and  C_28
REMARK   22  A    between atoms: C_27  and  C_29
REMARK   23  A    between atoms: C_28  and  C_30
REMARK   24  A    between atoms: C_29  and  C_31
REMARK   25  A    between atoms: C_30  and  C_32
REMARK   26  A    between atoms: C_31  and  C_33
REMARK   27  A    between atoms: C_32  and  C_34
REMARK   28  A    between atoms: C_33  and  C_35
REMARK   29  A    between atoms: C_34  and  C_36
REMARK   30  A    between atoms: C_35  and  C_37
REMARK   31  A    between atoms: C_36  and  C_43
REMARK   32  A    between atoms: C_37  and  C_44
REMARK   33  A    between atoms: C_38  and  C_39
REMARK   34  A    between atoms: C_38  and  N_45
REMARK   35  A    between atoms: C_39  and  O_51
REMARK   36  A    between atoms: C_40  and  C_42
REMARK   37  A    between atoms: C_40  and  O_50
REMARK   38  A    between atoms: C_41  and  C_42
REMARK   39  A    between atoms: C_41  and  O_52
REMARK   40  A    between atoms: C_42  and  O_53
REMARK   41  A    between atoms: C_43  and  O_50
REMARK   42  A    between atoms: C_44  and  O_53
REMARK   43  A    between atoms: O_51  and  P_54
REMARK   44  A    between atoms: O_52  and  P_54
REMARK                            x       y       z     vdW  Elec       q    Type
REMARK                         _______ _______ _______ _____ _____    ______ ____
ROOT
ATOM      1  C   UNL     1       1.310  -7.145   0.000  0.00  0.00    +0.000 C 
ENDROOT
BRANCH   1   2
ATOM      2  C   UNL     1       0.596  -6.732   0.000  0.00  0.00    +0.000 C 
BRANCH   2   3
ATOM      3  O   UNL     1      -0.118  -7.145   0.000  0.00  0.00    +0.000 OA
BRANCH   3   4
ATOM      4  C   UNL     1      -0.833  -6.732   0.000  0.00  0.00    +0.000 C 
ATOM      5  O   UNL     1      -0.833  -5.907   0.000  0.00  0.00    +0.000 OA
BRANCH   4   6
ATOM      6  C   UNL     1      -1.547  -7.145   0.000  0.00  0.00    +0.000 C 
BRANCH   6   7
ATOM      7  C   UNL     1      -2.262  -6.732   0.000  0.00  0.00    +0.000 C 
BRANCH   7   8
ATOM      8  C   UNL     1      -2.976  -7.145   0.000  0.00  0.00    +0.000 C 
BRANCH   8   9
ATOM      9  C   UNL     1      -3.691  -6.732   0.000  0.00  0.00    +0.000 C 
BRANCH   9  10
ATOM     10  C   UNL     1      -4.405  -7.145   0.000  0.00  0.00    +0.000 C 
BRANCH  10  11
ATOM     11  C   UNL     1      -5.120  -6.732   0.000  0.00  0.00    +0.000 C 
BRANCH  11  12
ATOM     12  C   UNL     1      -5.834  -7.145   0.000  0.00  0.00    +0.000 C 
BRANCH  12  13
ATOM     13  C   UNL     1      -6.549  -6.732   0.000  0.00  0.00    +0.000 C 
BRANCH  13  14
ATOM     14  C   UNL     1      -7.263  -7.145   0.000  0.00  0.00    +0.000 C 
BRANCH  14  15
ATOM     15  C   UNL     1      -7.978  -6.732   0.000  0.00  0.00    +0.000 C 
BRANCH  15  16
ATOM     16  C   UNL     1      -8.692  -7.145   0.000  0.00  0.00    +0.000 C 
BRANCH  16  17
ATOM     17  C   UNL     1      -9.407  -6.732   0.000  0.00  0.00    +0.000 C 
BRANCH  17  18
ATOM     18  C   UNL     1     -10.121  -7.145   0.000  0.00  0.00    +0.000 C 
BRANCH  18  19
ATOM     19  C   UNL     1     -10.835  -6.732   0.000  0.00  0.00    +0.000 C 
BRANCH  19  20
ATOM     20  C   UNL     1     -11.550  -7.145   0.000  0.00  0.00    +0.000 C 
BRANCH  20  22
ATOM     21  C   UNL     1     -12.979  -7.145   0.000  0.00  0.00    +0.000 C 
ATOM     22  C   UNL     1     -12.264  -6.732   0.000  0.00  0.00    +0.000 C 
ENDBRANCH  20  22
ENDBRANCH  19  20
ENDBRANCH  18  19
ENDBRANCH  17  18
ENDBRANCH  16  17
ENDBRANCH  15  16
ENDBRANCH  14  15
ENDBRANCH  13  14
ENDBRANCH  12  13
ENDBRANCH  11  12
ENDBRANCH  10  11
ENDBRANCH   9  10
ENDBRANCH   8   9
ENDBRANCH   7   8
ENDBRANCH   6   7
ENDBRANCH   4   6
ENDBRANCH   3   4
ENDBRANCH   2   3
ENDBRANCH   1   2
BRANCH   1  23
ATOM     23  C   UNL     1       1.310  -7.970   0.000  0.00  0.00    +0.000 C 
BRANCH  23  24
ATOM     24  O   UNL     1       2.025  -8.382   0.000  0.00  0.00    +0.000 OA
BRANCH  24  27
ATOM     25  O   UNL     1       1.200  -9.207   0.000  0.00  0.00    +0.000 OA
ATOM     26  O   UNL     1       2.025 -10.032   0.000  0.00  0.00    +0.000 OA
ATOM     27  P   UNL     1       2.025  -9.207   0.000  0.00  0.00    +0.000 P 
BRANCH  27  28
ATOM     28  O   UNL     1       2.850  -9.207   0.000  0.00  0.00    +0.000 OA
BRANCH  28  29
ATOM     29  C   UNL     1       3.262  -9.922   0.000  0.00  0.00    +0.000 C 
BRANCH  29  30
ATOM     30  C   UNL     1       4.087  -9.922   0.000  0.00  0.00    +0.000 C 
BRANCH  30  34
ATOM     31  C   UNL     1       3.785 -11.049   0.000  0.00  0.00    +0.000 C 
ATOM     32  C   UNL     1       5.214 -10.224   0.000  0.00  0.00    +0.000 C 
ATOM     33  C   UNL     1       4.912 -11.351   0.000  0.00  0.00    +0.000 C 
ATOM     34  N   UNL     1       4.500 -10.636   0.000  0.00  0.00    +0.000 N 
ENDBRANCH  30  34
ENDBRANCH  29  30
ENDBRANCH  28  29
ENDBRANCH  27  28
ENDBRANCH  24  27
ENDBRANCH  23  24
ENDBRANCH   1  23
BRANCH   1  35
ATOM     35  O   UNL     1       2.025  -6.732   0.000  0.00  0.00    +0.000 OA
BRANCH  35  36
ATOM     36  C   UNL     1       2.739  -7.145   0.000  0.00  0.00    +0.000 C 
ATOM     37  O   UNL     1       2.739  -7.970   0.000  0.00  0.00    +0.000 OA
BRANCH  36  38
ATOM     38  C   UNL     1       3.454  -6.732   0.000  0.00  0.00    +0.000 C 
BRANCH  38  39
ATOM     39  C   UNL     1       4.168  -7.145   0.000  0.00  0.00    +0.000 C 
BRANCH  39  40
ATOM     40  C   UNL     1       4.883  -6.732   0.000  0.00  0.00    +0.000 C 
BRANCH  40  41
ATOM     41  C   UNL     1       5.597  -7.145   0.000  0.00  0.00    +0.000 C 
BRANCH  41  42
ATOM     42  C   UNL     1       6.312  -6.732   0.000  0.00  0.00    +0.000 C 
BRANCH  42  43
ATOM     43  C   UNL     1       7.026  -7.145   0.000  0.00  0.00    +0.000 C 
BRANCH  43  44
ATOM     44  C   UNL     1       7.741  -6.732   0.000  0.00  0.00    +0.000 C 
BRANCH  44  45
ATOM     45  C   UNL     1       8.455  -7.145   0.000  0.00  0.00    +0.000 C 
BRANCH  45  46
ATOM     46  C   UNL     1       9.170  -6.732   0.000  0.00  0.00    +0.000 C 
BRANCH  46  47
ATOM     47  C   UNL     1       9.884  -7.145   0.000  0.00  0.00    +0.000 C 
BRANCH  47  48
ATOM     48  C   UNL     1      10.599  -6.732   0.000  0.00  0.00    +0.000 C 
BRANCH  48  49
ATOM     49  C   UNL     1      11.313  -7.145   0.000  0.00  0.00    +0.000 C 
BRANCH  49  50
ATOM     50  C   UNL     1      12.027  -6.732   0.000  0.00  0.00    +0.000 C 
BRANCH  50  51
ATOM     51  C   UNL     1      12.742  -7.145   0.000  0.00  0.00    +0.000 C 
BRANCH  51  52
ATOM     52  C   UNL     1      13.457  -6.732   0.000  0.00  0.00    +0.000 C 
BRANCH  52  54
ATOM     53  C   UNL     1      14.885  -6.732   0.000  0.00  0.00    +0.000 C 
ATOM     54  C   UNL     1      14.171  -7.145   0.000  0.00  0.00    +0.000 C 
ENDBRANCH  52  54
ENDBRANCH  51  52
ENDBRANCH  50  51
ENDBRANCH  49  50
ENDBRANCH  48  49
ENDBRANCH  47  48
ENDBRANCH  46  47
ENDBRANCH  45  46
ENDBRANCH  44  45
ENDBRANCH  43  44
ENDBRANCH  42  43
ENDBRANCH  41  42
ENDBRANCH  40  41
ENDBRANCH  39  40
ENDBRANCH  38  39
ENDBRANCH  36  38
ENDBRANCH  35  36
ENDBRANCH   1  35
TORSDOF 44
