REMARK  Name = 
REMARK  3 active torsions:
REMARK  status: ('A' for Active; 'I' for Inactive)
REMARK    1  A    between atoms: C_2  and  C_3
REMARK    2  A    between atoms: C_5  and  O_6
REMARK    3  A    between atoms: O_6  and  C_7
REMARK                            x       y       z     vdW  Elec       q    Type
REMARK                         _______ _______ _______ _____ _____    ______ ____
ROOT
ATOM      1  O   UNL     1      -0.398   0.754   0.000  0.00  0.00    +0.000 OA
ENDROOT
BRANCH   1   2
ATOM      2  C   UNL     1      -0.143  -0.030   0.000  0.00  0.00    +0.000 A 
ATOM      3  C   UNL     1      -0.628  -0.698   0.000  0.00  0.00    +0.000 A 
ATOM      4  N   UNL     1      -0.143  -1.365   0.000  0.00  0.00    +0.000 NA
ATOM      5  C   UNL     1       0.641  -1.110   0.000  0.00  0.00    +0.000 A 
ATOM      6  C   UNL     1       0.641  -0.285   0.000  0.00  0.00    +0.000 A 
ATOM      7  C   UNL     1       1.356   0.127   0.000  0.00  0.00    +0.000 A 
ATOM      8 CL   UNL     1       1.356   0.952   0.000  0.00  0.00    +0.000 Cl
ATOM      9  C   UNL     1       2.070  -0.285   0.000  0.00  0.00    +0.000 A 
ATOM     10 BR   UNL     1       2.784   0.127   0.000  0.00  0.00    +0.000 Br
ATOM     11  C   UNL     1       2.070  -1.110   0.000  0.00  0.00    +0.000 A 
ATOM     12  C   UNL     1       1.356  -1.523   0.000  0.00  0.00    +0.000 A 
ENDBRANCH   1   2
BRANCH   1  15
ATOM     13  C   UNL     1      -2.267   1.882   0.000  0.00  0.00    +0.000 C 
ATOM     14  O   UNL     1      -1.460   1.710   0.000  0.00  0.00    +0.000 OA
ATOM     15  C   UNL     1      -1.205   0.926   0.000  0.00  0.00    +0.000 C 
ATOM     16  C   UNL     1      -1.758   0.313   0.000  0.00  0.00    +0.000 C 
ATOM     17  O   UNL     1      -1.502  -0.472   0.000  0.00  0.00    +0.000 OA
ATOM     18  C   UNL     1      -2.564   0.484   0.000  0.00  0.00    +0.000 C 
ATOM     19  O   UNL     1      -3.116  -0.129   0.000  0.00  0.00    +0.000 OA
ATOM     20  C   UNL     1      -2.819   1.269   0.000  0.00  0.00    +0.000 C 
ATOM     21  O   UNL     1      -3.626   1.440   0.000  0.00  0.00    +0.000 OA
BRANCH  13  23
ATOM     22  O   UNL     1      -3.329   2.838   0.000  0.00  0.00    +0.000 OA
ATOM     23  C   UNL     1      -2.522   2.666   0.000  0.00  0.00    +0.000 C 
ENDBRANCH  13  23
ENDBRANCH   1  15
TORSDOF 3
