REMARK  Name = 
REMARK  2 active torsions:
REMARK  status: ('A' for Active; 'I' for Inactive)
REMARK    1  A    between atoms: C1*_1  and  N1_2
REMARK    2  A    between atoms: C4*_7  and  C5*_12
REMARK                            x       y       z     vdW  Elec       q    Type
REMARK                         _______ _______ _______ _____ _____    ______ ____
ROOT
ATOM      1  N1    T A   1       0.424   0.117   0.000  0.00  0.00    +0.000 N 
ATOM      2  C2    T A   1       1.021  -0.442   0.000  0.00  0.00    +0.000 A 
ATOM      3  C6    T A   1       0.611   0.918   0.000  0.00  0.00    +0.000 A 
ATOM      4  N3    T A   1       1.815  -0.207   0.000  0.00  0.00    +0.000 NA
ATOM      5  O2    T A   1       0.838  -1.252   0.000  0.00  0.00    +0.000 OA
ATOM      6  C5    T A   1       1.401   1.163   0.000  0.00  0.00    +0.000 A 
ATOM      7  C4    T A   1       1.994   0.590   0.000  0.00  0.00    +0.000 A 
ATOM      8  C5M   T A   1       1.587   1.963   0.000  0.00  0.00    +0.000 C 
ATOM      9  O4    T A   1       2.784   0.828   0.000  0.00  0.00    +0.000 OA
ENDROOT
BRANCH   1  10
ATOM     10  C1*   T A   1      -0.366  -0.135   0.000  0.00  0.00    +0.000 C 
ATOM     11  O4*   T A   1      -1.042   0.380   0.000  0.00  0.00    +0.000 OA
ATOM     12  C2*   T A   1      -0.611  -0.900   0.000  0.00  0.00    +0.000 C 
ATOM     13  C4*   T A   1      -1.708  -0.117   0.000  0.00  0.00    +0.000 C 
ATOM     14  C3*   T A   1      -1.449  -0.900   0.000  0.00  0.00    +0.000 C 
ATOM     15  O3*   T A   1      -1.704  -1.708   0.000  0.00  0.00    +0.000 OA
BRANCH  13  16
ATOM     16  C5*   T A   1      -2.495   0.131   0.000  0.00  0.00    +0.000 C 
ATOM     17  O5*   T A   1      -3.105  -0.424   0.000  0.00  0.00    +0.000 OA
ENDBRANCH  13  16
ENDBRANCH   1  10
TORSDOF 2
