REMARK  Name = 
REMARK  6 active torsions:
REMARK  status: ('A' for Active; 'I' for Inactive)
REMARK    1  A    between atoms: C_2  and  C_3
REMARK    2  A    between atoms: C_3  and  C_4
REMARK    3  A    between atoms: C_4  and  C_5
REMARK    4  A    between atoms: N_6  and  C_7
REMARK    5  A    between atoms: C_7  and  C_8
REMARK    6  A    between atoms: C_8  and  C_9
REMARK                            x       y       z     vdW  Elec       q    Type
REMARK                         _______ _______ _______ _____ _____    ______ ____
ROOT
ATOM      1  C   UNL     1      -0.037   1.709   0.000  0.00  0.00    +0.000 C 
ATOM      2  O   UNL     1      -0.037   2.534   0.000  0.00  0.00    +0.000 OA
ENDROOT
BRANCH   1   3
ATOM      3  C   UNL     1       0.677   1.296   0.000  0.00  0.00    +0.000 C 
ATOM      4  N   UNL     1       1.392   1.709   0.000  0.00  0.00    +0.000 NA
ATOM      5  O   UNL     1       0.677   0.471   0.000  0.00  0.00    +0.000 OA
BRANCH   4   6
ATOM      6  C   UNL     1       2.106   1.296   0.000  0.00  0.00    +0.000 C 
BRANCH   6   7
ATOM      7  C   UNL     1       2.821   1.709   0.000  0.00  0.00    +0.000 C 
BRANCH   7   8
ATOM      8  C   UNL     1       3.535   1.296   0.000  0.00  0.00    +0.000 C 
ATOM      9  O   UNL     1       4.250   1.709   0.000  0.00  0.00    +0.000 OA
ENDBRANCH   7   8
ENDBRANCH   6   7
ENDBRANCH   4   6
ENDBRANCH   1   3
BRANCH   1  10
ATOM     10  C   UNL     1      -0.752   1.296   0.000  0.00  0.00    +0.000 C 
ATOM     11  C   UNL     1      -1.164   0.582   0.000  0.00  0.00    +0.000 C 
ATOM     12  C   UNL     1      -0.339   0.582   0.000  0.00  0.00    +0.000 C 
BRANCH  10  14
ATOM     13  O   UNL     1      -2.180   1.296   0.000  0.00  0.00    +0.000 OA
ATOM     14  C   UNL     1      -1.466   1.709   0.000  0.00  0.00    +0.000 C 
ENDBRANCH  10  14
ENDBRANCH   1  10
TORSDOF 6
