REMARK  Name = 
REMARK  7 active torsions:
REMARK  status: ('A' for Active; 'I' for Inactive)
REMARK    1  A    between atoms: C_1  and  C_2
REMARK    2  A    between atoms: C_1  and  C_4
REMARK    3  A    between atoms: C_3  and  C_5
REMARK    4  A    between atoms: C_3  and  O_14
REMARK    5  A    between atoms: C_4  and  C_6
REMARK    6  A    between atoms: C_5  and  C_6
REMARK    7  A    between atoms: O_14  and  P_15
REMARK                            x       y       z     vdW  Elec       q    Type
REMARK                         _______ _______ _______ _____ _____    ______ ____
ROOT
ATOM      1  C   UNL     1       1.208  -1.429   0.000  0.00  0.00    +0.000 C 
ATOM      2  O   UNL     1       1.208  -2.254   0.000  0.00  0.00    +0.000 OA
ENDROOT
BRANCH   1   3
ATOM      3  C   UNL     1       0.493  -1.016   0.000  0.00  0.00    +0.000 C 
ATOM      4  O   UNL     1       0.493  -0.191   0.000  0.00  0.00    +0.000 OA
BRANCH   3   5
ATOM      5  C   UNL     1      -0.221  -1.429   0.000  0.00  0.00    +0.000 C 
ATOM      6  O   UNL     1      -0.221  -2.254   0.000  0.00  0.00    +0.000 OA
BRANCH   5   7
ATOM      7  C   UNL     1      -0.935  -1.016   0.000  0.00  0.00    +0.000 C 
BRANCH   7   8
ATOM      8  C   UNL     1      -1.650  -1.429   0.000  0.00  0.00    +0.000 C 
ATOM      9  O   UNL     1      -2.365  -1.016   0.000  0.00  0.00    +0.000 OA
ENDBRANCH   7   8
ENDBRANCH   5   7
ENDBRANCH   3   5
ENDBRANCH   1   3
BRANCH   1  10
ATOM     10  C   UNL     1       1.922  -1.016   0.000  0.00  0.00    +0.000 C 
BRANCH  10  11
ATOM     11  O   UNL     1       2.637  -1.429   0.000  0.00  0.00    +0.000 OA
BRANCH  11  15
ATOM     12  O   UNL     1       4.066  -0.604   0.000  0.00  0.00    +0.000 OA
ATOM     13  O   UNL     1       3.764  -1.731   0.000  0.00  0.00    +0.000 OA
ATOM     14  O   UNL     1       2.939  -0.302   0.000  0.00  0.00    +0.000 OA
ATOM     15  P   UNL     1       3.351  -1.016   0.000  0.00  0.00    +0.000 P 
ENDBRANCH  11  15
ENDBRANCH  10  11
ENDBRANCH   1  10
TORSDOF 7
