REMARK  Name = 
REMARK  20 active torsions:
REMARK  status: ('A' for Active; 'I' for Inactive)
REMARK    1  A    between atoms: C_2  and  C_3
REMARK    2  A    between atoms: C_3  and  C_4
REMARK    3  A    between atoms: C_10  and  C_11
REMARK    4  A    between atoms: C_11  and  C_12
REMARK    5  A    between atoms: C_12  and  C_13
REMARK    6  A    between atoms: C_16  and  C_18
REMARK    7  A    between atoms: C_18  and  C_19
REMARK    8  A    between atoms: C_25  and  C_26
REMARK    9  A    between atoms: C_26  and  C_27
REMARK   10  A    between atoms: C_30  and  C_31
REMARK   11  A    between atoms: C_31  and  C_32
REMARK   12  A    between atoms: C_32  and  C_33
REMARK   13  A    between atoms: C_47  and  C_48
REMARK   14  A    between atoms: C_48  and  C_49
REMARK   15  A    between atoms: C_49  and  C_50
REMARK   16  A    between atoms: C_53  and  C_54
REMARK   17  A    between atoms: C_54  and  C_55
REMARK   18  A    between atoms: C_58  and  C_59
REMARK   19  A    between atoms: C_59  and  C_60
REMARK   20  A    between atoms: C_60  and  C_61
REMARK                            x       y       z     vdW  Elec       q    Type
REMARK                         _______ _______ _______ _____ _____    ______ ____
ROOT
ATOM      1  C   UNL     1       1.517   1.265   0.000  0.00  0.00    +0.000 C 
ATOM      2  C   UNL     1       1.635   0.449   0.000  0.00  0.00    +0.000 C 
ATOM      3  C   UNL     1       2.435   0.652   0.000  0.00  0.00    +0.000 C 
ATOM      4  C   UNL     1       2.955   1.589   0.000  0.00  0.00    +0.000 C 
ATOM      5  C   UNL     1       3.670   2.002   0.000  0.00  0.00    +0.000 C 
ATOM      6  C   UNL     1       3.975   2.768   0.000  0.00  0.00    +0.000 C 
ATOM      7  C   UNL     1       4.798   2.715   0.000  0.00  0.00    +0.000 C 
ATOM      8  C   UNL     1       4.766   3.539   0.000  0.00  0.00    +0.000 C 
ATOM      9  C   UNL     1       5.002   1.915   0.000  0.00  0.00    +0.000 C 
ATOM     10  C   UNL     1       5.939   1.395   0.000  0.00  0.00    +0.000 C 
ATOM     11  C   UNL     1       6.352   0.680   0.000  0.00  0.00    +0.000 A 
ATOM     12  C   UNL     1       7.118   0.375   0.000  0.00  0.00    +0.000 A 
ATOM     13  C   UNL     1       7.064  -0.449   0.000  0.00  0.00    +0.000 A 
ATOM     14  C   UNL     1       6.265  -0.652   0.000  0.00  0.00    +0.000 A 
ATOM     15  C   UNL     1       5.744  -1.589   0.000  0.00  0.00    +0.000 C 
ATOM     16  C   UNL     1       5.030  -2.002   0.000  0.00  0.00    +0.000 A 
ATOM     17  N   UNL     1       4.396  -1.475   0.000  0.00  0.00    +0.000 N 
ATOM     18  C   UNL     1       3.698  -1.915   0.000  0.00  0.00    +0.000 A 
ATOM     19  C   UNL     1       2.760  -1.395   0.000  0.00  0.00    +0.000 C 
ATOM     20  C   UNL     1       2.348  -0.680   0.000  0.00  0.00    +0.000 C 
ATOM     21  N   UNL     1       2.875  -0.046   0.000  0.00  0.00    +0.000 N 
ATOM     22 FE   UNL     1       4.350   0.000   0.000  0.00  0.00    +0.000 Fe
ATOM     23  N   UNL     1       4.304   1.475   0.000  0.00  0.00    +0.000 N 
ATOM     24  N   UNL     1       5.824   0.046   0.000  0.00  0.00    +0.000 N 
ATOM     25  C   UNL     1       1.581  -0.375   0.000  0.00  0.00    +0.000 C 
ATOM     26  C   UNL     1       3.901  -2.715   0.000  0.00  0.00    +0.000 A 
ATOM     27  C   UNL     1       4.724  -2.768   0.000  0.00  0.00    +0.000 A 
ENDROOT
BRANCH  12  28
ATOM     28  C   UNL     1       7.816   0.815   0.000  0.00  0.00    +0.000 C 
BRANCH  28  29
ATOM     29  C   UNL     1       7.783   1.639   0.000  0.00  0.00    +0.000 C 
ATOM     30  O   UNL     1       7.053   2.023   0.000  0.00  0.00    +0.000 OA
ATOM     31  O   UNL     1       8.481   2.080   0.000  0.00  0.00    +0.000 OA
ENDBRANCH  28  29
ENDBRANCH  12  28
BRANCH   2  32
ATOM     32  C   UNL     1       0.811   0.416   0.000  0.00  0.00    +0.000 C 
BRANCH  32  33
ATOM     33  C   UNL     1       0.370   1.114   0.000  0.00  0.00    +0.000 C 
ATOM     34  O   UNL     1      -0.454   1.081   0.000  0.00  0.00    +0.000 OA
ATOM     35  O   UNL     1       0.754   1.844   0.000  0.00  0.00    +0.000 OA
ENDBRANCH  32  33
ENDBRANCH   2  32
BRANCH   7  36
ATOM     36  C   UNL     1       5.615   2.833   0.000  0.00  0.00    +0.000 C 
BRANCH  36  37
ATOM     37  C   UNL     1       5.920   3.599   0.000  0.00  0.00    +0.000 C 
ATOM     38  O   UNL     1       5.410   4.247   0.000  0.00  0.00    +0.000 OA
ATOM     39  O   UNL     1       6.737   3.718   0.000  0.00  0.00    +0.000 OA
ENDBRANCH  36  37
ENDBRANCH   7  36
BRANCH  25  40
ATOM     40  C   UNL     1       0.884  -0.815   0.000  0.00  0.00    +0.000 C 
BRANCH  40  41
ATOM     41  C   UNL     1       0.154  -0.431   0.000  0.00  0.00    +0.000 C 
BRANCH  41  42
ATOM     42  C   UNL     1      -0.544  -0.872   0.000  0.00  0.00    +0.000 C 
ATOM     43  O   UNL     1      -0.511  -1.696   0.000  0.00  0.00    +0.000 OA
ATOM     44  O   UNL     1      -1.274  -0.487   0.000  0.00  0.00    +0.000 OA
ENDBRANCH  41  42
ENDBRANCH  40  41
ENDBRANCH  25  40
BRANCH  26  45
ATOM     45  C   UNL     1       3.374  -3.349   0.000  0.00  0.00    +0.000 C 
BRANCH  45  46
ATOM     46  C   UNL     1       3.660  -4.123   0.000  0.00  0.00    +0.000 C 
ATOM     47  O   UNL     1       4.473  -4.263   0.000  0.00  0.00    +0.000 OA
ATOM     48  O   UNL     1       3.132  -4.757   0.000  0.00  0.00    +0.000 OA
ENDBRANCH  45  46
ENDBRANCH  26  45
BRANCH   6  49
ATOM     49  C   UNL     1       3.535   3.466   0.000  0.00  0.00    +0.000 C 
BRANCH  49  50
ATOM     50  C   UNL     1       2.711   3.433   0.000  0.00  0.00    +0.000 C 
BRANCH  50  51
ATOM     51  C   UNL     1       2.270   4.131   0.000  0.00  0.00    +0.000 C 
ATOM     52  O   UNL     1       1.446   4.098   0.000  0.00  0.00    +0.000 OA
ATOM     53  O   UNL     1       2.654   4.861   0.000  0.00  0.00    +0.000 OA
ENDBRANCH  50  51
ENDBRANCH  49  50
ENDBRANCH   6  49
BRANCH  27  54
ATOM     54  C   UNL     1       5.165  -3.466   0.000  0.00  0.00    +0.000 C 
BRANCH  54  55
ATOM     55  C   UNL     1       5.989  -3.433   0.000  0.00  0.00    +0.000 C 
BRANCH  55  56
ATOM     56  C   UNL     1       6.373  -2.703   0.000  0.00  0.00    +0.000 C 
ATOM     57  O   UNL     1       5.933  -2.006   0.000  0.00  0.00    +0.000 OA
ATOM     58  O   UNL     1       7.198  -2.671   0.000  0.00  0.00    +0.000 OA
ENDBRANCH  55  56
ENDBRANCH  54  55
ENDBRANCH  27  54
BRANCH  13  59
ATOM     59  C   UNL     1       7.699  -0.976   0.000  0.00  0.00    +0.000 C 
BRANCH  59  60
ATOM     60  C   UNL     1       8.473  -0.690   0.000  0.00  0.00    +0.000 C 
BRANCH  60  61
ATOM     61  C   UNL     1       9.107  -1.218   0.000  0.00  0.00    +0.000 C 
ATOM     62  O   UNL     1       9.881  -0.932   0.000  0.00  0.00    +0.000 OA
ATOM     63  O   UNL     1       8.968  -2.031   0.000  0.00  0.00    +0.000 OA
ENDBRANCH  60  61
ENDBRANCH  59  60
ENDBRANCH  13  59
TORSDOF 20
