REMARK  Name = 
REMARK  13 active torsions:
REMARK  status: ('A' for Active; 'I' for Inactive)
REMARK    1  A    between atoms: C_1  and  O_13
REMARK    2  A    between atoms: C_4  and  O_16
REMARK    3  A    between atoms: C_12  and  C_48
REMARK    4  A    between atoms: O_13  and  C_15
REMARK    5  A    between atoms: O_16  and  C_20
REMARK    6  A    between atoms: C_22  and  N_30
REMARK    7  A    between atoms: N_25  and  O_41
REMARK    8  A    between atoms: C_40  and  O_50
REMARK    9  A    between atoms: O_41  and  C_42
REMARK   10  A    between atoms: C_42  and  O_43
REMARK   11  A    between atoms: O_43  and  C_44
REMARK   12  A    between atoms: C_44  and  C_45
REMARK   13  A    between atoms: C_45  and  O_46
REMARK                            x       y       z     vdW  Elec       q    Type
REMARK                         _______ _______ _______ _____ _____    ______ ____
ROOT
ATOM      1  C   UNL     1       1.429  -0.412   0.000  0.00  0.00    +0.000 C 
ATOM      2  C   UNL     1       0.715  -0.825   0.000  0.00  0.00    +0.000 C 
ATOM      3  C   UNL     1       0.715   0.825   0.000  0.00  0.00    +0.000 C 
ATOM      4  C   UNL     1       0.715  -1.650   0.000  0.00  0.00    +0.000 C 
ATOM      5  C   UNL     1       0.715   1.650   0.000  0.00  0.00    +0.000 C 
ATOM      6  C   UNL     1       0.000  -2.062   0.000  0.00  0.00    +0.000 C 
ATOM      7  C   UNL     1       0.000   2.062   0.000  0.00  0.00    +0.000 C 
ATOM      8  C   UNL     1      -0.715  -1.650   0.000  0.00  0.00    +0.000 C 
ATOM      9  C   UNL     1      -0.715   1.650   0.000  0.00  0.00    +0.000 C 
ATOM     10  O   UNL     1      -0.715  -0.825   0.000  0.00  0.00    +0.000 OA
ATOM     11  C   UNL     1      -0.715   0.825   0.000  0.00  0.00    +0.000 C 
ATOM     12  C   UNL     1      -1.429  -0.412   0.000  0.00  0.00    +0.000 C 
ATOM     13  C   UNL     1       0.000  -0.412   0.000  0.00  0.00    +0.000 C 
ATOM     14  C   UNL     1       1.429   2.062   0.000  0.00  0.00    +0.000 C 
ATOM     15  C   UNL     1       0.000  -2.888   0.000  0.00  0.00    +0.000 C 
ATOM     16  N   UNL     1       0.000   2.888   0.000  0.00  0.00    +0.000 NA
ATOM     17  O   UNL     1      -1.429  -2.062   0.000  0.00  0.00    +0.000 OA
ATOM     18  C   UNL     1      -1.429   2.062   0.000  0.00  0.00    +0.000 C 
ATOM     19  O   UNL     1       0.000   0.412   0.000  0.00  0.00    +0.000 OA
ATOM     20  C   UNL     1      -1.429   0.412   0.000  0.00  0.00    +0.000 C 
ATOM     21  C   UNL     1       1.429   0.412   0.000  0.00  0.00    +0.000 C 
ATOM     22  O   UNL     1      -1.429   1.238   0.000  0.00  0.00    +0.000 OA
ATOM     23  O   UNL     1       1.429   1.238   0.000  0.00  0.00    +0.000 OA
ATOM     24  C   UNL     1      -2.143   0.825   0.000  0.00  0.00    +0.000 C 
ATOM     25  C   UNL     1       2.143   0.825   0.000  0.00  0.00    +0.000 C 
ENDROOT
BRANCH  12  26
ATOM     26  C   UNL     1      -2.143  -0.825   0.000  0.00  0.00    +0.000 C 
ATOM     27  C   UNL     1      -2.858  -0.412   0.000  0.00  0.00    +0.000 C 
ENDBRANCH  12  26
BRANCH   4  28
ATOM     28  O   UNL     1       1.429  -2.062   0.000  0.00  0.00    +0.000 OA
BRANCH  28  29
ATOM     29  C   UNL     1       1.429  -2.888   0.000  0.00  0.00    +0.000 C 
ATOM     30  C   UNL     1       0.714  -3.300   0.000  0.00  0.00    +0.000 C 
ATOM     31  O   UNL     1       2.143  -3.300   0.000  0.00  0.00    +0.000 OA
ATOM     32  C   UNL     1       2.143  -4.125   0.000  0.00  0.00    +0.000 C 
ATOM     33  C   UNL     1       1.429  -4.537   0.000  0.00  0.00    +0.000 C 
ATOM     34  C   UNL     1       2.858  -4.537   0.000  0.00  0.00    +0.000 C 
ATOM     35  O   UNL     1       1.429  -5.362   0.000  0.00  0.00    +0.000 OA
ATOM     36  C   UNL     1       0.714  -4.125   0.000  0.00  0.00    +0.000 C 
ATOM     37  C   UNL     1       0.000  -4.537   0.000  0.00  0.00    +0.000 C 
BRANCH  36  38
ATOM     38  O   UNL     1       0.714  -4.950   0.000  0.00  0.00    +0.000 OA
ATOM     39  C   UNL     1      -0.000  -5.362   0.000  0.00  0.00    +0.000 C 
ENDBRANCH  36  38
ENDBRANCH  28  29
ENDBRANCH   4  28
BRANCH  16  40
ATOM     40  O   UNL     1       0.714   3.300   0.000  0.00  0.00    +0.000 OA
BRANCH  40  41
ATOM     41  C   UNL     1       1.429   2.888   0.000  0.00  0.00    +0.000 C 
BRANCH  41  42
ATOM     42  O   UNL     1       2.143   3.300   0.000  0.00  0.00    +0.000 OA
BRANCH  42  43
ATOM     43  C   UNL     1       2.858   2.888   0.000  0.00  0.00    +0.000 C 
BRANCH  43  44
ATOM     44  C   UNL     1       3.572   3.300   0.000  0.00  0.00    +0.000 C 
BRANCH  44  45
ATOM     45  O   UNL     1       4.287   2.888   0.000  0.00  0.00    +0.000 OA
ATOM     46  C   UNL     1       5.001   3.300   0.000  0.00  0.00    +0.000 C 
ENDBRANCH  44  45
ENDBRANCH  43  44
ENDBRANCH  42  43
ENDBRANCH  41  42
ENDBRANCH  40  41
ENDBRANCH  16  40
BRANCH   1  47
ATOM     47  O   UNL     1       2.143  -0.825   0.000  0.00  0.00    +0.000 OA
BRANCH  47  48
ATOM     48  C   UNL     1       2.858  -0.412   0.000  0.00  0.00    +0.000 C 
ATOM     49  C   UNL     1       3.572  -0.825   0.000  0.00  0.00    +0.000 C 
ATOM     50  O   UNL     1       2.858   0.412   0.000  0.00  0.00    +0.000 OA
ATOM     51  C   UNL     1       4.287  -0.412   0.000  0.00  0.00    +0.000 C 
ATOM     52  O   UNL     1       3.572  -1.650   0.000  0.00  0.00    +0.000 OA
ATOM     53  C   UNL     1       3.572   0.825   0.000  0.00  0.00    +0.000 C 
ATOM     54  C   UNL     1       4.287   0.412   0.000  0.00  0.00    +0.000 C 
ATOM     55  C   UNL     1       3.572   1.650   0.000  0.00  0.00    +0.000 C 
BRANCH  51  56
ATOM     56  N   UNL     1       5.001  -0.825   0.000  0.00  0.00    +0.000 NA
ATOM     57  C   UNL     1       5.716  -0.412   0.000  0.00  0.00    +0.000 C 
ATOM     58  C   UNL     1       5.001  -1.650   0.000  0.00  0.00    +0.000 C 
ENDBRANCH  51  56
ENDBRANCH  47  48
ENDBRANCH   1  47
TORSDOF 13
