REMARK  Name = 
REMARK  4 active torsions:
REMARK  status: ('A' for Active; 'I' for Inactive)
REMARK    1  A    between atoms: C_2  and  C_4
REMARK    2  A    between atoms: C_4  and  C_5
REMARK    3  A    between atoms: C_5  and  C_7
REMARK    4  A    between atoms: C_11  and  C_13
REMARK                            x       y       z     vdW  Elec       q    Type
REMARK                         _______ _______ _______ _____ _____    ______ ____
ROOT
ATOM      1  C   UNL     1       0.442  -0.375   0.000  0.00  0.00    +0.000 C 
ATOM      2  C   UNL     1      -0.043  -1.043   0.000  0.00  0.00    +0.000 C 
ATOM      3  C   UNL     1       0.211  -1.827   0.000  0.00  0.00    +0.000 C 
ATOM      4  O   UNL     1      -0.828  -0.788   0.000  0.00  0.00    +0.000 OA
ATOM      5  C   UNL     1      -0.828   0.037   0.000  0.00  0.00    +0.000 C 
ATOM      6  N   UNL     1      -0.043   0.292   0.000  0.00  0.00    +0.000 NA
ENDROOT
BRANCH   5   7
ATOM      7  C   UNL     1      -1.495   0.522   0.000  0.00  0.00    +0.000 A 
ATOM      8  C   UNL     1      -2.249   0.186   0.000  0.00  0.00    +0.000 A 
ATOM      9  C   UNL     1      -2.917   0.671   0.000  0.00  0.00    +0.000 A 
ATOM     10  C   UNL     1      -2.830   1.492   0.000  0.00  0.00    +0.000 A 
ATOM     11  C   UNL     1      -2.077   1.827   0.000  0.00  0.00    +0.000 A 
ATOM     12  C   UNL     1      -1.409   1.343   0.000  0.00  0.00    +0.000 A 
ATOM     13  O   UNL     1      -0.655   1.678   0.000  0.00  0.00    +0.000 OA
ENDBRANCH   5   7
BRANCH   1  14
ATOM     14  C   UNL     1       1.266  -0.375   0.000  0.00  0.00    +0.000 C 
ATOM     15  O   UNL     1       1.679   0.339   0.000  0.00  0.00    +0.000 OA
BRANCH  14  16
ATOM     16  C   UNL     1       1.679  -1.090   0.000  0.00  0.00    +0.000 C 
BRANCH  16  18
ATOM     17  O   UNL     1       2.917  -1.804   0.000  0.00  0.00    +0.000 OA
ATOM     18  C   UNL     1       2.504  -1.090   0.000  0.00  0.00    +0.000 C 
ATOM     19  O   UNL     1       2.917  -0.375   0.000  0.00  0.00    +0.000 OA
ENDBRANCH  16  18
ENDBRANCH  14  16
ENDBRANCH   1  14
TORSDOF 4
