REMARK  Name = 
REMARK  28 active torsions:
REMARK  status: ('A' for Active; 'I' for Inactive)
REMARK    1  A    between atoms: C_3  and  C_4
REMARK    2  A    between atoms: C_4  and  C_5
REMARK    3  A    between atoms: C_5  and  C_6
REMARK    4  A    between atoms: C_13  and  O_14
REMARK    5  A    between atoms: O_14  and  C_15
REMARK    6  A    between atoms: C_15  and  C_16
REMARK    7  A    between atoms: C_16  and  O_17
REMARK    8  A    between atoms: O_17  and  C_18
REMARK    9  A    between atoms: C_18  and  C_19
REMARK   10  A    between atoms: C_19  and  O_20
REMARK   11  A    between atoms: O_20  and  C_21
REMARK   12  A    between atoms: C_21  and  C_22
REMARK   13  A    between atoms: C_22  and  O_23
REMARK   14  A    between atoms: C_25  and  O_26
REMARK   15  A    between atoms: O_26  and  C_27
REMARK   16  A    between atoms: C_27  and  C_28
REMARK   17  A    between atoms: C_28  and  O_29
REMARK   18  A    between atoms: O_29  and  C_30
REMARK   19  A    between atoms: C_30  and  C_31
REMARK   20  A    between atoms: C_31  and  O_32
REMARK   21  A    between atoms: O_32  and  C_33
REMARK   22  A    between atoms: C_33  and  C_34
REMARK   23  A    between atoms: C_34  and  O_35
REMARK   24  A    between atoms: C_51  and  C_52
REMARK   25  A    between atoms: C_54  and  C_55
REMARK   26  A    between atoms: C_57  and  C_58
REMARK   27  A    between atoms: C_58  and  C_59
REMARK   28  A    between atoms: C_59  and  C_60
REMARK                            x       y       z     vdW  Elec       q    Type
REMARK                         _______ _______ _______ _____ _____    ______ ____
ROOT
ATOM      1 LU   UNL     1       4.008   0.112   0.000  0.00  0.00    +0.000 Lu
ENDROOT
TORSDOF 0
REMARK  Name = 
REMARK  28 active torsions:
REMARK  status: ('A' for Active; 'I' for Inactive)
REMARK    1  A    between atoms: C_3  and  C_4
REMARK    2  A    between atoms: C_4  and  C_5
REMARK    3  A    between atoms: C_5  and  C_6
REMARK    4  A    between atoms: C_13  and  O_14
REMARK    5  A    between atoms: O_14  and  C_15
REMARK    6  A    between atoms: C_15  and  C_16
REMARK    7  A    between atoms: C_16  and  O_17
REMARK    8  A    between atoms: O_17  and  C_18
REMARK    9  A    between atoms: C_18  and  C_19
REMARK   10  A    between atoms: C_19  and  O_20
REMARK   11  A    between atoms: O_20  and  C_21
REMARK   12  A    between atoms: C_21  and  C_22
REMARK   13  A    between atoms: C_22  and  O_23
REMARK   14  A    between atoms: C_25  and  O_26
REMARK   15  A    between atoms: O_26  and  C_27
REMARK   16  A    between atoms: C_27  and  C_28
REMARK   17  A    between atoms: C_28  and  O_29
REMARK   18  A    between atoms: O_29  and  C_30
REMARK   19  A    between atoms: C_30  and  C_31
REMARK   20  A    between atoms: C_31  and  O_32
REMARK   21  A    between atoms: O_32  and  C_33
REMARK   22  A    between atoms: C_33  and  C_34
REMARK   23  A    between atoms: C_34  and  O_35
REMARK   24  A    between atoms: C_51  and  C_52
REMARK   25  A    between atoms: C_54  and  C_55
REMARK   26  A    between atoms: C_57  and  C_58
REMARK   27  A    between atoms: C_58  and  C_59
REMARK   28  A    between atoms: C_59  and  C_60
REMARK                            x       y       z     vdW  Elec       q    Type
REMARK                         _______ _______ _______ _____ _____    ______ ____
ROOT
ATOM      1  C   UNL     1       4.073  -3.067   0.000  0.00  0.00    +0.000 C 
ATOM      2  C   UNL     1       3.262  -2.896   0.000  0.00  0.00    +0.000 C 
ATOM      3  C   UNL     1       3.176  -2.070   0.000  0.00  0.00    +0.000 C 
ATOM      4  C   UNL     1       2.447  -1.653   0.000  0.00  0.00    +0.000 C 
ATOM      5  N   UNL     1       2.447  -0.827   0.000  0.00  0.00    +0.000 NA
ATOM      6  C   UNL     1       1.733  -0.409   0.000  0.00  0.00    +0.000 A 
ATOM      7  C   UNL     1       1.026  -0.826   0.000  0.00  0.00    +0.000 A 
ATOM      8  C   UNL     1       0.314  -0.412   0.000  0.00  0.00    +0.000 A 
ATOM      9  C   UNL     1       0.314   0.403   0.000  0.00  0.00    +0.000 A 
ATOM     10  C   UNL     1       1.019   0.814   0.000  0.00  0.00    +0.000 A 
ATOM     11  C   UNL     1       1.733   0.409   0.000  0.00  0.00    +0.000 A 
ATOM     12  N   UNL     1       2.447   0.827   0.000  0.00  0.00    +0.000 NA
ATOM     13  C   UNL     1       2.447   1.653   0.000  0.00  0.00    +0.000 C 
ATOM     14  C   UNL     1       3.172   2.065   0.000  0.00  0.00    +0.000 C 
ATOM     15  N   UNL     1       3.926   1.734   0.000  0.00  0.00    +0.000 NA
ATOM     16  C   UNL     1       4.481   2.347   0.000  0.00  0.00    +0.000 C 
ATOM     17  C   UNL     1       5.300   2.261   0.000  0.00  0.00    +0.000 C 
ATOM     18  C   UNL     1       6.073   0.746   0.000  0.00  0.00    +0.000 A 
ATOM     19  N   UNL     1       5.664   0.023   0.000  0.00  0.00    +0.000 NA
ATOM     20  C   UNL     1       5.967  -0.550   0.000  0.00  0.00    +0.000 A 
ATOM     21  C   UNL     1       5.304  -2.261   0.000  0.00  0.00    +0.000 C 
ATOM     22  C   UNL     1       4.486  -2.347   0.000  0.00  0.00    +0.000 C 
ATOM     23  N   UNL     1       3.931  -1.734   0.000  0.00  0.00    +0.000 NA
ATOM     24  C   UNL     1       6.852  -0.352   0.000  0.00  0.00    +0.000 A 
ATOM     25  C   UNL     1       6.852   0.469   0.000  0.00  0.00    +0.000 A 
ATOM     26  C   UNL     1       4.069   3.067   0.000  0.00  0.00    +0.000 C 
ATOM     27  C   UNL     1       3.257   2.896   0.000  0.00  0.00    +0.000 C 
ATOM     28  C   UNL     1       2.647   3.449   0.000  0.00  0.00    +0.000 C 
ATOM     29  C   UNL     1       2.651  -3.449   0.000  0.00  0.00    +0.000 C 
ENDROOT
BRANCH  25  30
ATOM     30  C   UNL     1       7.529   0.941   0.000  0.00  0.00    +0.000 C 
ATOM     31  C   UNL     1       7.462   1.762   0.000  0.00  0.00    +0.000 C 
ENDBRANCH  25  30
BRANCH  24  32
ATOM     32  C   UNL     1       7.486  -0.856   0.000  0.00  0.00    +0.000 C 
ATOM     33  C   UNL     1       7.379  -1.672   0.000  0.00  0.00    +0.000 C 
ENDBRANCH  24  32
BRANCH   8  34
ATOM     34  O   UNL     1      -0.395  -0.834   0.000  0.00  0.00    +0.000 OA
BRANCH  34  35
ATOM     35  C   UNL     1      -1.110  -0.422   0.000  0.00  0.00    +0.000 C 
BRANCH  35  36
ATOM     36  C   UNL     1      -1.821  -0.839   0.000  0.00  0.00    +0.000 C 
BRANCH  36  37
ATOM     37  O   UNL     1      -2.536  -0.426   0.000  0.00  0.00    +0.000 OA
BRANCH  37  38
ATOM     38  C   UNL     1      -3.247  -0.839   0.000  0.00  0.00    +0.000 C 
BRANCH  38  39
ATOM     39  C   UNL     1      -3.962  -0.422   0.000  0.00  0.00    +0.000 C 
BRANCH  39  40
ATOM     40  O   UNL     1      -4.673  -0.834   0.000  0.00  0.00    +0.000 OA
BRANCH  40  41
ATOM     41  C   UNL     1      -5.388  -0.422   0.000  0.00  0.00    +0.000 C 
BRANCH  41  42
ATOM     42  C   UNL     1      -6.099  -0.839   0.000  0.00  0.00    +0.000 C 
BRANCH  42  43
ATOM     43  O   UNL     1      -6.814  -0.426   0.000  0.00  0.00    +0.000 OA
ATOM     44  C   UNL     1      -7.524  -0.839   0.000  0.00  0.00    +0.000 C 
ENDBRANCH  42  43
ENDBRANCH  41  42
ENDBRANCH  40  41
ENDBRANCH  39  40
ENDBRANCH  38  39
ENDBRANCH  37  38
ENDBRANCH  36  37
ENDBRANCH  35  36
ENDBRANCH  34  35
ENDBRANCH   8  34
BRANCH   1  45
ATOM     45  C   UNL     1       4.408  -3.819   0.000  0.00  0.00    +0.000 C 
BRANCH  45  46
ATOM     46  C   UNL     1       3.924  -4.489   0.000  0.00  0.00    +0.000 C 
BRANCH  46  48
ATOM     47  O   UNL     1       3.776  -5.910   0.000  0.00  0.00    +0.000 OA
ATOM     48  C   UNL     1       4.260  -5.241   0.000  0.00  0.00    +0.000 C 
ENDBRANCH  46  48
ENDBRANCH  45  46
ENDBRANCH   1  45
BRANCH  26  49
ATOM     49  C   UNL     1       4.404   3.819   0.000  0.00  0.00    +0.000 C 
BRANCH  49  50
ATOM     50  C   UNL     1       3.920   4.488   0.000  0.00  0.00    +0.000 C 
BRANCH  50  51
ATOM     51  C   UNL     1       4.255   5.241   0.000  0.00  0.00    +0.000 C 
ATOM     52  O   UNL     1       3.771   5.910   0.000  0.00  0.00    +0.000 OA
ENDBRANCH  50  51
ENDBRANCH  49  50
ENDBRANCH  26  49
BRANCH   9  53
ATOM     53  O   UNL     1      -0.400   0.824   0.000  0.00  0.00    +0.000 OA
BRANCH  53  54
ATOM     54  C   UNL     1      -1.115   0.412   0.000  0.00  0.00    +0.000 C 
BRANCH  54  55
ATOM     55  C   UNL     1      -1.826   0.829   0.000  0.00  0.00    +0.000 C 
BRANCH  55  56
ATOM     56  O   UNL     1      -2.541   0.417   0.000  0.00  0.00    +0.000 OA
BRANCH  56  57
ATOM     57  C   UNL     1      -3.252   0.829   0.000  0.00  0.00    +0.000 C 
BRANCH  57  58
ATOM     58  C   UNL     1      -3.967   0.412   0.000  0.00  0.00    +0.000 C 
BRANCH  58  59
ATOM     59  O   UNL     1      -4.677   0.824   0.000  0.00  0.00    +0.000 OA
BRANCH  59  60
ATOM     60  C   UNL     1      -5.393   0.412   0.000  0.00  0.00    +0.000 C 
BRANCH  60  61
ATOM     61  C   UNL     1      -6.103   0.829   0.000  0.00  0.00    +0.000 C 
BRANCH  61  62
ATOM     62  O   UNL     1      -6.819   0.417   0.000  0.00  0.00    +0.000 OA
ATOM     63  C   UNL     1      -7.529   0.829   0.000  0.00  0.00    +0.000 C 
ENDBRANCH  61  62
ENDBRANCH  60  61
ENDBRANCH  59  60
ENDBRANCH  58  59
ENDBRANCH  57  58
ENDBRANCH  56  57
ENDBRANCH  55  56
ENDBRANCH  54  55
ENDBRANCH  53  54
ENDBRANCH   9  53
TORSDOF 28
REMARK  Name = 
REMARK  28 active torsions:
REMARK  status: ('A' for Active; 'I' for Inactive)
REMARK    1  A    between atoms: C_3  and  C_4
REMARK    2  A    between atoms: C_4  and  C_5
REMARK    3  A    between atoms: C_5  and  C_6
REMARK    4  A    between atoms: C_13  and  O_14
REMARK    5  A    between atoms: O_14  and  C_15
REMARK    6  A    between atoms: C_15  and  C_16
REMARK    7  A    between atoms: C_16  and  O_17
REMARK    8  A    between atoms: O_17  and  C_18
REMARK    9  A    between atoms: C_18  and  C_19
REMARK   10  A    between atoms: C_19  and  O_20
REMARK   11  A    between atoms: O_20  and  C_21
REMARK   12  A    between atoms: C_21  and  C_22
REMARK   13  A    between atoms: C_22  and  O_23
REMARK   14  A    between atoms: C_25  and  O_26
REMARK   15  A    between atoms: O_26  and  C_27
REMARK   16  A    between atoms: C_27  and  C_28
REMARK   17  A    between atoms: C_28  and  O_29
REMARK   18  A    between atoms: O_29  and  C_30
REMARK   19  A    between atoms: C_30  and  C_31
REMARK   20  A    between atoms: C_31  and  O_32
REMARK   21  A    between atoms: O_32  and  C_33
REMARK   22  A    between atoms: C_33  and  C_34
REMARK   23  A    between atoms: C_34  and  O_35
REMARK   24  A    between atoms: C_51  and  C_52
REMARK   25  A    between atoms: C_54  and  C_55
REMARK   26  A    between atoms: C_57  and  C_58
REMARK   27  A    between atoms: C_58  and  C_59
REMARK   28  A    between atoms: C_59  and  C_60
REMARK                            x       y       z     vdW  Elec       q    Type
REMARK                         _______ _______ _______ _____ _____    ______ ____
ROOT
ATOM      1  C   UNL     1      -0.688   4.447   0.000  0.00  0.00    +0.000 C 
ATOM      2  C   UNL     1      -1.502   4.917   0.000  0.00  0.00    +0.000 C 
ATOM      3  O   UNL     1      -1.502   5.857   0.000  0.00  0.00    +0.000 OA
ATOM      4  O   UNL     1      -2.316   4.447   0.000  0.00  0.00    +0.000 OA
ENDROOT
TORSDOF 0
REMARK  Name = 
REMARK  28 active torsions:
REMARK  status: ('A' for Active; 'I' for Inactive)
REMARK    1  A    between atoms: C_3  and  C_4
REMARK    2  A    between atoms: C_4  and  C_5
REMARK    3  A    between atoms: C_5  and  C_6
REMARK    4  A    between atoms: C_13  and  O_14
REMARK    5  A    between atoms: O_14  and  C_15
REMARK    6  A    between atoms: C_15  and  C_16
REMARK    7  A    between atoms: C_16  and  O_17
REMARK    8  A    between atoms: O_17  and  C_18
REMARK    9  A    between atoms: C_18  and  C_19
REMARK   10  A    between atoms: C_19  and  O_20
REMARK   11  A    between atoms: O_20  and  C_21
REMARK   12  A    between atoms: C_21  and  C_22
REMARK   13  A    between atoms: C_22  and  O_23
REMARK   14  A    between atoms: C_25  and  O_26
REMARK   15  A    between atoms: O_26  and  C_27
REMARK   16  A    between atoms: C_27  and  C_28
REMARK   17  A    between atoms: C_28  and  O_29
REMARK   18  A    between atoms: O_29  and  C_30
REMARK   19  A    between atoms: C_30  and  C_31
REMARK   20  A    between atoms: C_31  and  O_32
REMARK   21  A    between atoms: O_32  and  C_33
REMARK   22  A    between atoms: C_33  and  C_34
REMARK   23  A    between atoms: C_34  and  O_35
REMARK   24  A    between atoms: C_51  and  C_52
REMARK   25  A    between atoms: C_54  and  C_55
REMARK   26  A    between atoms: C_57  and  C_58
REMARK   27  A    between atoms: C_58  and  C_59
REMARK   28  A    between atoms: C_59  and  C_60
REMARK                            x       y       z     vdW  Elec       q    Type
REMARK                         _______ _______ _______ _____ _____    ______ ____
ROOT
ATOM      1  C   UNL     1      -0.688   4.447   0.000  0.00  0.00    +0.000 C 
ATOM      2  C   UNL     1      -1.502   4.917   0.000  0.00  0.00    +0.000 C 
ATOM      3  O   UNL     1      -1.502   5.857   0.000  0.00  0.00    +0.000 OA
ATOM      4  O   UNL     1      -2.316   4.447   0.000  0.00  0.00    +0.000 OA
ENDROOT
TORSDOF 0
