REMARK  Name = 
REMARK  1 active torsions:
REMARK  status: ('A' for Active; 'I' for Inactive)
REMARK    1  A    between atoms: C_2  and  C_7
REMARK                            x       y       z     vdW  Elec       q    Type
REMARK                         _______ _______ _______ _____ _____    ______ ____
ROOT
ATOM      1  N   UNL     1      -0.171   1.579   0.000  0.00  0.00    +0.000 NA
ATOM      2  C   UNL     1       0.412   0.996   0.000  0.00  0.00    +0.000 C 
ATOM      3  C   UNL     1       0.996   0.412   0.000  0.00  0.00    +0.000 C 
ATOM      4  C   UNL     1       0.412  -0.171   0.000  0.00  0.00    +0.000 C 
ATOM      5  F   UNL     1       0.412  -0.996   0.000  0.00  0.00    +0.000 F 
ATOM      6  C   UNL     1      -0.171   0.412   0.000  0.00  0.00    +0.000 C 
ENDROOT
BRANCH   2   7
ATOM      7  C   UNL     1       0.996   1.579   0.000  0.00  0.00    +0.000 C 
ATOM      8  O   UNL     1       0.782   2.376   0.000  0.00  0.00    +0.000 OA
ATOM      9  O   UNL     1       1.793   1.366   0.000  0.00  0.00    +0.000 OA
ENDBRANCH   2   7
TORSDOF 1
