REMARK  Name = 
REMARK  12 active torsions:
REMARK  status: ('A' for Active; 'I' for Inactive)
REMARK    1  A    between atoms: O_1  and  C_16
REMARK    2  A    between atoms: O_1  and  C_22
REMARK    3  A    between atoms: O_3  and  C_19
REMARK    4  A    between atoms: O_3  and  C_26
REMARK    5  A    between atoms: O_5  and  C_23
REMARK    6  A    between atoms: O_5  and  C_32
REMARK    7  A    between atoms: O_8  and  C_27
REMARK    8  A    between atoms: N_15  and  C_17
REMARK    9  A    between atoms: C_28  and  C_37
REMARK   10  A    between atoms: C_32  and  C_40
REMARK   11  A    between atoms: C_37  and  C_43
REMARK   12  A    between atoms: C_40  and  C_44
REMARK                            x       y       z     vdW  Elec       q    Type
REMARK                         _______ _______ _______ _____ _____    ______ ____
ROOT
ATOM      1  O   UNL     1      -0.060  -1.297   0.000  0.00  0.00    +0.000 OA
ATOM      2  O   UNL     1      -1.665   0.277   0.000  0.00  0.00    +0.000 OA
ATOM      3  C   UNL     1       0.660  -0.068   0.000  0.00  0.00    +0.000 C 
ATOM      4  C   UNL     1      -0.060   0.352   0.000  0.00  0.00    +0.000 C 
ATOM      5  C   UNL     1      -0.765  -0.068   0.000  0.00  0.00    +0.000 C 
ATOM      6  C   UNL     1      -0.765  -0.892   0.000  0.00  0.00    +0.000 C 
ATOM      7  C   UNL     1       0.660  -0.892   0.000  0.00  0.00    +0.000 C 
ATOM      8  C   UNL     1       1.365  -1.297   0.000  0.00  0.00    +0.000 C 
ENDROOT
BRANCH   4   9
ATOM      9  N   UNL     1      -0.060   1.177   0.000  0.00  0.00    +0.000 NA
ATOM     10  C   UNL     1       0.660   1.597   0.000  0.00  0.00    +0.000 C 
ATOM     11  C   UNL     1      -0.765   1.597   0.000  0.00  0.00    +0.000 C 
ENDBRANCH   4   9
BRANCH   6  12
ATOM     12  O   UNL     1      -2.025  -1.357   0.000  0.00  0.00    +0.000 OA
BRANCH  12  17
ATOM     13  O   UNL     1      -3.240  -2.452   0.000  0.00  0.00    +0.000 OA
ATOM     14  O   UNL     1      -6.060  -2.452   0.000  0.00  0.00    +0.000 OA
ATOM     15  O   UNL     1      -4.620   2.452   0.000  0.00  0.00    +0.000 OA
ATOM     16  O   UNL     1      -5.340  -1.237   0.000  0.00  0.00    +0.000 OA
ATOM     17  C   UNL     1      -3.210  -0.802   0.000  0.00  0.00    +0.000 C 
ATOM     18  C   UNL     1      -3.885  -1.237   0.000  0.00  0.00    +0.000 C 
ATOM     19  C   UNL     1      -3.210   0.052   0.000  0.00  0.00    +0.000 C 
ATOM     20  C   UNL     1      -3.885  -2.047   0.000  0.00  0.00    +0.000 C 
ATOM     21  C   UNL     1      -3.915   0.442   0.000  0.00  0.00    +0.000 C 
ATOM     22  C   UNL     1      -3.915   1.237   0.000  0.00  0.00    +0.000 C 
ATOM     23  C   UNL     1      -4.620  -2.452   0.000  0.00  0.00    +0.000 C 
ATOM     24  C   UNL     1      -4.620   1.643   0.000  0.00  0.00    +0.000 C 
ATOM     25  C   UNL     1      -5.340  -2.047   0.000  0.00  0.00    +0.000 C 
ATOM     26  C   UNL     1      -3.300   1.732   0.000  0.00  0.00    +0.000 C 
ATOM     27  C   UNL     1      -5.340   1.237   0.000  0.00  0.00    +0.000 C 
ATOM     28  C   UNL     1      -6.765  -2.047   0.000  0.00  0.00    +0.000 C 
ATOM     29  C   UNL     1      -5.340   0.442   0.000  0.00  0.00    +0.000 C 
ATOM     30  C   UNL     1      -6.765  -1.237   0.000  0.00  0.00    +0.000 C 
ATOM     31  C   UNL     1      -6.060   0.052   0.000  0.00  0.00    +0.000 C 
ATOM     32  C   UNL     1      -6.060  -0.802   0.000  0.00  0.00    +0.000 C 
ATOM     33  C   UNL     1      -7.500  -2.452   0.000  0.00  0.00    +0.000 C 
BRANCH  18  34
ATOM     34  O   UNL     1      -4.590  -0.833   0.000  0.00  0.00    +0.000 OA
ATOM     35  C   UNL     1      -4.590   0.022   0.000  0.00  0.00    +0.000 C 
ENDBRANCH  18  34
BRANCH  19  36
ATOM     36  C   UNL     1      -2.520   0.442   0.000  0.00  0.00    +0.000 C 
BRANCH  36  38
ATOM     37  O   UNL     1      -1.800   1.643   0.000  0.00  0.00    +0.000 OA
ATOM     38  C   UNL     1      -2.520   1.282   0.000  0.00  0.00    +0.000 C 
ENDBRANCH  36  38
ENDBRANCH  19  36
ENDBRANCH  12  17
ENDBRANCH   6  12
BRANCH   3  39
ATOM     39  O   UNL     1       1.365   0.352   0.000  0.00  0.00    +0.000 OA
BRANCH  39  43
ATOM     40  O   UNL     1       3.195  -0.113   0.000  0.00  0.00    +0.000 OA
ATOM     41  O   UNL     1       2.790   2.272   0.000  0.00  0.00    +0.000 OA
ATOM     42  C   UNL     1       3.195   1.538   0.000  0.00  0.00    +0.000 C 
ATOM     43  C   UNL     1       2.490   0.307   0.000  0.00  0.00    +0.000 C 
ATOM     44  C   UNL     1       3.930   1.133   0.000  0.00  0.00    +0.000 C 
ATOM     45  C   UNL     1       2.490   1.133   0.000  0.00  0.00    +0.000 C 
ATOM     46  C   UNL     1       3.930   0.307   0.000  0.00  0.00    +0.000 C 
ATOM     47  C   UNL     1       3.615   2.272   0.000  0.00  0.00    +0.000 C 
ATOM     48  C   UNL     1       4.650  -0.113   0.000  0.00  0.00    +0.000 C 
BRANCH  44  49
ATOM     49  O   UNL     1       4.650   1.538   0.000  0.00  0.00    +0.000 OA
BRANCH  49  51
ATOM     50  O   UNL     1       5.355   0.307   0.000  0.00  0.00    +0.000 OA
ATOM     51  C   UNL     1       5.355   1.133   0.000  0.00  0.00    +0.000 C 
BRANCH  51  52
ATOM     52  C   UNL     1       6.075   1.538   0.000  0.00  0.00    +0.000 C 
BRANCH  52  53
ATOM     53  C   UNL     1       6.780   1.133   0.000  0.00  0.00    +0.000 C 
ATOM     54  C   UNL     1       7.500   1.538   0.000  0.00  0.00    +0.000 C 
ATOM     55  C   UNL     1       6.780   0.307   0.000  0.00  0.00    +0.000 C 
ENDBRANCH  52  53
ENDBRANCH  51  52
ENDBRANCH  49  51
ENDBRANCH  44  49
ENDBRANCH  39  43
ENDBRANCH   3  39
TORSDOF 12
