REMARK  Name = 
REMARK  6 active torsions:
REMARK  status: ('A' for Active; 'I' for Inactive)
REMARK    1  A    between atoms: C_1  and  C_2
REMARK    2  A    between atoms: N_3  and  C_4
REMARK    3  A    between atoms: C_4  and  C_5
REMARK    4  A    between atoms: C_5  and  C_6
REMARK    5  A    between atoms: C_6  and  N_14
REMARK    6  A    between atoms: N_17  and  C_20
REMARK                            x       y       z     vdW  Elec       q    Type
REMARK                         _______ _______ _______ _____ _____    ______ ____
ROOT
ATOM      1  C   UNL     1       0.003   1.041   0.000  0.00  0.00    +0.000 C 
ENDROOT
BRANCH   1   2
ATOM      2  N   UNL     1       0.717   0.627   0.000  0.00  0.00    +0.000 NA
ATOM      3  C   UNL     1       0.714  -0.199   0.000  0.00  0.00    +0.000 C 
ATOM      4  C   UNL     1       1.424  -0.612   0.000  0.00  0.00    +0.000 C 
ATOM      5  N   UNL     1       2.142  -0.204   0.000  0.00  0.00    +0.000 N 
ATOM      6  C   UNL     1       2.144   0.622   0.000  0.00  0.00    +0.000 C 
ATOM      7  C   UNL     1       1.430   1.040   0.000  0.00  0.00    +0.000 C 
BRANCH   5   8
ATOM      8  C   UNL     1       2.855  -0.621   0.000  0.00  0.00    +0.000 A 
ATOM      9  C   UNL     1       2.848  -1.445   0.000  0.00  0.00    +0.000 A 
ATOM     10  C   UNL     1       3.561  -1.861   0.000  0.00  0.00    +0.000 A 
ATOM     11  C   UNL     1       4.280  -1.452   0.000  0.00  0.00    +0.000 A 
ATOM     12  C   UNL     1       4.282  -0.621   0.000  0.00  0.00    +0.000 A 
ATOM     13  C   UNL     1       3.568  -0.207   0.000  0.00  0.00    +0.000 A 
ATOM     14  F   UNL     1       4.995  -1.867   0.000  0.00  0.00    +0.000 F 
ENDBRANCH   5   8
ENDBRANCH   1   2
BRANCH   1  15
ATOM     15  C   UNL     1      -0.711   0.627   0.000  0.00  0.00    +0.000 C 
BRANCH  15  16
ATOM     16  C   UNL     1      -1.425   1.041   0.000  0.00  0.00    +0.000 C 
ATOM     17  C   UNL     1      -1.425   1.867   0.000  0.00  0.00    +0.000 C 
BRANCH  16  19
ATOM     18  C   UNL     1      -2.853   1.041   0.000  0.00  0.00    +0.000 C 
ATOM     19  N   UNL     1      -2.139   0.627   0.000  0.00  0.00    +0.000 NA
ATOM     20  O   UNL     1      -2.853   1.867   0.000  0.00  0.00    +0.000 OA
BRANCH  18  21
ATOM     21  C   UNL     1      -3.567   0.627   0.000  0.00  0.00    +0.000 A 
ATOM     22  C   UNL     1      -4.281   1.042   0.000  0.00  0.00    +0.000 A 
ATOM     23  N   UNL     1      -4.995   0.629   0.000  0.00  0.00    +0.000 NA
ATOM     24  C   UNL     1      -4.994  -0.197   0.000  0.00  0.00    +0.000 A 
ATOM     25  C   UNL     1      -4.274  -0.608   0.000  0.00  0.00    +0.000 A 
ATOM     26  C   UNL     1      -3.563  -0.193   0.000  0.00  0.00    +0.000 A 
ENDBRANCH  18  21
ENDBRANCH  16  19
ENDBRANCH  15  16
ENDBRANCH   1  15
TORSDOF 6
