REMARK  Name = 
REMARK  8 active torsions:
REMARK  status: ('A' for Active; 'I' for Inactive)
REMARK    1  A    between atoms: N_1  and  CA_5
REMARK    2  A    between atoms: C_2  and  C_3
REMARK    3  A    between atoms: C_3  and  S_23
REMARK    4  A    between atoms: CA_9  and  C_13
REMARK    5  A    between atoms: C_12  and  C_18
REMARK    6  A    between atoms: C_18  and  O_19
REMARK    7  A    between atoms: O_19  and  C_20
REMARK    8  A    between atoms: S_23  and  C_24
REMARK                            x       y       z     vdW  Elec       q    Type
REMARK                         _______ _______ _______ _____ _____    ______ ____
ROOT
ATOM      1  CA  UNL     1      -0.045   0.401   0.000  0.00  0.00    +0.000 C 
ATOM      2  N   UNL     1       0.760  -0.437   0.000  0.00  0.00    +0.000 N 
ATOM      3  C   UNL     1       0.760   0.398   0.000  0.00  0.00    +0.000 C 
ATOM      4  C   UNL     1      -0.045  -0.437   0.000  0.00  0.00    +0.000 C 
ATOM      5  CA  UNL     1       1.477  -0.851   0.000  0.00  0.00    +0.000 C 
ATOM      6  S   UNL     1       1.477   0.809   0.000  0.00  0.00    +0.000 S 
ATOM      7  O   UNL     1      -0.753  -0.894   0.000  0.00  0.00    +0.000 OA
ATOM      8  C   UNL     1       2.192  -0.437   0.000  0.00  0.00    +0.000 C 
ATOM      9  C   UNL     1       2.192   0.398   0.000  0.00  0.00    +0.000 C 
ENDROOT
BRANCH   1  10
ATOM     10  N   UNL     1      -0.757   0.818   0.000  0.00  0.00    +0.000 NA
ATOM     11  C   UNL     1      -1.467   0.414   0.000  0.00  0.00    +0.000 C 
ATOM     12  O   UNL     1      -1.461  -0.450   0.000  0.00  0.00    +0.000 OA
BRANCH  11  13
ATOM     13  C   UNL     1      -2.198   0.848   0.000  0.00  0.00    +0.000 C 
BRANCH  13  14
ATOM     14  S   UNL     1      -2.918   0.445   0.000  0.00  0.00    +0.000 S 
BRANCH  14  15
ATOM     15  C   UNL     1      -3.627   0.867   0.000  0.00  0.00    +0.000 A 
ATOM     16  C   UNL     1      -3.612   1.691   0.000  0.00  0.00    +0.000 A 
ATOM     17  C   UNL     1      -4.321   2.113   0.000  0.00  0.00    +0.000 A 
ATOM     18  N   UNL     1      -5.041   1.710   0.000  0.00  0.00    +0.000 NA
ATOM     19  C   UNL     1      -5.049   0.880   0.000  0.00  0.00    +0.000 A 
ATOM     20  C   UNL     1      -4.340   0.463   0.000  0.00  0.00    +0.000 A 
ENDBRANCH  14  15
ENDBRANCH  13  14
ENDBRANCH  11  13
ENDBRANCH   1  10
BRANCH   5  21
ATOM     21  C   UNL     1       1.477  -1.673   0.000  0.00  0.00    +0.000 C 
ATOM     22  O   UNL     1       0.780  -2.113   0.000  0.00  0.00    +0.000 OA
ATOM     23  OXT UNL     1       2.172  -2.093   0.000  0.00  0.00    +0.000 OA
ENDBRANCH   5  21
BRANCH   8  24
ATOM     24  C   UNL     1       2.906  -0.849   0.000  0.00  0.00    +0.000 C 
BRANCH  24  25
ATOM     25  O   UNL     1       3.620  -0.436   0.000  0.00  0.00    +0.000 OA
BRANCH  25  26
ATOM     26  C   UNL     1       4.335  -0.848   0.000  0.00  0.00    +0.000 C 
ATOM     27  C   UNL     1       5.049  -0.435   0.000  0.00  0.00    +0.000 C 
ATOM     28  O   UNL     1       4.336  -1.673   0.000  0.00  0.00    +0.000 OA
ENDBRANCH  25  26
ENDBRANCH  24  25
ENDBRANCH   8  24
TORSDOF 8
