REMARK  Name = 
REMARK  4 active torsions:
REMARK  status: ('A' for Active; 'I' for Inactive)
REMARK    1  A    between atoms: C_4  and  C_22
REMARK    2  A    between atoms: C_6  and  C_7
REMARK    3  A    between atoms: N_10  and  C_13
REMARK    4  A    between atoms: C_26  and  C_28
REMARK                            x       y       z     vdW  Elec       q    Type
REMARK                         _______ _______ _______ _____ _____    ______ ____
ROOT
ATOM      1  C   UNL     1       2.167  -3.942   0.000  0.00  0.00    +0.000 C 
ATOM      2  N   UNL     1       1.382  -4.197   0.000  0.00  0.00    +0.000 N 
ATOM      3  C   UNL     1       1.127  -4.982   0.000  0.00  0.00    +0.000 A 
ATOM      4  C   UNL     1       0.302  -4.982   0.000  0.00  0.00    +0.000 A 
ATOM      5  N   UNL     1       0.047  -4.197   0.000  0.00  0.00    +0.000 NA
ATOM      6  C   UNL     1       0.715  -3.712   0.000  0.00  0.00    +0.000 A 
ENDROOT
BRANCH   4   7
ATOM      7  C   UNL     1      -0.183  -5.649   0.000  0.00  0.00    +0.000 A 
ATOM      8  C   UNL     1       0.153  -6.403   0.000  0.00  0.00    +0.000 A 
ATOM      9  C   UNL     1      -0.332  -7.071   0.000  0.00  0.00    +0.000 A 
ATOM     10  C   UNL     1      -1.153  -6.984   0.000  0.00  0.00    +0.000 A 
ATOM     11  C   UNL     1      -1.488  -6.231   0.000  0.00  0.00    +0.000 A 
ATOM     12  C   UNL     1      -1.003  -5.563   0.000  0.00  0.00    +0.000 A 
ATOM     13  F   UNL     1      -1.638  -7.652   0.000  0.00  0.00    +0.000 F 
BRANCH  11  14
ATOM     14  C   UNL     1      -2.309  -6.144   0.000  0.00  0.00    +0.000 C 
ATOM     15  F   UNL     1      -3.129  -6.058   0.000  0.00  0.00    +0.000 F 
ATOM     16  F   UNL     1      -2.223  -5.324   0.000  0.00  0.00    +0.000 F 
ATOM     17  F   UNL     1      -2.395  -6.965   0.000  0.00  0.00    +0.000 F 
ENDBRANCH  11  14
ENDBRANCH   4   7
BRANCH   6  18
ATOM     18  C   UNL     1       0.715  -2.888   0.000  0.00  0.00    +0.000 C 
ATOM     19  C   UNL     1       0.000  -2.475   0.000  0.00  0.00    +0.000 C 
ATOM     20  C   UNL     1       0.000  -1.650   0.000  0.00  0.00    +0.000 C 
ATOM     21  N   UNL     1       0.715  -1.238   0.000  0.00  0.00    +0.000 N 
ATOM     22  C   UNL     1       1.429  -1.650   0.000  0.00  0.00    +0.000 C 
ATOM     23  C   UNL     1       1.429  -2.475   0.000  0.00  0.00    +0.000 C 
BRANCH  21  24
ATOM     24  C   UNL     1       0.715  -0.412   0.000  0.00  0.00    +0.000 A 
ATOM     25  C   UNL     1       0.000   0.000   0.000  0.00  0.00    +0.000 A 
ATOM     26  C   UNL     1      -0.785  -0.255   0.000  0.00  0.00    +0.000 A 
ATOM     27  N   UNL     1      -1.270   0.412   0.000  0.00  0.00    +0.000 NA
ATOM     28  N   UNL     1      -0.785   1.080   0.000  0.00  0.00    +0.000 NA
ATOM     29  C   UNL     1       0.000   0.825   0.000  0.00  0.00    +0.000 A 
ATOM     30  N   UNL     1       0.715   1.238   0.000  0.00  0.00    +0.000 NA
ATOM     31  C   UNL     1       1.429   0.825   0.000  0.00  0.00    +0.000 A 
ATOM     32  N   UNL     1       1.429   0.000   0.000  0.00  0.00    +0.000 NA
ENDBRANCH  21  24
ENDBRANCH   6  18
TORSDOF 4
