REMARK  Name = 
REMARK  1 active torsions:
REMARK  status: ('A' for Active; 'I' for Inactive)
REMARK    1  A    between atoms: C_2  and  C_5
REMARK                            x       y       z     vdW  Elec       q    Type
REMARK                         _______ _______ _______ _____ _____    ______ ____
ROOT
ATOM      1  C   UNL     1      -0.715  -1.238   0.000  0.00  0.00    +0.000 A 
ATOM      2  N   UNL     1       0.000  -1.650   0.000  0.00  0.00    +0.000 NA
ATOM      3  C   UNL     1       0.715  -1.238   0.000  0.00  0.00    +0.000 A 
ATOM      4  C   UNL     1       0.715  -0.412   0.000  0.00  0.00    +0.000 A 
ATOM      5  C   UNL     1       1.429   0.000   0.000  0.00  0.00    +0.000 A 
ATOM      6  C   UNL     1       2.143  -0.412   0.000  0.00  0.00    +0.000 A 
ATOM      7 CL   UNL     1       2.858   0.000   0.000  0.00  0.00    +0.000 Cl
ATOM      8  C   UNL     1       2.143  -1.238   0.000  0.00  0.00    +0.000 A 
ATOM      9  C   UNL     1       1.429  -1.650   0.000  0.00  0.00    +0.000 A 
ATOM     10  C   UNL     1       0.000   0.000   0.000  0.00  0.00    +0.000 A 
ATOM     11  C   UNL     1      -0.715  -0.412   0.000  0.00  0.00    +0.000 A 
ATOM     12  N   UNL     1      -1.429   0.000   0.000  0.00  0.00    +0.000 NA
ENDROOT
BRANCH   1  14
ATOM     13  C   UNL     1      -2.143  -2.062   0.000  0.00  0.00    +0.000 C 
ATOM     14  C   UNL     1      -1.429  -1.650   0.000  0.00  0.00    +0.000 C 
ATOM     15  C   UNL     1      -1.016  -2.365   0.000  0.00  0.00    +0.000 C 
ATOM     16  O   UNL     1      -1.841  -0.935   0.000  0.00  0.00    +0.000 OA
ENDBRANCH   1  14
TORSDOF 1
