REMARK  Name = 
REMARK  5 active torsions:
REMARK  status: ('A' for Active; 'I' for Inactive)
REMARK    1  A    between atoms: C_6  and  C_7
REMARK    2  A    between atoms: C_6  and  C_8
REMARK    3  A    between atoms: C_7  and  C_18
REMARK    4  A    between atoms: C_8  and  C_19
REMARK    5  A    between atoms: C_19  and  C_23
REMARK                            x       y       z     vdW  Elec       q    Type
REMARK                         _______ _______ _______ _____ _____    ______ ____
ROOT
ATOM      1  C   UNL     1       1.841   0.884   0.000  0.00  0.00    +0.000 C 
ATOM      2  C   UNL     1      -0.641   0.309   0.000  0.00  0.00    +0.000 C 
ATOM      3  C   UNL     1       2.690  -1.126   0.000  0.00  0.00    +0.000 C 
ATOM      4  C   UNL     1       1.883  -1.298   0.000  0.00  0.00    +0.000 C 
ATOM      5  C   UNL     1      -0.696  -1.399   0.000  0.00  0.00    +0.000 C 
ATOM      6  C   UNL     1       0.111  -1.571   0.000  0.00  0.00    +0.000 C 
ATOM      7  C   UNL     1       3.455   1.228   0.000  0.00  0.00    +0.000 C 
ATOM      8  C   UNL     1       1.034   0.713   0.000  0.00  0.00    +0.000 C 
ATOM      9  C   UNL     1       2.648   1.056   0.000  0.00  0.00    +0.000 C 
ATOM     10  C   UNL     1       0.227   0.541   0.000  0.00  0.00    +0.000 C 
ATOM     11  C   UNL     1       3.752  -0.170   0.000  0.00  0.00    +0.000 C 
ATOM     12  C   UNL     1       2.945  -0.342   0.000  0.00  0.00    +0.000 C 
ATOM     13  C   UNL     1       4.007   0.615   0.000  0.00  0.00    +0.000 C 
ATOM     14  C   UNL     1       1.331  -0.685   0.000  0.00  0.00    +0.000 C 
ATOM     15  C   UNL     1      -0.782  -0.579   0.000  0.00  0.00    +0.000 C 
ATOM     16  C   UNL     1       0.524  -0.856   0.000  0.00  0.00    +0.000 C 
ATOM     17  C   UNL     1       1.586   0.100   0.000  0.00  0.00    +0.000 C 
ATOM     18  C   UNL     1       2.393   0.271   0.000  0.00  0.00    +0.000 C 
ATOM     19  C   UNL     1      -0.028  -0.243   0.000  0.00  0.00    +0.000 C 
ATOM     20  N   UNL     1       4.814   0.786   0.000  0.00  0.00    +0.000 NA
ATOM     21  O   UNL     1       5.069   1.571   0.000  0.00  0.00    +0.000 OA
ENDROOT
BRANCH  15  23
ATOM     22  C   UNL     1      -1.496   0.659   0.000  0.00  0.00    +0.000 C 
ATOM     23  C   UNL     1      -1.496  -0.166   0.000  0.00  0.00    +0.000 C 
BRANCH  23  24
ATOM     24  C   UNL     1      -2.211  -0.579   0.000  0.00  0.00    +0.000 C 
BRANCH  24  25
ATOM     25  C   UNL     1      -2.925  -0.166   0.000  0.00  0.00    +0.000 C 
BRANCH  25  26
ATOM     26  C   UNL     1      -3.640  -0.579   0.000  0.00  0.00    +0.000 C 
BRANCH  26  29
ATOM     27  C   UNL     1      -5.069  -0.579   0.000  0.00  0.00    +0.000 C 
ATOM     28  C   UNL     1      -4.354   0.659   0.000  0.00  0.00    +0.000 C 
ATOM     29  C   UNL     1      -4.354  -0.166   0.000  0.00  0.00    +0.000 C 
ENDBRANCH  26  29
ENDBRANCH  25  26
ENDBRANCH  24  25
ENDBRANCH  23  24
ENDBRANCH  15  23
TORSDOF 5
