REMARK  Name = 
REMARK  12 active torsions:
REMARK  status: ('A' for Active; 'I' for Inactive)
REMARK    1  A    between atoms: P_1  and  O_10
REMARK    2  A    between atoms: P_1  and  O_12
REMARK    3  A    between atoms: P_2  and  O_11
REMARK    4  A    between atoms: P_2  and  O_13
REMARK    5  A    between atoms: P_3  and  O_12
REMARK    6  A    between atoms: P_3  and  O_13
REMARK    7  A    between atoms: O_10  and  C_40
REMARK    8  A    between atoms: O_11  and  C_42
REMARK    9  A    between atoms: N_22  and  C_32
REMARK   10  A    between atoms: N_23  and  C_38
REMARK   11  A    between atoms: C_35  and  C_40
REMARK   12  A    between atoms: C_39  and  C_42
REMARK                            x       y       z     vdW  Elec       q    Type
REMARK                         _______ _______ _______ _____ _____    ______ ____
ROOT
ATOM      1  P   UNL     1       0.000   0.000   0.000  0.00  0.00    +0.000 P 
ATOM      2  O   UNL     1       0.337   0.753   0.000  0.00  0.00    +0.000 OA
ATOM      3  O   UNL     1      -0.337  -0.753   0.000  0.00  0.00    +0.000 OA
ENDROOT
BRANCH   1   4
ATOM      4  O   UNL     1      -0.753   0.337   0.000  0.00  0.00    +0.000 OA
BRANCH   4   5
ATOM      5  P   UNL     1      -1.421  -0.147   0.000  0.00  0.00    +0.000 P 
ATOM      6  O   UNL     1      -0.938  -0.815   0.000  0.00  0.00    +0.000 OA
ATOM      7  O   UNL     1      -1.905   0.521   0.000  0.00  0.00    +0.000 OA
BRANCH   5   8
ATOM      8  O   UNL     1      -2.090  -0.631   0.000  0.00  0.00    +0.000 OA
BRANCH   8   9
ATOM      9  C   UNL     1      -2.843  -0.294   0.000  0.00  0.00    +0.000 C 
BRANCH   9  16
ATOM     10  O   UNL     1      -3.512  -1.603   0.000  0.00  0.00    +0.000 OA
ATOM     11  O   UNL     1      -5.606  -1.186   0.000  0.00  0.00    +0.000 OA
ATOM     12  O   UNL     1      -4.549   0.264   0.000  0.00  0.00    +0.000 OA
ATOM     13  C   UNL     1      -4.298  -1.856   0.000  0.00  0.00    +0.000 C 
ATOM     14  C   UNL     1      -4.781  -1.188   0.000  0.00  0.00    +0.000 C 
ATOM     15  C   UNL     1      -4.295  -0.521   0.000  0.00  0.00    +0.000 C 
ATOM     16  C   UNL     1      -3.511  -0.777   0.000  0.00  0.00    +0.000 C 
BRANCH  13  18
ATOM     17  O   UNL     1      -6.049  -4.954   0.000  0.00  0.00    +0.000 OA
ATOM     18  N   UNL     1      -4.554  -2.640   0.000  0.00  0.00    +0.000 N 
ATOM     19  N   UNL     1      -4.554  -3.968   0.000  0.00  0.00    +0.000 N 
ATOM     20  N   UNL     1      -6.049  -2.479   0.000  0.00  0.00    +0.000 N 
ATOM     21  N   UNL     1      -6.763  -3.717   0.000  0.00  0.00    +0.000 NA
ATOM     22  N   UNL     1      -7.478  -2.479   0.000  0.00  0.00    +0.000 N 
ATOM     23  C   UNL     1      -5.335  -2.892   0.000  0.00  0.00    +0.000 A 
ATOM     24  C   UNL     1      -4.072  -3.304   0.000  0.00  0.00    +0.000 A 
ATOM     25  C   UNL     1      -5.335  -3.717   0.000  0.00  0.00    +0.000 A 
ATOM     26  C   UNL     1      -4.298  -4.752   0.000  0.00  0.00    +0.000 C 
ATOM     27  C   UNL     1      -6.049  -4.129   0.000  0.00  0.00    +0.000 A 
ATOM     28  C   UNL     1      -6.763  -2.892   0.000  0.00  0.00    +0.000 A 
ATOM     29  H   UNL     1      -6.049  -1.968   0.000  0.00  0.00    +0.000 HD
ATOM     30  H   UNL     1      -7.921  -2.735   0.000  0.00  0.00    +0.000 HD
ATOM     31  H   UNL     1      -7.478  -1.968   0.000  0.00  0.00    +0.000 HD
ENDBRANCH  13  18
ENDBRANCH   9  16
ENDBRANCH   8   9
ENDBRANCH   5   8
ENDBRANCH   4   5
ENDBRANCH   1   4
BRANCH   1  32
ATOM     32  O   UNL     1       0.753  -0.337   0.000  0.00  0.00    +0.000 OA
BRANCH  32  33
ATOM     33  P   UNL     1       1.421   0.147   0.000  0.00  0.00    +0.000 P 
ATOM     34  O   UNL     1       1.905  -0.521   0.000  0.00  0.00    +0.000 OA
ATOM     35  O   UNL     1       0.938   0.815   0.000  0.00  0.00    +0.000 OA
BRANCH  33  36
ATOM     36  O   UNL     1       2.090   0.631   0.000  0.00  0.00    +0.000 OA
BRANCH  36  37
ATOM     37  C   UNL     1       2.843   0.294   0.000  0.00  0.00    +0.000 C 
BRANCH  37  44
ATOM     38  O   UNL     1       3.512   1.603   0.000  0.00  0.00    +0.000 OA
ATOM     39  O   UNL     1       5.606   1.186   0.000  0.00  0.00    +0.000 OA
ATOM     40  O   UNL     1       4.549  -0.264   0.000  0.00  0.00    +0.000 OA
ATOM     41  C   UNL     1       4.781   1.188   0.000  0.00  0.00    +0.000 C 
ATOM     42  C   UNL     1       4.295   0.521   0.000  0.00  0.00    +0.000 C 
ATOM     43  C   UNL     1       4.298   1.856   0.000  0.00  0.00    +0.000 C 
ATOM     44  C   UNL     1       3.511   0.777   0.000  0.00  0.00    +0.000 C 
BRANCH  43  46
ATOM     45  O   UNL     1       6.049   4.954   0.000  0.00  0.00    +0.000 OA
ATOM     46  N   UNL     1       4.554   2.640   0.000  0.00  0.00    +0.000 N 
ATOM     47  N   UNL     1       6.049   2.479   0.000  0.00  0.00    +0.000 N 
ATOM     48  N   UNL     1       4.554   3.968   0.000  0.00  0.00    +0.000 NA
ATOM     49  N   UNL     1       6.763   3.717   0.000  0.00  0.00    +0.000 NA
ATOM     50  N   UNL     1       7.478   2.479   0.000  0.00  0.00    +0.000 N 
ATOM     51  C   UNL     1       5.335   2.892   0.000  0.00  0.00    +0.000 A 
ATOM     52  C   UNL     1       4.072   3.304   0.000  0.00  0.00    +0.000 A 
ATOM     53  C   UNL     1       5.335   3.717   0.000  0.00  0.00    +0.000 A 
ATOM     54  C   UNL     1       6.049   4.129   0.000  0.00  0.00    +0.000 A 
ATOM     55  C   UNL     1       6.763   2.892   0.000  0.00  0.00    +0.000 A 
ATOM     56  H   UNL     1       6.049   1.968   0.000  0.00  0.00    +0.000 HD
ATOM     57  H   UNL     1       7.921   2.735   0.000  0.00  0.00    +0.000 HD
ATOM     58  H   UNL     1       7.478   1.968   0.000  0.00  0.00    +0.000 HD
ENDBRANCH  43  46
ENDBRANCH  37  44
ENDBRANCH  36  37
ENDBRANCH  33  36
ENDBRANCH  32  33
ENDBRANCH   1  32
TORSDOF 12
