REMARK  Name = 
REMARK  6 active torsions:
REMARK  status: ('A' for Active; 'I' for Inactive)
REMARK    1  A    between atoms: N_4  and  C_5
REMARK    2  A    between atoms: C_10  and  O_29
REMARK    3  A    between atoms: C_11  and  O_27
REMARK    4  A    between atoms: C_12  and  O_25
REMARK    5  A    between atoms: C_17  and  O_20
REMARK    6  A    between atoms: O_20  and  P_21
REMARK                            x       y       z     vdW  Elec       q    Type
REMARK                         _______ _______ _______ _____ _____    ______ ____
ROOT
ATOM      1  C   UNL     1       2.757   1.303   0.000  0.00  0.00    +0.000 C 
ATOM      2  C   UNL     1       3.500   1.661   0.000  0.00  0.00    +0.000 C 
ATOM      3  C   UNL     1       4.244   1.303   0.000  0.00  0.00    +0.000 C 
ATOM      4  C   UNL     1       4.427   0.499   0.000  0.00  0.00    +0.000 A 
ATOM      5  C   UNL     1       5.243   0.376   0.000  0.00  0.00    +0.000 A 
ATOM      6  C   UNL     1       5.544  -0.392   0.000  0.00  0.00    +0.000 A 
ATOM      7  C   UNL     1       5.030  -1.037   0.000  0.00  0.00    +0.000 A 
ATOM      8  C   UNL     1       4.214  -0.914   0.000  0.00  0.00    +0.000 A 
ATOM      9  C   UNL     1       3.913  -0.146   0.000  0.00  0.00    +0.000 A 
ATOM     10  C   UNL     1       3.088  -0.146   0.000  0.00  0.00    +0.000 A 
ATOM     11  C   UNL     1       2.573   0.499   0.000  0.00  0.00    +0.000 A 
ATOM     12  C   UNL     1       1.758   0.376   0.000  0.00  0.00    +0.000 A 
ATOM     13  C   UNL     1       1.456  -0.392   0.000  0.00  0.00    +0.000 A 
ATOM     14  C   UNL     1       1.971  -1.037   0.000  0.00  0.00    +0.000 A 
ATOM     15  C   UNL     1       2.786  -0.914   0.000  0.00  0.00    +0.000 A 
ENDROOT
BRANCH   1  19
ATOM     16  C   UNL     1       0.699   2.030   0.000  0.00  0.00    +0.000 C 
ATOM     17  C   UNL     1       1.344   1.516   0.000  0.00  0.00    +0.000 C 
ATOM     18  O   UNL     1       1.221   0.700   0.000  0.00  0.00    +0.000 OA
ATOM     19  N   UNL     1       2.112   1.817   0.000  0.00  0.00    +0.000 NA
ENDBRANCH   1  19
BRANCH   8  20
ATOM     20  O   UNL     1       3.700  -1.559   0.000  0.00  0.00    +0.000 OA
ATOM     21  C   UNL     1       4.001  -2.327   0.000  0.00  0.00    +0.000 C 
ENDBRANCH   8  20
BRANCH   7  22
ATOM     22  O   UNL     1       5.331  -1.805   0.000  0.00  0.00    +0.000 OA
ATOM     23  C   UNL     1       4.817  -2.450   0.000  0.00  0.00    +0.000 C 
ENDBRANCH   7  22
BRANCH   6  24
ATOM     24  O   UNL     1       6.360  -0.515   0.000  0.00  0.00    +0.000 OA
ATOM     25  C   UNL     1       6.875   0.130   0.000  0.00  0.00    +0.000 C 
ENDBRANCH   6  24
BRANCH  13  26
ATOM     26  O   UNL     1       0.640  -0.515   0.000  0.00  0.00    +0.000 OA
BRANCH  26  27
ATOM     27  P   UNL     1       0.339  -1.283   0.000  0.00  0.00    +0.000 P 
ATOM     28  O   UNL     1       0.038  -2.051   0.000  0.00  0.00    +0.000 OA
ATOM     29  O   UNL     1       1.107  -1.584   0.000  0.00  0.00    +0.000 OA
ATOM     30  O   UNL     1      -0.429  -0.982   0.000  0.00  0.00    +0.000 OA
ENDBRANCH  26  27
ENDBRANCH  13  26
TORSDOF 6
