REMARK  Name = 
REMARK  9 active torsions:
REMARK  status: ('A' for Active; 'I' for Inactive)
REMARK    1  A    between atoms: C_17  and  C_20
REMARK    2  A    between atoms: C_17  and  C_32
REMARK    3  A    between atoms: C_18  and  C_25
REMARK    4  A    between atoms: C_19  and  C_28
REMARK    5  A    between atoms: C_19  and  N_34
REMARK    6  A    between atoms: C_20  and  N_34
REMARK    7  A    between atoms: C_23  and  C_29
REMARK    8  A    between atoms: C_24  and  C_30
REMARK    9  A    between atoms: C_31  and  C_32
REMARK                            x       y       z     vdW  Elec       q    Type
REMARK                         _______ _______ _______ _____ _____    ______ ____
ROOT
ATOM      1  C   UNL     1       0.412   3.426   0.000  0.00  0.00    +0.000 C 
ATOM      2  C   UNL     1      -0.412   3.426   0.000  0.00  0.00    +0.000 C 
ATOM      3  C   UNL     1       2.136   1.659   0.000  0.00  0.00    +0.000 A 
ATOM      4  C   UNL     1      -2.136   1.659   0.000  0.00  0.00    +0.000 A 
ATOM      5  C   UNL     1       1.348   1.415   0.000  0.00  0.00    +0.000 A 
ATOM      6  C   UNL     1      -1.348   1.415   0.000  0.00  0.00    +0.000 A 
ATOM      7  C   UNL     1       1.715   3.024   0.000  0.00  0.00    +0.000 A 
ATOM      8  C   UNL     1      -1.715   3.024   0.000  0.00  0.00    +0.000 A 
ATOM      9  C   UNL     1       0.927   2.781   0.000  0.00  0.00    +0.000 A 
ATOM     10  C   UNL     1      -0.927   2.781   0.000  0.00  0.00    +0.000 A 
ATOM     11  C   UNL     1       2.320   2.463   0.000  0.00  0.00    +0.000 A 
ATOM     12  C   UNL     1      -2.320   2.463   0.000  0.00  0.00    +0.000 A 
ATOM     13  C   UNL     1       0.743   1.977   0.000  0.00  0.00    +0.000 A 
ATOM     14  C   UNL     1      -0.743   1.977   0.000  0.00  0.00    +0.000 A 
ATOM     15  C   UNL     1       0.000   1.619   0.000  0.00  0.00    +0.000 C 
ENDROOT
BRANCH  11  18
ATOM     16  C   UNL     1       4.080   3.754   0.000  0.00  0.00    +0.000 C 
ATOM     17  C   UNL     1       2.687   4.072   0.000  0.00  0.00    +0.000 C 
ATOM     18  C   UNL     1       3.108   2.706   0.000  0.00  0.00    +0.000 C 
ATOM     19  N   UNL     1       3.292   3.510   0.000  0.00  0.00    +0.000 N 
ATOM     20  O   UNL     1       3.713   2.145   0.000  0.00  0.00    +0.000 OA
ENDBRANCH  11  18
BRANCH  12  23
ATOM     21  C   UNL     1      -4.080   3.754   0.000  0.00  0.00    +0.000 C 
ATOM     22  C   UNL     1      -2.687   4.072   0.000  0.00  0.00    +0.000 C 
ATOM     23  C   UNL     1      -3.108   2.706   0.000  0.00  0.00    +0.000 C 
ATOM     24  N   UNL     1      -3.292   3.510   0.000  0.00  0.00    +0.000 N 
ATOM     25  O   UNL     1      -3.713   2.145   0.000  0.00  0.00    +0.000 OA
ENDBRANCH  12  23
BRANCH  15  26
ATOM     26  C   UNL     1      -0.514   0.974   0.000  0.00  0.00    +0.000 A 
ATOM     27  N   UNL     1      -0.295   0.178   0.000  0.00  0.00    +0.000 NA
ATOM     28  N   UNL     1      -1.339   1.011   0.000  0.00  0.00    +0.000 NA
ATOM     29  N   UNL     1      -0.983  -0.276   0.000  0.00  0.00    +0.000 NA
ATOM     30  N   UNL     1      -1.628   0.238   0.000  0.00  0.00    +0.000 NA
ENDBRANCH  15  26
BRANCH  15  31
ATOM     31  C   UNL     1       0.514   0.974   0.000  0.00  0.00    +0.000 C 
BRANCH  31  33
ATOM     32  C   UNL     1      -0.525  -0.163   0.000  0.00  0.00    +0.000 C 
ATOM     33  C   UNL     1       0.213   0.206   0.000  0.00  0.00    +0.000 C 
BRANCH  33  34
ATOM     34  N   UNL     1       0.727  -0.439   0.000  0.00  0.00    +0.000 NA
BRANCH  34  35
ATOM     35  C   UNL     1       0.426  -1.207   0.000  0.00  0.00    +0.000 C 
BRANCH  35  40
ATOM     36  C   UNL     1      -0.209  -3.651   0.000  0.00  0.00    +0.000 C 
ATOM     37  C   UNL     1       0.559  -3.953   0.000  0.00  0.00    +0.000 C 
ATOM     38  C   UNL     1      -0.160  -2.828   0.000  0.00  0.00    +0.000 C 
ATOM     39  C   UNL     1       1.083  -3.315   0.000  0.00  0.00    +0.000 C 
ATOM     40  C   UNL     1       0.940  -1.852   0.000  0.00  0.00    +0.000 C 
ATOM     41  N   UNL     1       0.639  -2.620   0.000  0.00  0.00    +0.000 N 
ATOM     42  O   UNL     1       1.756  -1.729   0.000  0.00  0.00    +0.000 OA
BRANCH  39  43
ATOM     43  C   UNL     1       1.907  -3.365   0.000  0.00  0.00    +0.000 C 
ATOM     44  N   UNL     1       2.730  -3.414   0.000  0.00  0.00    +0.000 NA
ENDBRANCH  39  43
ENDBRANCH  35  40
ENDBRANCH  34  35
ENDBRANCH  33  34
ENDBRANCH  31  33
ENDBRANCH  15  31
TORSDOF 9
