REMARK  Name = 
REMARK  4 active torsions:
REMARK  status: ('A' for Active; 'I' for Inactive)
REMARK    1  A    between atoms: P_1  and  O_4
REMARK    2  A    between atoms: O_4  and  C_16
REMARK    3  A    between atoms: N_10  and  C_14
REMARK    4  A    between atoms: C_13  and  C_16
REMARK                            x       y       z     vdW  Elec       q    Type
REMARK                         _______ _______ _______ _____ _____    ______ ____
ROOT
ATOM      1  O   UNL     1      -0.053  -0.542   0.000  0.00  0.00    +0.000 OA
ATOM      2  O   UNL     1      -1.618  -1.994   0.000  0.00  0.00    +0.000 OA
ATOM      3  C   UNL     1      -1.133  -1.327   0.000  0.00  0.00    +0.000 C 
ATOM      4  C   UNL     1      -0.308  -1.327   0.000  0.00  0.00    +0.000 C 
ATOM      5  C   UNL     1      -0.721  -0.057   0.000  0.00  0.00    +0.000 C 
ATOM      6  C   UNL     1      -1.388  -0.542   0.000  0.00  0.00    +0.000 C 
ENDROOT
BRANCH   5   9
ATOM      7  O   UNL     1      -2.150   0.768   0.000  0.00  0.00    +0.000 OA
ATOM      8  O   UNL     1      -0.721   3.243   0.000  0.00  0.00    +0.000 OA
ATOM      9  N   UNL     1      -0.721   0.768   0.000  0.00  0.00    +0.000 N 
ATOM     10  N   UNL     1      -1.435   2.005   0.000  0.00  0.00    +0.000 N 
ATOM     11  C   UNL     1      -1.435   1.180   0.000  0.00  0.00    +0.000 C 
ATOM     12  C   UNL     1      -0.006   1.180   0.000  0.00  0.00    +0.000 C 
ATOM     13  C   UNL     1      -0.721   2.418   0.000  0.00  0.00    +0.000 C 
ATOM     14  C   UNL     1      -0.006   2.005   0.000  0.00  0.00    +0.000 C 
ATOM     15  H   UNL     1      -1.878   2.261   0.000  0.00  0.00    +0.000 HD
ENDBRANCH   5   9
BRANCH   4  16
ATOM     16  C   UNL     1       0.177  -1.994   0.000  0.00  0.00    +0.000 C 
BRANCH  16  17
ATOM     17  O   UNL     1       0.997  -1.908   0.000  0.00  0.00    +0.000 OA
BRANCH  17  18
ATOM     18  P   UNL     1       1.482  -2.575   0.000  0.00  0.00    +0.000 P 
ATOM     19  O   UNL     1       2.150  -2.090   0.000  0.00  0.00    +0.000 OA
ATOM     20  O   UNL     1       1.967  -3.243   0.000  0.00  0.00    +0.000 OA
ATOM     21  O   UNL     1       0.815  -3.060   0.000  0.00  0.00    +0.000 OA
ENDBRANCH  17  18
ENDBRANCH  16  17
ENDBRANCH   4  16
TORSDOF 4
