REMARK  Name = 
REMARK  5 active torsions:
REMARK  status: ('A' for Active; 'I' for Inactive)
REMARK    1  A    between atoms: C_2  and  C_4
REMARK    2  A    between atoms: C_5  and  C_16
REMARK    3  A    between atoms: N_6  and  C_7
REMARK    4  A    between atoms: C_7  and  C_8
REMARK    5  A    between atoms: C_16  and  C_18
REMARK                            x       y       z     vdW  Elec       q    Type
REMARK                         _______ _______ _______ _____ _____    ______ ____
ROOT
ATOM      1  C   UNL     1       1.841   3.189   0.000  0.00  0.00    +0.000 A 
ATOM      2  C   UNL     1       2.556   2.777   0.000  0.00  0.00    +0.000 A 
ATOM      3  N   UNL     1       2.556   1.952   0.000  0.00  0.00    +0.000 N 
ATOM      4  C   UNL     1       1.841   1.540   0.000  0.00  0.00    +0.000 A 
ATOM      5  O   UNL     1       1.841   0.715   0.000  0.00  0.00    +0.000 OA
ATOM      6  N   UNL     1       1.127   1.952   0.000  0.00  0.00    +0.000 NA
ATOM      7  C   UNL     1       1.127   2.777   0.000  0.00  0.00    +0.000 A 
ATOM      8  O   UNL     1       0.412   3.189   0.000  0.00  0.00    +0.000 OA
ENDROOT
BRANCH   1  10
ATOM      9  C   UNL     1       1.127   4.427   0.000  0.00  0.00    +0.000 C 
ATOM     10  C   UNL     1       1.841   4.014   0.000  0.00  0.00    +0.000 C 
ATOM     11  C   UNL     1       2.556   4.427   0.000  0.00  0.00    +0.000 C 
ENDBRANCH   1  10
BRANCH   2  12
ATOM     12  C   UNL     1       3.270   3.189   0.000  0.00  0.00    +0.000 C 
ATOM     13  O   UNL     1       3.270   4.014   0.000  0.00  0.00    +0.000 OA
BRANCH  12  14
ATOM     14  C   UNL     1       3.985   2.777   0.000  0.00  0.00    +0.000 A 
ATOM     15  C   UNL     1       4.699   3.189   0.000  0.00  0.00    +0.000 A 
ATOM     16  C   UNL     1       5.414   2.777   0.000  0.00  0.00    +0.000 A 
ATOM     17  C   UNL     1       6.128   3.189   0.000  0.00  0.00    +0.000 C 
ATOM     18  C   UNL     1       5.414   1.952   0.000  0.00  0.00    +0.000 A 
ATOM     19  C   UNL     1       4.699   1.540   0.000  0.00  0.00    +0.000 A 
ATOM     20  C   UNL     1       4.699   0.715   0.000  0.00  0.00    +0.000 C 
ATOM     21  C   UNL     1       3.985   1.952   0.000  0.00  0.00    +0.000 A 
ENDBRANCH  12  14
ENDBRANCH   2  12
BRANCH   3  22
ATOM     22  C   UNL     1       3.270   1.540   0.000  0.00  0.00    +0.000 C 
BRANCH  22  23
ATOM     23  C   UNL     1       3.270   0.715   0.000  0.00  0.00    +0.000 C 
ATOM     24  C   UNL     1       3.683   0.000   0.000  0.00  0.00    +0.000 C 
ATOM     25  C   UNL     1       2.858   0.000   0.000  0.00  0.00    +0.000 C 
ENDBRANCH  22  23
ENDBRANCH   3  22
TORSDOF 5
