REMARK  Name = 
REMARK  11 active torsions:
REMARK  status: ('A' for Active; 'I' for Inactive)
REMARK    1  A    between atoms: C_1  and  C_26
REMARK    2  A    between atoms: C_9  and  O_12
REMARK    3  A    between atoms: O_12  and  C_13
REMARK    4  A    between atoms: C_13  and  C_14
REMARK    5  A    between atoms: C_14  and  C_15
REMARK    6  A    between atoms: C_15  and  C_16
REMARK    7  A    between atoms: C_16  and  C_17
REMARK    8  A    between atoms: C_17  and  C_18
REMARK    9  A    between atoms: C_18  and  N_19
REMARK   10  A    between atoms: N_19  and  C_20
REMARK   11  A    between atoms: C_20  and  C_22
REMARK                            x       y       z     vdW  Elec       q    Type
REMARK                         _______ _______ _______ _____ _____    ______ ____
ROOT
ATOM      1  C   UNL     1       1.480  -0.294   0.000  0.00  0.00    +0.000 A 
ATOM      2  C   UNL     1       1.479  -1.122   0.000  0.00  0.00    +0.000 A 
ATOM      3  C   UNL     1       2.194  -1.535   0.000  0.00  0.00    +0.000 A 
ATOM      4  C   UNL     1       2.910  -1.121   0.000  0.00  0.00    +0.000 A 
ATOM      5  C   UNL     1       2.192   0.118   0.000  0.00  0.00    +0.000 A 
ATOM      6  C   UNL     1       2.907  -0.290   0.000  0.00  0.00    +0.000 A 
ATOM      7  C   UNL     1       3.516   0.264   0.000  0.00  0.00    +0.000 A 
ATOM      8  N   UNL     1       3.178   1.014   0.000  0.00  0.00    +0.000 NA
ATOM      9  N   UNL     1       2.360   0.924   0.000  0.00  0.00    +0.000 N 
ATOM     10  C   UNL     1       1.804   1.535   0.000  0.00  0.00    +0.000 C 
ENDROOT
BRANCH   7  11
ATOM     11  C   UNL     1       4.228  -0.149   0.000  0.00  0.00    +0.000 A 
ATOM     12  C   UNL     1       4.227  -0.971   0.000  0.00  0.00    +0.000 A 
ATOM     13  C   UNL     1       4.942  -1.381   0.000  0.00  0.00    +0.000 A 
ATOM     14  C   UNL     1       5.656  -0.966   0.000  0.00  0.00    +0.000 A 
ATOM     15  C   UNL     1       5.651  -0.137   0.000  0.00  0.00    +0.000 A 
ATOM     16  C   UNL     1       4.935   0.269   0.000  0.00  0.00    +0.000 A 
ATOM     17 BR   UNL     1       6.373  -1.375   0.000  0.00  0.00    +0.000 Br
ENDBRANCH   7  11
BRANCH   2  18
ATOM     18  O   UNL     1       0.764  -1.534   0.000  0.00  0.00    +0.000 OA
BRANCH  18  19
ATOM     19  C   UNL     1       0.050  -1.121   0.000  0.00  0.00    +0.000 C 
BRANCH  19  20
ATOM     20  C   UNL     1      -0.665  -1.533   0.000  0.00  0.00    +0.000 C 
BRANCH  20  21
ATOM     21  C   UNL     1      -1.379  -1.120   0.000  0.00  0.00    +0.000 C 
BRANCH  21  22
ATOM     22  C   UNL     1      -2.094  -1.532   0.000  0.00  0.00    +0.000 C 
BRANCH  22  23
ATOM     23  C   UNL     1      -2.808  -1.118   0.000  0.00  0.00    +0.000 C 
BRANCH  23  24
ATOM     24  C   UNL     1      -3.522  -1.530   0.000  0.00  0.00    +0.000 C 
BRANCH  24  25
ATOM     25  N   UNL     1      -4.237  -1.117   0.000  0.00  0.00    +0.000 NA
ATOM     26  C   UNL     1      -4.236  -0.292   0.000  0.00  0.00    +0.000 C 
BRANCH  25  27
ATOM     27  C   UNL     1      -4.951  -1.529   0.000  0.00  0.00    +0.000 C 
BRANCH  27  28
ATOM     28  C   UNL     1      -5.666  -1.116   0.000  0.00  0.00    +0.000 C 
ATOM     29  C   UNL     1      -6.373  -1.528   0.000  0.00  0.00    +0.000 C 
ENDBRANCH  27  28
ENDBRANCH  25  27
ENDBRANCH  24  25
ENDBRANCH  23  24
ENDBRANCH  22  23
ENDBRANCH  21  22
ENDBRANCH  20  21
ENDBRANCH  19  20
ENDBRANCH  18  19
ENDBRANCH   2  18
TORSDOF 11
