REMARK  Name = 
REMARK  9 active torsions:
REMARK  status: ('A' for Active; 'I' for Inactive)
REMARK    1  A    between atoms: CG_1  and  CB_2
REMARK    2  A    between atoms: CG_1  and  CD_3
REMARK    3  A    between atoms: CB_2  and  CA_4
REMARK    4  A    between atoms: CD_3  and  NE_5
REMARK    5  A    between atoms: CA_4  and  C_6
REMARK    6  A    between atoms: CB_13  and  CA_14
REMARK    7  A    between atoms: CB_13  and  CG_15
REMARK    8  A    between atoms: CA_14  and  C_16
REMARK    9  A    between atoms: CG_15  and  CD_18
REMARK                            x       y       z     vdW  Elec       q    Type
REMARK                         _______ _______ _______ _____ _____    ______ ____
ROOT
ATOM      1  CG  ARG A   1      -1.077   1.550   0.000  0.00  0.00    +0.000 C 
ENDROOT
BRANCH   1   2
ATOM      2  CB  ARG A   1      -0.371   1.966   0.000  0.00  0.00    +0.000 C 
BRANCH   2   3
ATOM      3  CA  ARG A   1       0.341   1.550   0.000  0.00  0.00    +0.000 C 
ATOM      4  N   ARG A   1       0.341   0.733   0.000  0.00  0.00    +0.000 NA
BRANCH   3   5
ATOM      5  C   ARG A   1       1.058   1.966   0.000  0.00  0.00    +0.000 C 
ATOM      6  O   ARG A   1       1.781   1.550   0.000  0.00  0.00    +0.000 OA
ATOM      7  OXT ARG A   1       1.058   2.809   0.000  0.00  0.00    +0.000 OA
ENDBRANCH   3   5
ENDBRANCH   2   3
ENDBRANCH   1   2
BRANCH   1   8
ATOM      8  CD  ARG A   1      -1.796   1.966   0.000  0.00  0.00    +0.000 C 
BRANCH   8   9
ATOM      9  NE  ARG A   1      -2.509   1.550   0.000  0.00  0.00    +0.000 NA
ATOM     10  CZ  ARG A   1      -3.225   1.966   0.000  0.00  0.00    +0.000 C 
ATOM     11  NH1 ARG A   1      -3.937   1.550   0.000  0.00  0.00    +0.000 NA
ATOM     12  NH2 ARG A   1      -3.225   2.809   0.000  0.00  0.00    +0.000 NA
ENDBRANCH   8   9
ENDBRANCH   1   8
TORSDOF 5
REMARK  Name = 
REMARK  9 active torsions:
REMARK  status: ('A' for Active; 'I' for Inactive)
REMARK    1  A    between atoms: CG_1  and  CB_2
REMARK    2  A    between atoms: CG_1  and  CD_3
REMARK    3  A    between atoms: CB_2  and  CA_4
REMARK    4  A    between atoms: CD_3  and  NE_5
REMARK    5  A    between atoms: CA_4  and  C_6
REMARK    6  A    between atoms: CB_13  and  CA_14
REMARK    7  A    between atoms: CB_13  and  CG_15
REMARK    8  A    between atoms: CA_14  and  C_16
REMARK    9  A    between atoms: CG_15  and  CD_18
REMARK                            x       y       z     vdW  Elec       q    Type
REMARK                         _______ _______ _______ _____ _____    ______ ____
ROOT
ATOM      1  CB  GLU A   1       1.794  -1.571   0.000  0.00  0.00    +0.000 C 
ENDROOT
BRANCH   1   2
ATOM      2  CA  GLU A   1       2.508  -1.984   0.000  0.00  0.00    +0.000 C 
ATOM      3  N   GLU A   1       2.508  -2.809   0.000  0.00  0.00    +0.000 NA
BRANCH   2   4
ATOM      4  C   GLU A   1       3.223  -1.571   0.000  0.00  0.00    +0.000 C 
ATOM      5  O   GLU A   1       3.937  -1.984   0.000  0.00  0.00    +0.000 OA
ATOM      6  OXT GLU A   1       3.223  -0.746   0.000  0.00  0.00    +0.000 OA
ENDBRANCH   2   4
ENDBRANCH   1   2
BRANCH   1   7
ATOM      7  CG  GLU A   1       1.079  -1.984   0.000  0.00  0.00    +0.000 C 
BRANCH   7   8
ATOM      8  CD  GLU A   1       0.365  -1.571   0.000  0.00  0.00    +0.000 C 
ATOM      9  OE1 GLU A   1      -0.349  -1.984   0.000  0.00  0.00    +0.000 OA
ATOM     10  OE2 GLU A   1       0.365  -0.746   0.000  0.00  0.00    +0.000 OA
ENDBRANCH   7   8
ENDBRANCH   1   7
TORSDOF 4
