REMARK  Name = 
REMARK  5 active torsions:
REMARK  status: ('A' for Active; 'I' for Inactive)
REMARK    1  A    between atoms: C_1  and  C_4
REMARK    2  A    between atoms: C_2  and  O_6
REMARK    3  A    between atoms: N_9  and  C_15
REMARK    4  A    between atoms: C_15  and  C_16
REMARK    5  A    between atoms: N_17  and  C_20
REMARK                            x       y       z     vdW  Elec       q    Type
REMARK                         _______ _______ _______ _____ _____    ______ ____
ROOT
ATOM      1  C   UNL     1       1.213   0.294   0.000  0.00  0.00    +0.000 A 
ATOM      2  C   UNL     1       1.213  -0.467   0.000  0.00  0.00    +0.000 A 
ATOM      3  C   UNL     1       1.919   0.749   0.000  0.00  0.00    +0.000 A 
ATOM      4  C   UNL     1       1.881  -0.900   0.000  0.00  0.00    +0.000 A 
ATOM      5  C   UNL     1       2.649   0.346   0.000  0.00  0.00    +0.000 A 
ATOM      6  O   UNL     1       1.933   1.592   0.000  0.00  0.00    +0.000 OA
ATOM      7  C   UNL     1       2.649  -0.477   0.000  0.00  0.00    +0.000 A 
ATOM      8 CL   UNL     1       1.881  -1.747   0.000  0.00  0.00    +0.000 Cl
ATOM      9 CL   UNL     1       3.379   0.745   0.000  0.00  0.00    +0.000 Cl
ENDROOT
BRANCH   1  10
ATOM     10  C   UNL     1       0.484   0.749   0.000  0.00  0.00    +0.000 C 
ATOM     11  N   UNL     1      -0.225   0.346   0.000  0.00  0.00    +0.000 NA
ATOM     12  O   UNL     1       0.484   1.630   0.000  0.00  0.00    +0.000 OA
BRANCH  11  13
ATOM     13  C   UNL     1      -0.945   0.749   0.000  0.00  0.00    +0.000 C 
BRANCH  13  14
ATOM     14  C   UNL     1      -1.651   0.346   0.000  0.00  0.00    +0.000 C 
ATOM     15  N   UNL     1      -2.422   0.694   0.000  0.00  0.00    +0.000 NA
ATOM     16  C   UNL     1      -1.750  -0.467   0.000  0.00  0.00    +0.000 C 
ATOM     17  C   UNL     1      -2.973   0.084   0.000  0.00  0.00    +0.000 C 
ATOM     18  C   UNL     1      -2.559  -0.628   0.000  0.00  0.00    +0.000 C 
BRANCH  15  19
ATOM     19  C   UNL     1      -2.594   1.492   0.000  0.00  0.00    +0.000 C 
ATOM     20  C   UNL     1      -3.379   1.747   0.000  0.00  0.00    +0.000 C 
ENDBRANCH  15  19
ENDBRANCH  13  14
ENDBRANCH  11  13
ENDBRANCH   1  10
BRANCH   2  21
ATOM     21  O   UNL     1       0.484  -0.886   0.000  0.00  0.00    +0.000 OA
ATOM     22  C   UNL     1       0.484  -1.713   0.000  0.00  0.00    +0.000 C 
ENDBRANCH   2  21
TORSDOF 5
