REMARK  Name = 
REMARK  9 active torsions:
REMARK  status: ('A' for Active; 'I' for Inactive)
REMARK    1  A    between atoms: O_2  and  C_3
REMARK    2  A    between atoms: C_4  and  O_5
REMARK    3  A    between atoms: O_5  and  P_6
REMARK    4  A    between atoms: P_6  and  O_9
REMARK    5  A    between atoms: O_9  and  C_10
REMARK    6  A    between atoms: C_10  and  C_11
REMARK    7  A    between atoms: C_13  and  N_17
REMARK    8  A    between atoms: C_27  and  C_28
REMARK    9  A    between atoms: C_31  and  N_32
REMARK                            x       y       z     vdW  Elec       q    Type
REMARK                         _______ _______ _______ _____ _____    ______ ____
ROOT
ATOM      1  P   UNL     1      -0.441   4.271   0.000  0.00  0.00    +0.000 P 
ATOM      2  S   UNL     1       0.344   4.016   0.000  0.00  0.00    +0.000 S 
ATOM      3  O   UNL     1      -1.225   4.526   0.000  0.00  0.00    +0.000 OA
ENDROOT
BRANCH   1   4
ATOM      4  O   UNL     1      -0.696   3.487   0.000  0.00  0.00    +0.000 OA
BRANCH   4   5
ATOM      5  C   UNL     1      -0.143   2.874   0.000  0.00  0.00    +0.000 C 
BRANCH   5   6
ATOM      6  C   UNL     1      -0.398   2.089   0.000  0.00  0.00    +0.000 C 
ATOM      7  O   UNL     1       0.086   1.422   0.000  0.00  0.00    +0.000 OA
ATOM      8  C   UNL     1      -0.398   0.754   0.000  0.00  0.00    +0.000 C 
ATOM      9  C   UNL     1      -1.183   1.009   0.000  0.00  0.00    +0.000 C 
ATOM     10  C   UNL     1      -1.183   1.834   0.000  0.00  0.00    +0.000 C 
ATOM     11  O   UNL     1      -1.851   2.319   0.000  0.00  0.00    +0.000 OA
BRANCH   8  12
ATOM     12  N   UNL     1      -0.143  -0.030   0.000  0.00  0.00    +0.000 N 
ATOM     13  C   UNL     1      -0.628  -0.698   0.000  0.00  0.00    +0.000 A 
ATOM     14  N   UNL     1      -0.143  -1.365   0.000  0.00  0.00    +0.000 NA
ATOM     15  C   UNL     1       0.641  -1.110   0.000  0.00  0.00    +0.000 A 
ATOM     16  C   UNL     1       0.641  -0.285   0.000  0.00  0.00    +0.000 A 
ATOM     17  N   UNL     1       1.356   0.127   0.000  0.00  0.00    +0.000 NA
ATOM     18  C   UNL     1       2.070  -0.285   0.000  0.00  0.00    +0.000 A 
ATOM     19  N   UNL     1       2.070  -1.110   0.000  0.00  0.00    +0.000 NA
ATOM     20  C   UNL     1       1.356  -1.523   0.000  0.00  0.00    +0.000 A 
ATOM     21  N   UNL     1       1.356  -2.348   0.000  0.00  0.00    +0.000 NA
ENDBRANCH   8  12
ENDBRANCH   5   6
ENDBRANCH   4   5
ENDBRANCH   1   4
BRANCH   1  22
ATOM     22  O   UNL     1      -0.186   5.056   0.000  0.00  0.00    +0.000 OA
BRANCH  22  24
ATOM     23  C   UNL     1      -0.566   6.476   0.000  0.00  0.00    +0.000 C 
ATOM     24  C   UNL     1      -0.738   5.669   0.000  0.00  0.00    +0.000 C 
ATOM     25  C   UNL     1      -1.558   5.583   0.000  0.00  0.00    +0.000 C 
ATOM     26  O   UNL     1      -1.894   6.337   0.000  0.00  0.00    +0.000 OA
ATOM     27  C   UNL     1      -1.281   6.888   0.000  0.00  0.00    +0.000 C 
BRANCH  27  28
ATOM     28  N   UNL     1      -1.367   7.709   0.000  0.00  0.00    +0.000 N 
ATOM     29  C   UNL     1      -2.120   8.045   0.000  0.00  0.00    +0.000 A 
ATOM     30  C   UNL     1      -2.207   8.865   0.000  0.00  0.00    +0.000 A 
ATOM     31  C   UNL     1      -1.539   9.350   0.000  0.00  0.00    +0.000 A 
ATOM     32  O   UNL     1      -1.626  10.170   0.000  0.00  0.00    +0.000 OA
ATOM     33  N   UNL     1      -0.786   9.014   0.000  0.00  0.00    +0.000 NA
ATOM     34  C   UNL     1      -0.699   8.194   0.000  0.00  0.00    +0.000 A 
ATOM     35  O   UNL     1       0.054   7.858   0.000  0.00  0.00    +0.000 OA
ENDBRANCH  27  28
BRANCH  23  37
ATOM     36  C   UNL     1       0.855   6.327   0.000  0.00  0.00    +0.000 C 
ATOM     37  O   UNL     1       0.188   6.812   0.000  0.00  0.00    +0.000 OA
ENDBRANCH  23  37
BRANCH  25  38
ATOM     38  C   UNL     1      -1.971   4.868   0.000  0.00  0.00    +0.000 C 
ATOM     39  O   UNL     1      -2.796   4.868   0.000  0.00  0.00    +0.000 OA
ENDBRANCH  25  38
ENDBRANCH  22  24
ENDBRANCH   1  22
TORSDOF 9
