REMARK  Name = 
REMARK  10 active torsions:
REMARK  status: ('A' for Active; 'I' for Inactive)
REMARK    1  A    between atoms: C_2  and  C_3
REMARK    2  A    between atoms: C_3  and  C_4
REMARK    3  A    between atoms: C_4  and  C_5
REMARK    4  A    between atoms: C_4  and  C_24
REMARK    5  A    between atoms: C_5  and  C_6
REMARK    6  A    between atoms: C_5  and  C_17
REMARK    7  A    between atoms: C_27  and  C_30
REMARK    8  A    between atoms: N_32  and  C_33
REMARK    9  A    between atoms: C_33  and  C_34
REMARK   10  A    between atoms: C_34  and  C_35
REMARK                            x       y       z     vdW  Elec       q    Type
REMARK                         _______ _______ _______ _____ _____    ______ ____
ROOT
ATOM      1  C   UNL     1      -8.772   0.930   0.000  0.00  0.00    +0.000 C 
ENDROOT
BRANCH   1   2
ATOM      2  C   UNL     1      -9.487   1.343   0.000  0.00  0.00    +0.000 A 
ATOM      3  C   UNL     1      -9.573   2.163   0.000  0.00  0.00    +0.000 A 
ATOM      4  N   UNL     1     -10.380   2.334   0.000  0.00  0.00    +0.000 NA
ATOM      5  C   UNL     1     -10.793   1.620   0.000  0.00  0.00    +0.000 A 
ATOM      6  C   UNL     1     -10.241   1.007   0.000  0.00  0.00    +0.000 A 
ATOM      7  C   UNL     1     -10.495   0.222   0.000  0.00  0.00    +0.000 A 
ATOM      8  C   UNL     1     -11.302   0.051   0.000  0.00  0.00    +0.000 A 
ATOM      9  C   UNL     1     -11.557  -0.734   0.000  0.00  0.00    +0.000 C 
ATOM     10  C   UNL     1     -11.854   0.664   0.000  0.00  0.00    +0.000 A 
ATOM     11  C   UNL     1     -11.600   1.448   0.000  0.00  0.00    +0.000 A 
ATOM     12  F   UNL     1     -12.152   2.062   0.000  0.00  0.00    +0.000 F 
ENDBRANCH   1   2
BRANCH   1  13
ATOM     13  C   UNL     1      -8.772   0.105   0.000  0.00  0.00    +0.000 A 
ATOM     14  C   UNL     1      -8.058  -0.307   0.000  0.00  0.00    +0.000 A 
ATOM     15  C   UNL     1      -8.058  -1.133   0.000  0.00  0.00    +0.000 A 
ATOM     16  C   UNL     1      -8.772  -1.545   0.000  0.00  0.00    +0.000 A 
ATOM     17 CL   UNL     1      -8.772  -2.370   0.000  0.00  0.00    +0.000 Cl
ATOM     18  C   UNL     1      -9.487  -1.133   0.000  0.00  0.00    +0.000 A 
ATOM     19  C   UNL     1      -9.487  -0.307   0.000  0.00  0.00    +0.000 A 
ENDBRANCH   1  13
BRANCH   1  20
ATOM     20  C   UNL     1      -8.058   1.343   0.000  0.00  0.00    +0.000 C 
BRANCH  20  21
ATOM     21  C   UNL     1      -7.343   0.930   0.000  0.00  0.00    +0.000 A 
ATOM     22  C   UNL     1      -6.629   1.343   0.000  0.00  0.00    +0.000 A 
ATOM     23  C   UNL     1      -5.915   0.930   0.000  0.00  0.00    +0.000 A 
ATOM     24  C   UNL     1      -5.915   0.105   0.000  0.00  0.00    +0.000 A 
ATOM     25  C   UNL     1      -6.629  -0.307   0.000  0.00  0.00    +0.000 A 
ATOM     26  C   UNL     1      -7.343   0.105   0.000  0.00  0.00    +0.000 A 
BRANCH  24  27
ATOM     27  C   UNL     1      -5.200  -0.307   0.000  0.00  0.00    +0.000 C 
ATOM     28  O   UNL     1      -5.200  -1.133   0.000  0.00  0.00    +0.000 OA
ATOM     29  N   UNL     1      -4.486   0.105   0.000  0.00  0.00    +0.000 NA
BRANCH  29  30
ATOM     30  C   UNL     1      -3.771  -0.307   0.000  0.00  0.00    +0.000 C 
BRANCH  30  31
ATOM     31  C   UNL     1      -3.057   0.105   0.000  0.00  0.00    +0.000 C 
BRANCH  31  32
ATOM     32  C   UNL     1      -2.342  -0.307   0.000  0.00  0.00    +0.000 C 
ATOM     33  O   UNL     1      -1.628   0.105   0.000  0.00  0.00    +0.000 OA
ATOM     34  O   UNL     1      -2.342  -1.133   0.000  0.00  0.00    +0.000 OA
ENDBRANCH  31  32
ENDBRANCH  30  31
ENDBRANCH  29  30
ENDBRANCH  24  27
ENDBRANCH  20  21
BRANCH  20  35
ATOM     35  C   UNL     1      -8.058   2.167   0.000  0.00  0.00    +0.000 C 
BRANCH  35  37
ATOM     36  C   UNL     1      -8.772   3.405   0.000  0.00  0.00    +0.000 C 
ATOM     37  C   UNL     1      -8.772   2.580   0.000  0.00  0.00    +0.000 C 
ENDBRANCH  35  37
ENDBRANCH  20  35
ENDBRANCH   1  20
TORSDOF 10
