REMARK  Name = 
REMARK  10 active torsions:
REMARK  status: ('A' for Active; 'I' for Inactive)
REMARK    1  A    between atoms: C_13  and  O_21
REMARK    2  A    between atoms: C_14  and  O_22
REMARK    3  A    between atoms: C_15  and  S_27
REMARK    4  A    between atoms: C_16  and  S_27
REMARK    5  A    between atoms: O_17  and  P_23
REMARK    6  A    between atoms: O_18  and  P_23
REMARK    7  A    between atoms: O_19  and  P_24
REMARK    8  A    between atoms: O_20  and  P_24
REMARK    9  A    between atoms: O_21  and  P_23
REMARK   10  A    between atoms: O_22  and  P_24
REMARK                            x       y       z     vdW  Elec       q    Type
REMARK                         _______ _______ _______ _____ _____    ______ ____
ROOT
ATOM      1  S   UNL     1       3.572   2.062   0.000  0.00  0.00    +0.000 S 
ENDROOT
BRANCH   1   7
ATOM      2  C   UNL     1       5.001   3.712   0.000  0.00  0.00    +0.000 A 
ATOM      3  C   UNL     1       5.716   2.475   0.000  0.00  0.00    +0.000 A 
ATOM      4  C   UNL     1       4.287   3.300   0.000  0.00  0.00    +0.000 A 
ATOM      5  C   UNL     1       5.001   2.062   0.000  0.00  0.00    +0.000 A 
ATOM      6  C   UNL     1       5.716   3.300   0.000  0.00  0.00    +0.000 A 
ATOM      7  C   UNL     1       4.287   2.475   0.000  0.00  0.00    +0.000 A 
BRANCH   6   8
ATOM      8  O   UNL     1       6.430   3.712   0.000  0.00  0.00    +0.000 OA
BRANCH   8   9
ATOM      9  P   UNL     1       6.430   4.537   0.000  0.00  0.00    +0.000 P 
ATOM     10  S   UNL     1       6.430   5.362   0.000  0.00  0.00    +0.000 S 
BRANCH   9  12
ATOM     11  C   UNL     1       7.668   5.252   0.000  0.00  0.00    +0.000 C 
ATOM     12  O   UNL     1       7.255   4.537   0.000  0.00  0.00    +0.000 OA
ENDBRANCH   9  12
BRANCH   9  14
ATOM     13  C   UNL     1       5.193   5.252   0.000  0.00  0.00    +0.000 C 
ATOM     14  O   UNL     1       5.605   4.537   0.000  0.00  0.00    +0.000 OA
ENDBRANCH   9  14
ENDBRANCH   8   9
ENDBRANCH   6   8
ENDBRANCH   1   7
BRANCH   1  20
ATOM     15  C   UNL     1       4.287   0.000   0.000  0.00  0.00    +0.000 A 
ATOM     16  C   UNL     1       2.858   0.000   0.000  0.00  0.00    +0.000 A 
ATOM     17  C   UNL     1       4.287   0.825   0.000  0.00  0.00    +0.000 A 
ATOM     18  C   UNL     1       2.858   0.825   0.000  0.00  0.00    +0.000 A 
ATOM     19  C   UNL     1       3.572  -0.412   0.000  0.00  0.00    +0.000 A 
ATOM     20  C   UNL     1       3.572   1.238   0.000  0.00  0.00    +0.000 A 
BRANCH  19  21
ATOM     21  O   UNL     1       3.572  -1.238   0.000  0.00  0.00    +0.000 OA
BRANCH  21  22
ATOM     22  P   UNL     1       2.858  -1.650   0.000  0.00  0.00    +0.000 P 
ATOM     23  S   UNL     1       2.143  -2.062   0.000  0.00  0.00    +0.000 S 
BRANCH  22  25
ATOM     24  C   UNL     1       2.858  -3.079   0.000  0.00  0.00    +0.000 C 
ATOM     25  O   UNL     1       3.270  -2.365   0.000  0.00  0.00    +0.000 OA
ENDBRANCH  22  25
BRANCH  22  27
ATOM     26  C   UNL     1       1.620  -0.935   0.000  0.00  0.00    +0.000 C 
ATOM     27  O   UNL     1       2.445  -0.935   0.000  0.00  0.00    +0.000 OA
ENDBRANCH  22  27
ENDBRANCH  21  22
ENDBRANCH  19  21
ENDBRANCH   1  20
TORSDOF 10
