REMARK  Name = 
REMARK  0 active torsions:
REMARK  status: ('A' for Active; 'I' for Inactive)
REMARK                            x       y       z     vdW  Elec       q    Type
REMARK                         _______ _______ _______ _____ _____    ______ ____
ROOT
ATOM      1  C   UNL     1      15.601 -18.130   0.000  0.00  0.00    +0.000 A 
ATOM      2  C   UNL     1      15.601 -18.955   0.000  0.00  0.00    +0.000 A 
ATOM      3  C   UNL     1      16.316 -19.367   0.000  0.00  0.00    +0.000 A 
ATOM      4  C   UNL     1      17.030 -18.955   0.000  0.00  0.00    +0.000 A 
ATOM      5  C   UNL     1      17.030 -18.130   0.000  0.00  0.00    +0.000 A 
ATOM      6  C   UNL     1      16.316 -17.717   0.000  0.00  0.00    +0.000 A 
ATOM      7  F   UNL     1      14.887 -19.367   0.000  0.00  0.00    +0.000 F 
ATOM      8  C   UNL     1      17.815 -19.210   0.000  0.00  0.00    +0.000 C 
ATOM      9  O   UNL     1      18.300 -18.542   0.000  0.00  0.00    +0.000 OA
ATOM     10  B   UNL     1      17.815 -17.875   0.000  0.00  0.00    +0.000 B 
ATOM     11  O   UNL     1      18.069 -17.093   0.000  0.00  0.00    +0.000 OA
ENDROOT
TORSDOF 0
