REMARK  Name = 
REMARK  4 active torsions:
REMARK  status: ('A' for Active; 'I' for Inactive)
REMARK    1  A    between atoms: C_15  and  N_19
REMARK    2  A    between atoms: C_20  and  C_22
REMARK    3  A    between atoms: C_22  and  N_23
REMARK    4  A    between atoms: C_24  and  C_34
REMARK                            x       y       z     vdW  Elec       q    Type
REMARK                         _______ _______ _______ _____ _____    ______ ____
ROOT
ATOM      1  N   UNL     1       6.532   6.220   0.000  0.00  0.00    +0.000 NA
ATOM      2  C   UNL     1       6.119   5.505   0.000  0.00  0.00    +0.000 C 
ATOM      3  O   UNL     1       5.294   5.505   0.000  0.00  0.00    +0.000 OA
ENDROOT
BRANCH   1  18
ATOM      4  C   UNL     1       2.173   7.349   0.000  0.00  0.00    +0.000 A 
ATOM      5  C   UNL     1       2.980   7.520   0.000  0.00  0.00    +0.000 A 
ATOM      6  C   UNL     1       3.235   8.305   0.000  0.00  0.00    +0.000 A 
ATOM      7  C   UNL     1       2.683   8.918   0.000  0.00  0.00    +0.000 A 
ATOM      8  N   UNL     1       1.876   8.746   0.000  0.00  0.00    +0.000 NA
ATOM      9  C   UNL     1       1.621   7.962   0.000  0.00  0.00    +0.000 A 
ATOM     10  N   UNL     1       3.095   9.632   0.000  0.00  0.00    +0.000 NA
ATOM     11  C   UNL     1       3.902   9.461   0.000  0.00  0.00    +0.000 C 
ATOM     12  O   UNL     1       4.516  10.013   0.000  0.00  0.00    +0.000 OA
ATOM     13  C   UNL     1       3.989   8.640   0.000  0.00  0.00    +0.000 C 
ATOM     14  C   UNL     1       4.742   8.976   0.000  0.00  0.00    +0.000 C 
ATOM     15  C   UNL     1       5.294   8.363   0.000  0.00  0.00    +0.000 A 
ATOM     16  C   UNL     1       6.119   8.363   0.000  0.00  0.00    +0.000 A 
ATOM     17  C   UNL     1       6.532   7.648   0.000  0.00  0.00    +0.000 A 
ATOM     18  C   UNL     1       6.119   6.934   0.000  0.00  0.00    +0.000 A 
ATOM     19  C   UNL     1       5.294   6.934   0.000  0.00  0.00    +0.000 A 
ATOM     20  C   UNL     1       4.882   7.648   0.000  0.00  0.00    +0.000 A 
ATOM     21  C   UNL     1       4.075   7.820   0.000  0.00  0.00    +0.000 C 
ENDBRANCH   1  18
BRANCH   2  22
ATOM     22  C   UNL     1       6.532   4.790   0.000  0.00  0.00    +0.000 C 
BRANCH  22  23
ATOM     23  N   UNL     1       6.119   4.076   0.000  0.00  0.00    +0.000 N 
ATOM     24  C   UNL     1       6.532   3.362   0.000  0.00  0.00    +0.000 C 
ATOM     25  C   UNL     1       6.119   2.647   0.000  0.00  0.00    +0.000 C 
ATOM     26  N   UNL     1       5.294   2.647   0.000  0.00  0.00    +0.000 NA
ATOM     27  C   UNL     1       4.882   3.362   0.000  0.00  0.00    +0.000 C 
ATOM     28  C   UNL     1       5.294   4.076   0.000  0.00  0.00    +0.000 C 
ATOM     29  O   UNL     1       4.882   4.790   0.000  0.00  0.00    +0.000 OA
ATOM     30  C   UNL     1       4.397   2.694   0.000  0.00  0.00    +0.000 C 
ATOM     31  C   UNL     1       3.612   2.949   0.000  0.00  0.00    +0.000 C 
ATOM     32  C   UNL     1       3.612   3.774   0.000  0.00  0.00    +0.000 C 
ATOM     33  C   UNL     1       4.397   4.029   0.000  0.00  0.00    +0.000 C 
BRANCH  24  34
ATOM     34  C   UNL     1       7.357   3.362   0.000  0.00  0.00    +0.000 A 
ATOM     35  C   UNL     1       7.769   4.076   0.000  0.00  0.00    +0.000 A 
ATOM     36  C   UNL     1       8.594   4.076   0.000  0.00  0.00    +0.000 A 
ATOM     37  C   UNL     1       9.007   3.362   0.000  0.00  0.00    +0.000 A 
ATOM     38  C   UNL     1       8.594   2.647   0.000  0.00  0.00    +0.000 A 
ATOM     39  C   UNL     1       7.769   2.647   0.000  0.00  0.00    +0.000 A 
ATOM     40  F   UNL     1       9.007   1.933   0.000  0.00  0.00    +0.000 F 
ATOM     41  F   UNL     1       9.007   4.790   0.000  0.00  0.00    +0.000 F 
ENDBRANCH  24  34
ENDBRANCH  22  23
ENDBRANCH   2  22
TORSDOF 4
