REMARK  Name = 
REMARK  2 active torsions:
REMARK  status: ('A' for Active; 'I' for Inactive)
REMARK    1  A    between atoms: C_1  and  N_2
REMARK    2  A    between atoms: C_13  and  S_15
REMARK                            x       y       z     vdW  Elec       q    Type
REMARK                         _______ _______ _______ _____ _____    ______ ____
ROOT
ATOM      1  C   UNL     1      -0.252  -0.322   0.000  0.00  0.00    +0.000 A 
ATOM      2  C   UNL     1       0.168   0.395   0.000  0.00  0.00    +0.000 A 
ATOM      3  C   UNL     1       0.168  -1.038   0.000  0.00  0.00    +0.000 A 
ATOM      4  C   UNL     1       0.988   0.395   0.000  0.00  0.00    +0.000 A 
ATOM      5  C   UNL     1       0.988  -1.038   0.000  0.00  0.00    +0.000 A 
ATOM      6  C   UNL     1       1.397  -0.322   0.000  0.00  0.00    +0.000 A 
ENDROOT
BRANCH   1   7
ATOM      7  N   UNL     1      -1.066  -0.322   0.000  0.00  0.00    +0.000 N 
ATOM      8  S   UNL     1      -1.473   0.395   0.000  0.00  0.00    +0.000 S 
ATOM      9  C   UNL     1      -1.473  -1.038   0.000  0.00  0.00    +0.000 C 
ATOM     10  C   UNL     1      -2.301   0.395   0.000  0.00  0.00    +0.000 C 
ATOM     11  O   UNL     1      -1.837   1.062   0.000  0.00  0.00    +0.000 OA
ATOM     12  O   UNL     1      -0.971   1.043   0.000  0.00  0.00    +0.000 OA
ATOM     13  C   UNL     1      -2.301  -1.038   0.000  0.00  0.00    +0.000 C 
ATOM     14  C   UNL     1      -2.711  -0.322   0.000  0.00  0.00    +0.000 C 
ENDBRANCH   1   7
BRANCH   6  15
ATOM     15  S   UNL     1       1.989  -0.313   0.000  0.00  0.00    +0.000 S 
ATOM     16  N   UNL     1       2.711  -0.313   0.000  0.00  0.00    +0.000 NA
ATOM     17  O   UNL     1       1.989   0.395   0.000  0.00  0.00    +0.000 OA
ATOM     18  O   UNL     1       1.989  -1.062   0.000  0.00  0.00    +0.000 OA
ENDBRANCH   6  15
TORSDOF 2
