REMARK  Name = 
REMARK  3 active torsions:
REMARK  status: ('A' for Active; 'I' for Inactive)
REMARK    1  A    between atoms: N_2  and  C_9
REMARK    2  A    between atoms: N_4  and  C_13
REMARK    3  A    between atoms: C_9  and  C_12
REMARK                            x       y       z     vdW  Elec       q    Type
REMARK                         _______ _______ _______ _____ _____    ______ ____
ROOT
ATOM      1  N   UNL     1      -0.632  -0.456   0.000  0.00  0.00    +0.000 N 
ATOM      2  N   UNL     1      -0.632   0.877   0.000  0.00  0.00    +0.000 NA
ATOM      3  N   UNL     1       0.683   0.211   0.000  0.00  0.00    +0.000 NA
ATOM      4  C   UNL     1      -1.418  -0.199   0.000  0.00  0.00    +0.000 A 
ATOM      5  C   UNL     1      -0.148   0.211   0.000  0.00  0.00    +0.000 A 
ATOM      6  C   UNL     1      -1.418   0.626   0.000  0.00  0.00    +0.000 A 
ATOM      7  C   UNL     1      -2.136  -0.615   0.000  0.00  0.00    +0.000 A 
ATOM      8  C   UNL     1      -2.136   1.036   0.000  0.00  0.00    +0.000 A 
ATOM      9  C   UNL     1      -2.848  -0.199   0.000  0.00  0.00    +0.000 A 
ATOM     10  C   UNL     1      -2.848   0.626   0.000  0.00  0.00    +0.000 A 
ENDROOT
BRANCH   3  12
ATOM     11  N   UNL     1       1.919   2.358   0.000  0.00  0.00    +0.000 NA
ATOM     12  C   UNL     1       1.099   0.928   0.000  0.00  0.00    +0.000 C 
ATOM     13  C   UNL     1       1.919   0.928   0.000  0.00  0.00    +0.000 C 
ATOM     14  C   UNL     1       0.683   1.640   0.000  0.00  0.00    +0.000 C 
ATOM     15  C   UNL     1       2.335   1.640   0.000  0.00  0.00    +0.000 C 
ATOM     16  C   UNL     1       1.099   2.358   0.000  0.00  0.00    +0.000 C 
ENDBRANCH   3  12
BRANCH   1  17
ATOM     17  C   UNL     1      -0.382  -1.230   0.000  0.00  0.00    +0.000 C 
BRANCH  17  19
ATOM     18  F   UNL     1       2.848  -1.919   0.000  0.00  0.00    +0.000 F 
ATOM     19  C   UNL     1       0.421  -1.401   0.000  0.00  0.00    +0.000 A 
ATOM     20  C   UNL     1       0.672  -2.187   0.000  0.00  0.00    +0.000 A 
ATOM     21  C   UNL     1       0.968  -0.792   0.000  0.00  0.00    +0.000 A 
ATOM     22  C   UNL     1       2.033  -1.743   0.000  0.00  0.00    +0.000 A 
ATOM     23  C   UNL     1       1.481  -2.358   0.000  0.00  0.00    +0.000 A 
ATOM     24  C   UNL     1       1.777  -0.963   0.000  0.00  0.00    +0.000 A 
ENDBRANCH  17  19
ENDBRANCH   1  17
TORSDOF 3
