REMARK  Name = 
REMARK  8 active torsions:
REMARK  status: ('A' for Active; 'I' for Inactive)
REMARK    1  A    between atoms: N_1  and  C_2
REMARK    2  A    between atoms: C_11  and  C_14
REMARK    3  A    between atoms: C_13  and  C_23
REMARK    4  A    between atoms: N_19  and  C_21
REMARK    5  A    between atoms: C_24  and  C_25
REMARK    6  A    between atoms: C_25  and  C_26
REMARK    7  A    between atoms: C_29  and  C_32
REMARK    8  A    between atoms: C_32  and  O_33
REMARK                            x       y       z     vdW  Elec       q    Type
REMARK                         _______ _______ _______ _____ _____    ______ ____
ROOT
ATOM      1  N   UNL     1      -2.364   0.329   0.000  0.00  0.00    +0.000 N 
ATOM      2  C   UNL     1      -1.641   0.577   0.000  0.00  0.00    +0.000 A 
ATOM      3  C   UNL     1      -2.864   1.041   0.000  0.00  0.00    +0.000 A 
ATOM      4  C   UNL     1      -1.647   1.485   0.000  0.00  0.00    +0.000 A 
ATOM      5  N   UNL     1      -0.919   0.151   0.000  0.00  0.00    +0.000 NA
ATOM      6  N   UNL     1      -2.355   1.728   0.000  0.00  0.00    +0.000 NA
ATOM      7  C   UNL     1      -0.949   1.893   0.000  0.00  0.00    +0.000 A 
ATOM      8  C   UNL     1      -0.175   0.576   0.000  0.00  0.00    +0.000 A 
ATOM      9  N   UNL     1      -0.180   1.453   0.000  0.00  0.00    +0.000 NA
ATOM     10  N   UNL     1      -0.955   2.703   0.000  0.00  0.00    +0.000 NA
ENDROOT
BRANCH   1  11
ATOM     11  C   UNL     1      -2.611  -0.436   0.000  0.00  0.00    +0.000 C 
ATOM     12  C   UNL     1      -2.162  -1.074   0.000  0.00  0.00    +0.000 C 
ATOM     13  O   UNL     1      -3.409  -0.680   0.000  0.00  0.00    +0.000 OA
ATOM     14  C   UNL     1      -2.641  -1.733   0.000  0.00  0.00    +0.000 C 
ATOM     15  C   UNL     1      -3.414  -1.481   0.000  0.00  0.00    +0.000 C 
ATOM     16  O   UNL     1      -1.381  -1.079   0.000  0.00  0.00    +0.000 OA
ATOM     17  O   UNL     1      -2.386  -2.518   0.000  0.00  0.00    +0.000 OA
BRANCH  15  18
ATOM     18  C   UNL     1      -4.114  -1.878   0.000  0.00  0.00    +0.000 C 
ATOM     19  N   UNL     1      -4.825  -1.460   0.000  0.00  0.00    +0.000 NA
ATOM     20  O   UNL     1      -4.120  -2.703   0.000  0.00  0.00    +0.000 OA
BRANCH  19  21
ATOM     21  C   UNL     1      -5.543  -1.867   0.000  0.00  0.00    +0.000 C 
ATOM     22  C   UNL     1      -6.254  -1.449   0.000  0.00  0.00    +0.000 C 
ENDBRANCH  19  21
ENDBRANCH  15  18
ENDBRANCH   1  11
BRANCH   8  23
ATOM     23  C   UNL     1       0.539   0.164   0.000  0.00  0.00    +0.000 C 
ATOM     24  C   UNL     1       1.250  -0.247   0.000  0.00  0.00    +0.000 C 
BRANCH  24  25
ATOM     25  C   UNL     1       1.963  -0.660   0.000  0.00  0.00    +0.000 C 
BRANCH  25  26
ATOM     26  C   UNL     1       2.678  -0.248   0.000  0.00  0.00    +0.000 C 
ATOM     27  C   UNL     1       3.390  -0.666   0.000  0.00  0.00    +0.000 C 
ATOM     28  C   UNL     1       4.103  -0.257   0.000  0.00  0.00    +0.000 C 
ATOM     29  C   UNL     1       4.108   0.568   0.000  0.00  0.00    +0.000 C 
ATOM     30  C   UNL     1       3.394   0.984   0.000  0.00  0.00    +0.000 C 
ATOM     31  C   UNL     1       2.675   0.574   0.000  0.00  0.00    +0.000 C 
BRANCH  29  32
ATOM     32  C   UNL     1       4.825   0.977   0.000  0.00  0.00    +0.000 C 
ATOM     33  O   UNL     1       4.829   1.802   0.000  0.00  0.00    +0.000 OA
BRANCH  32  34
ATOM     34  O   UNL     1       5.537   0.561   0.000  0.00  0.00    +0.000 OA
ATOM     35  C   UNL     1       6.254   0.970   0.000  0.00  0.00    +0.000 C 
ENDBRANCH  32  34
ENDBRANCH  29  32
ENDBRANCH  25  26
ENDBRANCH  24  25
ENDBRANCH   8  23
TORSDOF 8
