REMARK  Name = 
REMARK  6 active torsions:
REMARK  status: ('A' for Active; 'I' for Inactive)
REMARK    1  A    between atoms: C_2  and  C_13
REMARK    2  A    between atoms: N_6  and  C_7
REMARK    3  A    between atoms: C_7  and  C_8
REMARK    4  A    between atoms: C_16  and  N_17
REMARK    5  A    between atoms: N_17  and  S_18
REMARK    6  A    between atoms: S_18  and  C_21
REMARK                            x       y       z     vdW  Elec       q    Type
REMARK                         _______ _______ _______ _____ _____    ______ ____
ROOT
ATOM      1  C   UNL     1      -2.143   2.888   0.000  0.00  0.00    +0.000 A 
ATOM      2  C   UNL     1      -1.429   3.300   0.000  0.00  0.00    +0.000 A 
ATOM      3  C   UNL     1      -0.715   2.888   0.000  0.00  0.00    +0.000 A 
ATOM      4  C   UNL     1      -0.715   2.062   0.000  0.00  0.00    +0.000 A 
ATOM      5  C   UNL     1      -1.429   1.650   0.000  0.00  0.00    +0.000 A 
ATOM      6  C   UNL     1      -2.143   2.062   0.000  0.00  0.00    +0.000 A 
ENDROOT
BRANCH   1   8
ATOM      7  O   UNL     1      -2.858   4.125   0.000  0.00  0.00    +0.000 OA
ATOM      8  C   UNL     1      -2.858   3.300   0.000  0.00  0.00    +0.000 C 
ATOM      9  N   UNL     1      -3.572   2.888   0.000  0.00  0.00    +0.000 N 
ATOM     10  C   UNL     1      -3.572   2.062   0.000  0.00  0.00    +0.000 C 
ATOM     11  C   UNL     1      -4.287   1.650   0.000  0.00  0.00    +0.000 C 
ATOM     12  N   UNL     1      -5.001   2.062   0.000  0.00  0.00    +0.000 NA
ATOM     13  C   UNL     1      -5.001   2.888   0.000  0.00  0.00    +0.000 C 
ATOM     14  C   UNL     1      -4.287   3.300   0.000  0.00  0.00    +0.000 C 
BRANCH  12  15
ATOM     15  C   UNL     1      -5.716   1.650   0.000  0.00  0.00    +0.000 C 
BRANCH  15  16
ATOM     16  C   UNL     1      -6.430   2.062   0.000  0.00  0.00    +0.000 C 
ATOM     17  C   UNL     1      -7.255   2.062   0.000  0.00  0.00    +0.000 C 
ATOM     18  C   UNL     1      -6.843   2.777   0.000  0.00  0.00    +0.000 C 
ENDBRANCH  15  16
ENDBRANCH  12  15
ENDBRANCH   1   8
BRANCH   4  19
ATOM     19  N   UNL     1       0.000   1.650   0.000  0.00  0.00    +0.000 NA
BRANCH  19  20
ATOM     20  S   UNL     1       0.000   0.825   0.000  0.00  0.00    +0.000 S 
ATOM     21  O   UNL     1      -0.825   0.825   0.000  0.00  0.00    +0.000 OA
ATOM     22  O   UNL     1       0.825   0.825   0.000  0.00  0.00    +0.000 OA
BRANCH  20  23
ATOM     23  C   UNL     1       0.000   0.000   0.000  0.00  0.00    +0.000 A 
ATOM     24  C   UNL     1      -0.715  -0.412   0.000  0.00  0.00    +0.000 A 
ATOM     25  C   UNL     1      -0.715  -1.238   0.000  0.00  0.00    +0.000 A 
ATOM     26  C   UNL     1       0.000  -1.650   0.000  0.00  0.00    +0.000 A 
ATOM     27  C   UNL     1       0.715  -1.238   0.000  0.00  0.00    +0.000 A 
ATOM     28  C   UNL     1       0.715  -0.412   0.000  0.00  0.00    +0.000 A 
ATOM     29  N   UNL     1       1.429   0.000   0.000  0.00  0.00    +0.000 NA
ATOM     30  C   UNL     1       2.143  -0.412   0.000  0.00  0.00    +0.000 A 
ATOM     31  C   UNL     1       2.143  -1.238   0.000  0.00  0.00    +0.000 A 
ATOM     32  C   UNL     1       1.429  -1.650   0.000  0.00  0.00    +0.000 A 
ENDBRANCH  20  23
ENDBRANCH  19  20
ENDBRANCH   4  19
TORSDOF 6
