REMARK  Name = 
REMARK  1 active torsions:
REMARK  status: ('A' for Active; 'I' for Inactive)
REMARK    1  A    between atoms: N_12  and  C_15
REMARK                            x       y       z     vdW  Elec       q    Type
REMARK                         _______ _______ _______ _____ _____    ______ ____
ROOT
ATOM      1  C   UNL     1      -2.862  -0.471   0.000  0.00  0.00    +0.000 A 
ATOM      2  C   UNL     1      -2.862  -1.296   0.000  0.00  0.00    +0.000 A 
ATOM      3  C   UNL     1      -2.148  -1.709   0.000  0.00  0.00    +0.000 A 
ATOM      4  C   UNL     1      -1.433  -1.296   0.000  0.00  0.00    +0.000 A 
ATOM      5  C   UNL     1      -1.433  -0.471   0.000  0.00  0.00    +0.000 A 
ATOM      6  C   UNL     1      -2.148  -0.059   0.000  0.00  0.00    +0.000 A 
ATOM      7  S   UNL     1      -0.719  -1.709   0.000  0.00  0.00    +0.000 S 
ATOM      8  N   UNL     1      -0.004  -1.296   0.000  0.00  0.00    +0.000 N 
ATOM      9  C   UNL     1      -0.004  -0.471   0.000  0.00  0.00    +0.000 A 
ATOM     10  C   UNL     1      -0.719  -0.059   0.000  0.00  0.00    +0.000 A 
ATOM     11  C   UNL     1       0.710  -0.059   0.000  0.00  0.00    +0.000 A 
ATOM     12  N   UNL     1       0.710   0.766   0.000  0.00  0.00    +0.000 N 
ATOM     13  C   UNL     1      -0.004   1.179   0.000  0.00  0.00    +0.000 A 
ATOM     14  O   UNL     1      -0.719   0.766   0.000  0.00  0.00    +0.000 OA
ATOM     15  O   UNL     1      -0.004   2.003   0.000  0.00  0.00    +0.000 OA
ATOM     16  C   UNL     1       0.701  -1.704   0.000  0.00  0.00    +0.000 C 
ATOM     17  O   UNL     1       1.437  -0.478   0.000  0.00  0.00    +0.000 OA
ATOM     18  O   UNL     1      -1.131  -2.423   0.000  0.00  0.00    +0.000 OA
ATOM     19  O   UNL     1      -0.306  -2.423   0.000  0.00  0.00    +0.000 OA
ENDROOT
BRANCH  12  20
ATOM     20  C   UNL     1       1.437   1.186   0.000  0.00  0.00    +0.000 A 
ATOM     21  C   UNL     1       2.148   0.775   0.000  0.00  0.00    +0.000 A 
ATOM     22  C   UNL     1       2.862   1.188   0.000  0.00  0.00    +0.000 A 
ATOM     23  C   UNL     1       2.862   2.013   0.000  0.00  0.00    +0.000 A 
ATOM     24  C   UNL     1       2.151   2.423   0.000  0.00  0.00    +0.000 A 
ATOM     25  N   UNL     1       1.437   2.011   0.000  0.00  0.00    +0.000 NA
ENDBRANCH  12  20
TORSDOF 1
