REMARK  Name = 
REMARK  5 active torsions:
REMARK  status: ('A' for Active; 'I' for Inactive)
REMARK    1  A    between atoms: C_14  and  O_21
REMARK    2  A    between atoms: O_21  and  C_22
REMARK    3  A    between atoms: C_22  and  C_24
REMARK    4  A    between atoms: C_24  and  C_25
REMARK    5  A    between atoms: C_25  and  C_26
REMARK                            x       y       z     vdW  Elec       q    Type
REMARK                         _______ _______ _______ _____ _____    ______ ____
ROOT
ATOM      1  C   UNL     1      -2.375  -1.659   0.000  0.00  0.00    +0.000 C 
ATOM      2  C   UNL     1      -2.375  -2.489   0.000  0.00  0.00    +0.000 C 
ATOM      3  C   UNL     1      -3.078  -2.901   0.000  0.00  0.00    +0.000 C 
ATOM      4  C   UNL     1      -3.794  -2.489   0.000  0.00  0.00    +0.000 C 
ATOM      5  C   UNL     1      -3.794  -1.659   0.000  0.00  0.00    +0.000 C 
ATOM      6  C   UNL     1      -3.078  -1.251   0.000  0.00  0.00    +0.000 C 
ATOM      7  O   UNL     1      -4.515  -2.901   0.000  0.00  0.00    +0.000 OA
ATOM      8  C   UNL     1      -1.654  -2.901   0.000  0.00  0.00    +0.000 C 
ATOM      9  C   UNL     1      -0.934  -2.489   0.000  0.00  0.00    +0.000 C 
ATOM     10  C   UNL     1      -0.934  -1.659   0.000  0.00  0.00    +0.000 C 
ATOM     11  C   UNL     1      -0.231  -1.251   0.000  0.00  0.00    +0.000 C 
ATOM     12  C   UNL     1       0.558  -1.500   0.000  0.00  0.00    +0.000 C 
ATOM     13  C   UNL     1       1.042  -0.834   0.000  0.00  0.00    +0.000 C 
ATOM     14  C   UNL     1       0.558  -0.172   0.000  0.00  0.00    +0.000 C 
ATOM     15  C   UNL     1      -0.231  -0.426   0.000  0.00  0.00    +0.000 C 
ATOM     16  C   UNL     1      -0.934  -0.014   0.000  0.00  0.00    +0.000 C 
ATOM     17  C   UNL     1      -1.654  -0.426   0.000  0.00  0.00    +0.000 C 
ATOM     18  C   UNL     1      -1.654  -1.251   0.000  0.00  0.00    +0.000 C 
ATOM     19  C   UNL     1      -0.231   0.353   0.000  0.00  0.00    +0.000 C 
ATOM     20  C   UNL     1      -2.375  -0.834   0.000  0.00  0.00    +0.000 C 
ENDROOT
BRANCH  14  21
ATOM     21  O   UNL     1       0.816   0.612   0.000  0.00  0.00    +0.000 OA
BRANCH  21  22
ATOM     22  C   UNL     1       1.587   0.612   0.000  0.00  0.00    +0.000 C 
ATOM     23  O   UNL     1       1.954   0.068   0.000  0.00  0.00    +0.000 OA
BRANCH  22  24
ATOM     24  C   UNL     1       1.954   1.305   0.000  0.00  0.00    +0.000 C 
BRANCH  24  25
ATOM     25  C   UNL     1       2.575   1.305   0.000  0.00  0.00    +0.000 C 
BRANCH  25  26
ATOM     26  C   UNL     1       3.096   1.659   0.000  0.00  0.00    +0.000 A 
ATOM     27  C   UNL     1       3.096   2.493   0.000  0.00  0.00    +0.000 A 
ATOM     28  C   UNL     1       3.812   2.901   0.000  0.00  0.00    +0.000 A 
ATOM     29  C   UNL     1       4.515   2.493   0.000  0.00  0.00    +0.000 A 
ATOM     30  C   UNL     1       4.515   1.659   0.000  0.00  0.00    +0.000 A 
ATOM     31  C   UNL     1       3.812   1.251   0.000  0.00  0.00    +0.000 A 
ENDBRANCH  25  26
ENDBRANCH  24  25
ENDBRANCH  22  24
ENDBRANCH  21  22
ENDBRANCH  14  21
TORSDOF 5
