REMARK  Name = 
REMARK  0 active torsions:
REMARK  status: ('A' for Active; 'I' for Inactive)
REMARK                            x       y       z     vdW  Elec       q    Type
REMARK                         _______ _______ _______ _____ _____    ______ ____
ROOT
ATOM      1  O   UNL     1       1.100   0.000   0.000  0.00  0.00    +0.000 OA
ATOM      2 SI   UNL     1       0.275   0.000   0.000  0.00  0.00    +0.000 Si
ATOM      3  O   UNL     1       0.275   0.825   0.000  0.00  0.00    +0.000 OA
ATOM      4  O   UNL     1       0.275  -0.825   0.000  0.00  0.00    +0.000 OA
ATOM      5  O   UNL     1      -0.550   0.000   0.000  0.00  0.00    +0.000 OA
ENDROOT
TORSDOF 0
REMARK  Name = 
REMARK  0 active torsions:
REMARK  status: ('A' for Active; 'I' for Inactive)
REMARK                            x       y       z     vdW  Elec       q    Type
REMARK                         _______ _______ _______ _____ _____    ______ ____
ROOT
ATOM      1  O   UNL     1       4.164  -0.825   0.000  0.00  0.00    +0.000 OA
ATOM      2 SI   UNL     1       4.164   0.000   0.000  0.00  0.00    +0.000 Si
ATOM      3  O   UNL     1       4.164   0.825   0.000  0.00  0.00    +0.000 OA
ATOM      4  O   UNL     1       4.989   0.000   0.000  0.00  0.00    +0.000 OA
ATOM      5  O   UNL     1       3.339   0.000   0.000  0.00  0.00    +0.000 OA
ENDROOT
TORSDOF 0
REMARK  Name = 
REMARK  0 active torsions:
REMARK  status: ('A' for Active; 'I' for Inactive)
REMARK                            x       y       z     vdW  Elec       q    Type
REMARK                         _______ _______ _______ _____ _____    ______ ____
ROOT
ATOM      1 CA   UNL     1      -1.375   0.000   0.000  0.00  0.00    +0.000 Ca
ENDROOT
TORSDOF 0
