REMARK  Name = 
REMARK  6 active torsions:
REMARK  status: ('A' for Active; 'I' for Inactive)
REMARK    1  A    between atoms: C_4  and  N_5
REMARK    2  A    between atoms: N_8  and  C_9
REMARK    3  A    between atoms: C_9  and  C_10
REMARK    4  A    between atoms: C_10  and  C_11
REMARK    5  A    between atoms: C_11  and  C_12
REMARK    6  A    between atoms: C_12  and  N_13
REMARK                            x       y       z     vdW  Elec       q    Type
REMARK                         _______ _______ _______ _____ _____    ______ ____
ROOT
ATOM      1  N   UNL     1       1.429   0.825   0.000  0.00  0.00    +0.000 N 
ATOM      2  C   UNL     1       0.715   1.238   0.000  0.00  0.00    +0.000 C 
ATOM      3  C   UNL     1       0.715   2.062   0.000  0.00  0.00    +0.000 C 
ATOM      4  N   UNL     1       1.429   2.475   0.000  0.00  0.00    +0.000 NA
ATOM      5  C   UNL     1       2.143   2.062   0.000  0.00  0.00    +0.000 C 
ATOM      6  C   UNL     1       2.143   1.238   0.000  0.00  0.00    +0.000 C 
ENDROOT
BRANCH   1  10
ATOM      7 CL   UNL     1       0.000  -1.650   0.000  0.00  0.00    +0.000 Cl
ATOM      8  C   UNL     1       0.715  -1.238   0.000  0.00  0.00    +0.000 A 
ATOM      9  C   UNL     1       0.715  -0.412   0.000  0.00  0.00    +0.000 A 
ATOM     10  C   UNL     1       1.429   0.000   0.000  0.00  0.00    +0.000 A 
ATOM     11  C   UNL     1       2.143  -0.412   0.000  0.00  0.00    +0.000 A 
ATOM     12  O   UNL     1       2.858   0.000   0.000  0.00  0.00    +0.000 OA
ATOM     13  C   UNL     1       3.572  -0.412   0.000  0.00  0.00    +0.000 C 
ATOM     14  C   UNL     1       3.572  -1.238   0.000  0.00  0.00    +0.000 C 
ATOM     15  O   UNL     1       2.858  -1.650   0.000  0.00  0.00    +0.000 OA
ATOM     16  C   UNL     1       2.143  -1.238   0.000  0.00  0.00    +0.000 A 
ATOM     17  C   UNL     1       1.429  -1.650   0.000  0.00  0.00    +0.000 A 
ENDBRANCH   1  10
BRANCH   4  18
ATOM     18  C   UNL     1       1.429   3.300   0.000  0.00  0.00    +0.000 C 
BRANCH  18  19
ATOM     19  C   UNL     1       2.143   3.712   0.000  0.00  0.00    +0.000 C 
BRANCH  19  20
ATOM     20  C   UNL     1       2.143   4.537   0.000  0.00  0.00    +0.000 C 
BRANCH  20  21
ATOM     21  C   UNL     1       2.858   4.950   0.000  0.00  0.00    +0.000 C 
BRANCH  21  22
ATOM     22  N   UNL     1       2.858   5.775   0.000  0.00  0.00    +0.000 N 
ATOM     23  C   UNL     1       3.525   6.260   0.000  0.00  0.00    +0.000 C 
ATOM     24  O   UNL     1       4.310   6.005   0.000  0.00  0.00    +0.000 OA
ATOM     25  C   UNL     1       3.270   7.045   0.000  0.00  0.00    +0.000 A 
ATOM     26  C   UNL     1       2.445   7.045   0.000  0.00  0.00    +0.000 A 
ATOM     27  C   UNL     1       2.033   7.759   0.000  0.00  0.00    +0.000 A 
ATOM     28  C   UNL     1       2.445   8.473   0.000  0.00  0.00    +0.000 A 
ATOM     29  C   UNL     1       3.270   8.473   0.000  0.00  0.00    +0.000 A 
ATOM     30  C   UNL     1       3.683   7.759   0.000  0.00  0.00    +0.000 A 
ATOM     31  S   UNL     1       2.190   6.260   0.000  0.00  0.00    +0.000 S 
ATOM     32  O   UNL     1       1.382   6.423   0.000  0.00  0.00    +0.000 OA
ATOM     33  O   UNL     1       1.632   5.653   0.000  0.00  0.00    +0.000 OA
ENDBRANCH  21  22
ENDBRANCH  20  21
ENDBRANCH  19  20
ENDBRANCH  18  19
ENDBRANCH   4  18
TORSDOF 6
