REMARK  Name = 
REMARK  5 active torsions:
REMARK  status: ('A' for Active; 'I' for Inactive)
REMARK    1  A    between atoms: C_11  and  N_19
REMARK    2  A    between atoms: C_12  and  S_27
REMARK    3  A    between atoms: C_13  and  C_15
REMARK    4  A    between atoms: C_14  and  C_16
REMARK    5  A    between atoms: N_20  and  S_27
REMARK                            x       y       z     vdW  Elec       q    Type
REMARK                         _______ _______ _______ _____ _____    ______ ____
ROOT
ATOM      1  C   UNL     1       6.324   3.528   0.000  0.00  0.00    +0.000 A 
ATOM      2  C   UNL     1       7.038   2.290   0.000  0.00  0.00    +0.000 A 
ATOM      3  C   UNL     1       5.609   3.115   0.000  0.00  0.00    +0.000 A 
ATOM      4  C   UNL     1       6.324   1.878   0.000  0.00  0.00    +0.000 A 
ATOM      5  C   UNL     1       7.038   3.115   0.000  0.00  0.00    +0.000 A 
ATOM      6  C   UNL     1       5.609   2.290   0.000  0.00  0.00    +0.000 A 
ENDROOT
BRANCH   5   8
ATOM      7  C   UNL     1       8.467   3.115   0.000  0.00  0.00    +0.000 C 
ATOM      8  N   UNL     1       7.753   3.528   0.000  0.00  0.00    +0.000 NA
ATOM      9  O   UNL     1       8.467   2.290   0.000  0.00  0.00    +0.000 OA
BRANCH   7  14
ATOM     10  C   UNL     1      10.610   3.528   0.000  0.00  0.00    +0.000 A 
ATOM     11  C   UNL     1      10.610   4.353   0.000  0.00  0.00    +0.000 A 
ATOM     12  C   UNL     1       9.896   3.115   0.000  0.00  0.00    +0.000 A 
ATOM     13  C   UNL     1       9.896   4.765   0.000  0.00  0.00    +0.000 A 
ATOM     14  C   UNL     1       9.181   3.528   0.000  0.00  0.00    +0.000 A 
ATOM     15  C   UNL     1       9.181   4.353   0.000  0.00  0.00    +0.000 A 
BRANCH  15  16
ATOM     16  C   UNL     1       8.467   4.765   0.000  0.00  0.00    +0.000 C 
ATOM     17  O   UNL     1       7.753   4.353   0.000  0.00  0.00    +0.000 OA
ATOM     18  O   UNL     1       8.467   5.590   0.000  0.00  0.00    +0.000 OA
ENDBRANCH  15  16
ENDBRANCH   7  14
ENDBRANCH   5   8
BRANCH   6  21
ATOM     19  O   UNL     1       4.482   2.592   0.000  0.00  0.00    +0.000 OA
ATOM     20  O   UNL     1       5.307   1.163   0.000  0.00  0.00    +0.000 OA
ATOM     21  S   UNL     1       4.895   1.878   0.000  0.00  0.00    +0.000 S 
BRANCH  21  26
ATOM     22  C   UNL     1       3.768  -0.629   0.000  0.00  0.00    +0.000 A 
ATOM     23  C   UNL     1       4.593  -0.629   0.000  0.00  0.00    +0.000 A 
ATOM     24  C   UNL     1       4.180   0.640   0.000  0.00  0.00    +0.000 A 
ATOM     25  N   UNL     1       3.513   0.155   0.000  0.00  0.00    +0.000 NA
ATOM     26  N   UNL     1       4.180   1.465   0.000  0.00  0.00    +0.000 NA
ATOM     27  S   UNL     1       4.848   0.155   0.000  0.00  0.00    +0.000 S 
ENDBRANCH  21  26
ENDBRANCH   6  21
TORSDOF 5
