REMARK  Name = 
REMARK  0 active torsions:
REMARK  status: ('A' for Active; 'I' for Inactive)
REMARK                            x       y       z     vdW  Elec       q    Type
REMARK                         _______ _______ _______ _____ _____    ______ ____
ROOT
ATOM      1 CL   UNL     1      -0.481  -0.058   0.000  0.00  0.00    +0.000 Cl
ATOM      2  O   UNL     1       0.229  -0.473   0.000  0.00  0.00    +0.000 OA
ATOM      3  O   UNL     1      -1.196  -0.473   0.000  0.00  0.00    +0.000 OA
ATOM      4  O   UNL     1      -0.080   0.657   0.000  0.00  0.00    +0.000 OA
ATOM      5  O   UNL     1      -0.896   0.657   0.000  0.00  0.00    +0.000 OA
ENDROOT
TORSDOF 0
REMARK  Name = 
REMARK  0 active torsions:
REMARK  status: ('A' for Active; 'I' for Inactive)
REMARK                            x       y       z     vdW  Elec       q    Type
REMARK                         _______ _______ _______ _____ _____    ______ ____
ROOT
ATOM      1  K   UNL     1       1.196  -0.657   0.000  0.00  0.00    +0.000 K 
ENDROOT
TORSDOF 0
