REMARK  Name = 
REMARK  7 active torsions:
REMARK  status: ('A' for Active; 'I' for Inactive)
REMARK    1  A    between atoms: C_2  and  O_21
REMARK    2  A    between atoms: C_6  and  C_18
REMARK    3  A    between atoms: C_8  and  C_11
REMARK    4  A    between atoms: C_18  and  C_19
REMARK    5  A    between atoms: N_26  and  CA_27
REMARK    6  A    between atoms: CA_27  and  C_28
REMARK    7  A    between atoms: CA_27  and  C_29
REMARK                            x       y       z     vdW  Elec       q    Type
REMARK                         _______ _______ _______ _____ _____    ______ ____
ROOT
ATOM      1  C   UNL     1       0.600   0.175   0.000  0.00  0.00    +0.000 A 
ATOM      2  C   UNL     1       0.771  -0.632   0.000  0.00  0.00    +0.000 A 
ATOM      3  C   UNL     1       0.158  -1.184   0.000  0.00  0.00    +0.000 A 
ATOM      4  C   UNL     1      -0.626  -0.929   0.000  0.00  0.00    +0.000 A 
ATOM      5  C   UNL     1      -0.520   1.184   0.000  0.00  0.00    +0.000 A 
ATOM      6  C   UNL     1      -1.341   1.097   0.000  0.00  0.00    +0.000 A 
ATOM      7  C   UNL     1      -2.266  -0.045   0.000  0.00  0.00    +0.000 C 
ATOM      8  C   UNL     1      -0.798  -0.122   0.000  0.00  0.00    +0.000 A 
ATOM      9  C   UNL     1      -0.185   0.430   0.000  0.00  0.00    +0.000 A 
ATOM     10  C   UNL     1      -1.893   1.710   0.000  0.00  0.00    +0.000 C 
ATOM     11  N   UNL     1      -1.512   0.290   0.000  0.00  0.00    +0.000 N 
ATOM     12  O   UNL     1      -2.933   0.440   0.000  0.00  0.00    +0.000 OA
ENDROOT
BRANCH   7  13
ATOM     13  C   UNL     1      -2.352  -0.866   0.000  0.00  0.00    +0.000 A 
ATOM     14  C   UNL     1      -1.685  -1.351   0.000  0.00  0.00    +0.000 A 
ATOM     15  C   UNL     1      -1.771  -2.171   0.000  0.00  0.00    +0.000 A 
ATOM     16  C   UNL     1      -2.525  -2.506   0.000  0.00  0.00    +0.000 A 
ATOM     17  C   UNL     1      -3.192  -2.022   0.000  0.00  0.00    +0.000 A 
ATOM     18  C   UNL     1      -3.106  -1.201   0.000  0.00  0.00    +0.000 A 
ATOM     19 CL   UNL     1      -2.611  -3.327   0.000  0.00  0.00    +0.000 Cl
ENDBRANCH   7  13
BRANCH   2  21
ATOM     20  C   UNL     1       1.727  -1.694   0.000  0.00  0.00    +0.000 C 
ATOM     21  O   UNL     1       1.556  -0.887   0.000  0.00  0.00    +0.000 OA
ENDBRANCH   2  21
BRANCH   5  22
ATOM     22  C   UNL     1      -0.108   1.898   0.000  0.00  0.00    +0.000 C 
BRANCH  22  23
ATOM     23  C   UNL     1       0.717   1.898   0.000  0.00  0.00    +0.000 C 
ATOM     24  O   UNL     1       1.130   1.184   0.000  0.00  0.00    +0.000 OA
ATOM     25  N   UNL     1       1.130   2.612   0.000  0.00  0.00    +0.000 NA
BRANCH  25  26
ATOM     26  CA  UNL     1       1.955   2.612   0.000  0.00  0.00    +0.000 C 
BRANCH  26  28
ATOM     27  O   UNL     1       3.192   3.327   0.000  0.00  0.00    +0.000 OA
ATOM     28  C   UNL     1       2.367   3.327   0.000  0.00  0.00    +0.000 C 
ENDBRANCH  26  28
BRANCH  26  29
ATOM     29  C   UNL     1       2.367   1.898   0.000  0.00  0.00    +0.000 C 
ATOM     30  C   UNL     1       1.955   1.184   0.000  0.00  0.00    +0.000 C 
ENDBRANCH  26  29
ENDBRANCH  25  26
ENDBRANCH  22  23
ENDBRANCH   5  22
TORSDOF 7
