REMARK  Name = 
REMARK  4 active torsions:
REMARK  status: ('A' for Active; 'I' for Inactive)
REMARK    1  A    between atoms: C_2  and  O_22
REMARK    2  A    between atoms: C_17  and  O_21
REMARK    3  A    between atoms: O_22  and  C_24
REMARK    4  A    between atoms: C_24  and  C_25
REMARK                            x       y       z     vdW  Elec       q    Type
REMARK                         _______ _______ _______ _____ _____    ______ ____
ROOT
ATOM      1  C   UNL     1      -1.267  -0.600   0.000  0.00  0.00    +0.000 A 
ATOM      2  C   UNL     1      -1.267  -1.427   0.000  0.00  0.00    +0.000 A 
ATOM      3  C   UNL     1      -0.549  -1.838   0.000  0.00  0.00    +0.000 A 
ATOM      4  C   UNL     1      -0.549  -0.189   0.000  0.00  0.00    +0.000 A 
ATOM      5  C   UNL     1       0.161  -0.600   0.000  0.00  0.00    +0.000 A 
ATOM      6  C   UNL     1       0.158  -1.431   0.000  0.00  0.00    +0.000 A 
ATOM      7  C   UNL     1       0.871  -1.839   0.000  0.00  0.00    +0.000 C 
ATOM      8  C   UNL     1       1.583  -1.429   0.000  0.00  0.00    +0.000 C 
ATOM      9  C   UNL     1       0.869  -0.190   0.000  0.00  0.00    +0.000 C 
ATOM     10  C   UNL     1       1.586  -0.603   0.000  0.00  0.00    +0.000 C 
ATOM     11  C   UNL     1       1.581   1.046   0.000  0.00  0.00    +0.000 C 
ATOM     12  C   UNL     1       0.870   0.634   0.000  0.00  0.00    +0.000 C 
ATOM     13  C   UNL     1       2.298   0.637   0.000  0.00  0.00    +0.000 C 
ATOM     14  C   UNL     1       2.301  -0.189   0.000  0.00  0.00    +0.000 C 
ATOM     15  C   UNL     1       3.079  -0.443   0.000  0.00  0.00    +0.000 C 
ATOM     16  C   UNL     1       3.563   0.225   0.000  0.00  0.00    +0.000 C 
ATOM     17  C   UNL     1       3.081   0.888   0.000  0.00  0.00    +0.000 C 
ATOM     18  C   UNL     1       2.122   1.472   0.000  0.00  0.00    +0.000 C 
ENDROOT
BRANCH  17  19
ATOM     19  O   UNL     1       3.331   1.676   0.000  0.00  0.00    +0.000 OA
ATOM     20  C   UNL     1       4.133   1.850   0.000  0.00  0.00    +0.000 C 
ENDBRANCH  17  19
BRANCH   2  21
ATOM     21  O   UNL     1      -1.985  -1.846   0.000  0.00  0.00    +0.000 OA
BRANCH  21  22
ATOM     22  C   UNL     1      -2.704  -1.435   0.000  0.00  0.00    +0.000 C 
BRANCH  22  23
ATOM     23  C   UNL     1      -3.414  -1.850   0.000  0.00  0.00    +0.000 C 
ATOM     24  C   UNL     1      -4.133  -1.443   0.000  0.00  0.00    +0.000 C 
ENDBRANCH  22  23
ENDBRANCH  21  22
ENDBRANCH   2  21
TORSDOF 4
