REMARK  Name = 
REMARK  7 active torsions:
REMARK  status: ('A' for Active; 'I' for Inactive)
REMARK    1  A    between atoms: C_3  and  C_7
REMARK    2  A    between atoms: C_7  and  C_9
REMARK    3  A    between atoms: N_8  and  C_9
REMARK    4  A    between atoms: N_8  and  C_14
REMARK    5  A    between atoms: N_8  and  C_15
REMARK    6  A    between atoms: C_14  and  C_16
REMARK    7  A    between atoms: C_15  and  C_17
REMARK                            x       y       z     vdW  Elec       q    Type
REMARK                         _______ _______ _______ _____ _____    ______ ____
ROOT
ATOM      1  N   UNL     1      -0.480  -2.032   0.000  0.00  0.00    +0.000 NA
ATOM      2  C   UNL     1      -1.267  -0.949   0.000  0.00  0.00    +0.000 A 
ATOM      3  C   UNL     1      -0.480  -0.701   0.000  0.00  0.00    +0.000 A 
ATOM      4  C   UNL     1       0.000  -1.369   0.000  0.00  0.00    +0.000 A 
ATOM      5  C   UNL     1      -1.267  -1.774   0.000  0.00  0.00    +0.000 A 
ATOM      6  C   UNL     1      -1.984  -0.539   0.000  0.00  0.00    +0.000 A 
ATOM      7  O   UNL     1      -1.984   0.286   0.000  0.00  0.00    +0.000 OA
ATOM      8  C   UNL     1      -2.696  -1.774   0.000  0.00  0.00    +0.000 A 
ATOM      9  C   UNL     1      -1.984  -2.189   0.000  0.00  0.00    +0.000 A 
ATOM     10  C   UNL     1      -2.696  -0.949   0.000  0.00  0.00    +0.000 A 
ENDROOT
BRANCH   3  11
ATOM     11  C   UNL     1      -0.232   0.086   0.000  0.00  0.00    +0.000 C 
BRANCH  11  12
ATOM     12  C   UNL     1       0.577   0.264   0.000  0.00  0.00    +0.000 C 
BRANCH  12  13
ATOM     13  N   UNL     1       0.830   1.051   0.000  0.00  0.00    +0.000 NA
BRANCH  13  14
ATOM     14  C   UNL     1       0.275   1.666   0.000  0.00  0.00    +0.000 C 
BRANCH  14  15
ATOM     15  C   UNL     1      -0.534   1.488   0.000  0.00  0.00    +0.000 C 
ATOM     16  C   UNL     1      -1.084   2.102   0.000  0.00  0.00    +0.000 C 
ENDBRANCH  14  15
ENDBRANCH  13  14
BRANCH  13  17
ATOM     17  C   UNL     1       1.633   1.224   0.000  0.00  0.00    +0.000 C 
BRANCH  17  18
ATOM     18  C   UNL     1       1.892   2.016   0.000  0.00  0.00    +0.000 C 
ATOM     19  C   UNL     1       2.696   2.189   0.000  0.00  0.00    +0.000 C 
ENDBRANCH  17  18
ENDBRANCH  13  17
ENDBRANCH  12  13
ENDBRANCH  11  12
ENDBRANCH   3  11
TORSDOF 7
