REMARK  Name = 
REMARK  3 active torsions:
REMARK  status: ('A' for Active; 'I' for Inactive)
REMARK    1  A    between atoms: C_7  and  C_8
REMARK    2  A    between atoms: N_13  and  O_14
REMARK    3  A    between atoms: O_14  and  S_15
REMARK                            x       y       z     vdW  Elec       q    Type
REMARK                         _______ _______ _______ _____ _____    ______ ____
ROOT
ATOM      1  C   UNL     1       3.613   0.636   0.000  0.00  0.00    +0.000 C 
ATOM      2  C   UNL     1       2.788   0.636   0.000  0.00  0.00    +0.000 C 
ATOM      3  C   UNL     1       2.430   1.380   0.000  0.00  0.00    +0.000 C 
ATOM      4  C   UNL     1       1.626   1.563   0.000  0.00  0.00    +0.000 C 
ATOM      5  C   UNL     1       1.394   0.636   0.000  0.00  0.00    +0.000 C 
ATOM      6  N   UNL     1       1.626  -0.290   0.000  0.00  0.00    +0.000 N 
ATOM      7  C   UNL     1       2.430  -0.107   0.000  0.00  0.00    +0.000 C 
ATOM      8  C   UNL     1       0.981   0.224   0.000  0.00  0.00    +0.000 C 
ATOM      9  O   UNL     1       0.237  -0.134   0.000  0.00  0.00    +0.000 OA
ATOM     10  N   UNL     1       0.981   1.049   0.000  0.00  0.00    +0.000 N 
ENDROOT
BRANCH   7  11
ATOM     11  C   UNL     1       2.944  -0.752   0.000  0.00  0.00    +0.000 C 
ATOM     12  N   UNL     1       3.760  -0.629   0.000  0.00  0.00    +0.000 NA
ATOM     13  O   UNL     1       2.643  -1.520   0.000  0.00  0.00    +0.000 OA
ENDBRANCH   7  11
BRANCH  10  14
ATOM     14  O   UNL     1       0.237   1.407   0.000  0.00  0.00    +0.000 OA
BRANCH  14  15
ATOM     15  S   UNL     1      -0.444   0.942   0.000  0.00  0.00    +0.000 S 
ATOM     16  O   UNL     1      -1.126   0.477   0.000  0.00  0.00    +0.000 OA
ATOM     17  O   UNL     1      -0.909   1.624   0.000  0.00  0.00    +0.000 OA
ATOM     18  O   UNL     1       0.021   0.260   0.000  0.00  0.00    +0.000 OA
ENDBRANCH  14  15
ENDBRANCH  10  14
TORSDOF 3
