REMARK  Name = 
REMARK  6 active torsions:
REMARK  status: ('A' for Active; 'I' for Inactive)
REMARK    1  A    between atoms: C_4  and  C_7
REMARK    2  A    between atoms: C_7  and  C_8
REMARK    3  A    between atoms: C_8  and  C_9
REMARK    4  A    between atoms: C_9  and  C_10
REMARK    5  A    between atoms: C_16  and  C_24
REMARK    6  A    between atoms: C_24  and  C_25
REMARK                            x       y       z     vdW  Elec       q    Type
REMARK                         _______ _______ _______ _____ _____    ______ ____
ROOT
ATOM      1  C   UNL     1       1.131  -0.168   0.000  0.00  0.00    +0.000 C 
ATOM      2  N   UNL     1       1.847  -0.580   0.000  0.00  0.00    +0.000 N 
ATOM      3  O   UNL     1       1.130   0.657   0.000  0.00  0.00    +0.000 OA
ATOM      4  C   UNL     1       2.522  -0.119   0.000  0.00  0.00    +0.000 C 
ATOM      5  C   UNL     1       3.313  -0.360   0.000  0.00  0.00    +0.000 C 
ATOM      6  C   UNL     1       1.784  -1.407   0.000  0.00  0.00    +0.000 C 
ATOM      7  N   UNL     1       3.620  -1.125   0.000  0.00  0.00    +0.000 NA
ATOM      8  C   UNL     1       2.392  -1.967   0.000  0.00  0.00    +0.000 C 
ATOM      9  C   UNL     1       3.208  -1.838   0.000  0.00  0.00    +0.000 C 
ATOM     10  O   UNL     1       3.871   0.248   0.000  0.00  0.00    +0.000 OA
ENDROOT
BRANCH   4  11
ATOM     11  C   UNL     1       2.397   0.696   0.000  0.00  0.00    +0.000 C 
BRANCH  11  12
ATOM     12  C   UNL     1       3.042   1.212   0.000  0.00  0.00    +0.000 C 
ATOM     13  F   UNL     1       3.376   1.967   0.000  0.00  0.00    +0.000 F 
ATOM     14  F   UNL     1       2.266   1.491   0.000  0.00  0.00    +0.000 F 
ATOM     15  F   UNL     1       3.818   0.934   0.000  0.00  0.00    +0.000 F 
ENDBRANCH  11  12
ENDBRANCH   4  11
BRANCH   1  16
ATOM     16  C   UNL     1       0.418  -0.582   0.000  0.00  0.00    +0.000 C 
BRANCH  16  17
ATOM     17  C   UNL     1      -0.297  -0.170   0.000  0.00  0.00    +0.000 C 
ATOM     18  N   UNL     1      -0.299   0.654   0.000  0.00  0.00    +0.000 NA
BRANCH  17  19
ATOM     19  C   UNL     1      -1.011  -0.584   0.000  0.00  0.00    +0.000 C 
BRANCH  19  23
ATOM     20  C   UNL     1      -3.156   0.654   0.000  0.00  0.00    +0.000 A 
ATOM     21  C   UNL     1      -3.157  -0.173   0.000  0.00  0.00    +0.000 A 
ATOM     22  C   UNL     1      -2.442  -0.586   0.000  0.00  0.00    +0.000 A 
ATOM     23  C   UNL     1      -1.726  -0.173   0.000  0.00  0.00    +0.000 A 
ATOM     24  C   UNL     1      -1.729   0.658   0.000  0.00  0.00    +0.000 A 
ATOM     25  C   UNL     1      -2.444   1.067   0.000  0.00  0.00    +0.000 A 
ATOM     26  F   UNL     1      -2.447   1.892   0.000  0.00  0.00    +0.000 F 
ATOM     27  F   UNL     1      -2.443  -1.411   0.000  0.00  0.00    +0.000 F 
ATOM     28  F   UNL     1      -3.871   1.066   0.000  0.00  0.00    +0.000 F 
ENDBRANCH  19  23
ENDBRANCH  17  19
ENDBRANCH  16  17
ENDBRANCH   1  16
TORSDOF 6
