REMARK  Name = 
REMARK  0 active torsions:
REMARK  status: ('A' for Active; 'I' for Inactive)
REMARK                            x       y       z     vdW  Elec       q    Type
REMARK                         _______ _______ _______ _____ _____    ______ ____
ROOT
ATOM      1  C   UNL     1       1.101   0.150   0.000  0.00  0.00    +0.000 C 
ATOM      2  O   UNL     1       0.388   0.577   0.000  0.00  0.00    +0.000 OA
ATOM      3  O   UNL     1       1.081  -0.679   0.000  0.00  0.00    +0.000 OA
ATOM      4  C   UNL     1       1.823   0.548   0.000  0.00  0.00    +0.000 C 
ENDROOT
TORSDOF 0
REMARK  Name = 
REMARK  0 active torsions:
REMARK  status: ('A' for Active; 'I' for Inactive)
REMARK                            x       y       z     vdW  Elec       q    Type
REMARK                         _______ _______ _______ _____ _____    ______ ____
ROOT
ATOM      1  C   UNL     1      -1.067   1.464   0.000  0.00  0.00    +0.000 C 
ATOM      2  O   UNL     1      -1.086   0.645   0.000  0.00  0.00    +0.000 OA
ATOM      3  O   UNL     1      -0.339   1.867   0.000  0.00  0.00    +0.000 OA
ATOM      4  C   UNL     1      -1.770   1.896   0.000  0.00  0.00    +0.000 C 
ENDROOT
TORSDOF 0
REMARK  Name = 
REMARK  0 active torsions:
REMARK  status: ('A' for Active; 'I' for Inactive)
REMARK                            x       y       z     vdW  Elec       q    Type
REMARK                         _______ _______ _______ _____ _____    ______ ____
ROOT
ATOM      1  C   UNL     1      -1.125  -1.067   0.000  0.00  0.00    +0.000 C 
ATOM      2  O   UNL     1      -0.398  -0.664   0.000  0.00  0.00    +0.000 OA
ATOM      3  O   UNL     1      -1.823  -0.645   0.000  0.00  0.00    +0.000 OA
ATOM      4  C   UNL     1      -1.144  -1.896   0.000  0.00  0.00    +0.000 C 
ENDROOT
TORSDOF 0
REMARK  Name = 
REMARK  0 active torsions:
REMARK  status: ('A' for Active; 'I' for Inactive)
REMARK                            x       y       z     vdW  Elec       q    Type
REMARK                         _______ _______ _______ _____ _____    ______ ____
ROOT
ATOM      1 AL   UNL     1      -0.543   0.126   0.000  0.00  0.00    +0.000 Al
ENDROOT
TORSDOF 0
