REMARK  Name = 
REMARK  71 active torsions:
REMARK  status: ('A' for Active; 'I' for Inactive)
REMARK    1  A    between atoms: CA_2  and  N_3
REMARK    2  A    between atoms: CA_2  and  CB_65
REMARK    3  A    between atoms: CA_2  and  C_69
REMARK    4  A    between atoms: C_4  and  CA_6
REMARK    5  A    between atoms: CA_6  and  CB_7
REMARK    6  A    between atoms: CA_6  and  N_14
REMARK    7  A    between atoms: CB_7  and  CG_8
REMARK    8  A    between atoms: CG_8  and  CD_9
REMARK    9  A    between atoms: CD_9  and  NE_10
REMARK   10  A    between atoms: C_15  and  CA_17
REMARK   11  A    between atoms: CA_17  and  CB_18
REMARK   12  A    between atoms: CA_17  and  N_25
REMARK   13  A    between atoms: CB_18  and  CG_19
REMARK   14  A    between atoms: CG_19  and  CD_20
REMARK   15  A    between atoms: CD_20  and  NE_21
REMARK   16  A    between atoms: C_26  and  CA_28
REMARK   17  A    between atoms: CA_28  and  CB_29
REMARK   18  A    between atoms: CA_28  and  N_33
REMARK   19  A    between atoms: CB_29  and  CG_30
REMARK   20  A    between atoms: C_34  and  CA_36
REMARK   21  A    between atoms: CA_36  and  CB_37
REMARK   22  A    between atoms: CA_36  and  N_44
REMARK   23  A    between atoms: CB_37  and  CG_38
REMARK   24  A    between atoms: C_45  and  CA_47
REMARK   25  A    between atoms: CA_47  and  N_48
REMARK   26  A    between atoms: C_49  and  CA_51
REMARK   27  A    between atoms: CA_51  and  N_52
REMARK   28  A    between atoms: C_53  and  CA_55
REMARK   29  A    between atoms: CA_55  and  CB_57
REMARK   30  A    between atoms: CB_57  and  CG_58
REMARK   31  A    between atoms: CB_65  and  CG1_67
REMARK   32  A    between atoms: N_71  and  CA_72
REMARK   33  A    between atoms: CA_72  and  CB_73
REMARK   34  A    between atoms: CA_72  and  C_80
REMARK   35  A    between atoms: CB_73  and  CG_74
REMARK   36  A    between atoms: CG_74  and  CD_75
REMARK   37  A    between atoms: CD_75  and  NE_76
REMARK   38  A    between atoms: CA_86  and  C_87
REMARK   39  A    between atoms: N_89  and  CA_90
REMARK   40  A    between atoms: CA_90  and  CB_91
REMARK   41  A    between atoms: CA_90  and  C_96
REMARK   42  A    between atoms: CB_91  and  CG_92
REMARK   43  A    between atoms: CG_92  and  CD_93
REMARK   44  A    between atoms: CD_93  and  CE_94
REMARK   45  A    between atoms: N_98  and  CA_99
REMARK   46  A    between atoms: CA_99  and  CB_100
REMARK   47  A    between atoms: CA_99  and  C_104
REMARK   48  A    between atoms: CB_100  and  CG_101
REMARK   49  A    between atoms: N_106  and  CA_107
REMARK   50  A    between atoms: CA_107  and  CB_108
REMARK   51  A    between atoms: CA_107  and  C_113
REMARK   52  A    between atoms: CB_108  and  CG_109
REMARK   53  A    between atoms: CG_109  and  CD_110
REMARK   54  A    between atoms: CD_110  and  CE_111
REMARK   55  A    between atoms: N_115  and  CA_116
REMARK   56  A    between atoms: CA_116  and  CB_117
REMARK   57  A    between atoms: CA_116  and  C_127
REMARK   58  A    between atoms: CB_117  and  CG_118
REMARK   59  A    between atoms: N_129  and  CA_130
REMARK   60  A    between atoms: CA_130  and  CB_131
REMARK   61  A    between atoms: CA_130  and  C_135
REMARK   62  A    between atoms: CB_131  and  CG_132
REMARK   63  A    between atoms: N_137  and  CA_138
REMARK   64  A    between atoms: CA_138  and  CB_139
REMARK   65  A    between atoms: CA_138  and  C_143
REMARK   66  A    between atoms: CB_139  and  CG_140
REMARK   67  A    between atoms: N_145  and  CA_146
REMARK   68  A    between atoms: CA_146  and  CB_147
REMARK   69  A    between atoms: CA_146  and  C_152
REMARK   70  A    between atoms: CB_147  and  CG_148
REMARK   71  A    between atoms: CG_148  and  CD_149
REMARK                            x       y       z     vdW  Elec       q    Type
REMARK                         _______ _______ _______ _____ _____    ______ ____
ROOT
ATOM      1  CA  ARG A   9       4.041  -7.284   0.000  0.00  0.00    +0.000 C 
ENDROOT
BRANCH   1   2
ATOM      2  C   ARG A   9       3.940  -6.465   0.000  0.00  0.00    +0.000 C 
ATOM      3  O   ARG A   9       3.180  -6.143   0.000  0.00  0.00    +0.000 OA
ATOM      4  N   PRO A  10       4.598  -5.968   0.000  0.00  0.00    +0.000 N 
ATOM      5  CD  PRO A  10       5.387  -6.208   0.000  0.00  0.00    +0.000 C 
ATOM      6  CG  PRO A  10       5.860  -5.532   0.000  0.00  0.00    +0.000 C 
ATOM      7  CB  PRO A  10       5.363  -4.874   0.000  0.00  0.00    +0.000 C 
ATOM      8  CA  PRO A  10       4.583  -5.143   0.000  0.00  0.00    +0.000 C 
BRANCH   8   9
ATOM      9  C   PRO A  10       3.907  -4.670   0.000  0.00  0.00    +0.000 C 
ATOM     10  O   PRO A  10       3.159  -5.020   0.000  0.00  0.00    +0.000 OA
ATOM     11  N   LYS A  11       3.978  -3.848   0.000  0.00  0.00    +0.000 NA
BRANCH  11  12
ATOM     12  CA  LYS A  11       3.302  -3.376   0.000  0.00  0.00    +0.000 C 
BRANCH  12  13
ATOM     13  C   LYS A  11       3.373  -2.554   0.000  0.00  0.00    +0.000 C 
ATOM     14  O   LYS A  11       4.120  -2.204   0.000  0.00  0.00    +0.000 OA
ATOM     15  N   LEU A  12       2.697  -2.081   0.000  0.00  0.00    +0.000 NA
BRANCH  15  16
ATOM     16  CA  LEU A  12       2.768  -1.259   0.000  0.00  0.00    +0.000 C 
BRANCH  16  17
ATOM     17  C   LEU A  12       2.092  -0.787   0.000  0.00  0.00    +0.000 C 
ATOM     18  O   LEU A  12       1.344  -1.136   0.000  0.00  0.00    +0.000 OA
ATOM     19  N   LYS A  13       2.163   0.035   0.000  0.00  0.00    +0.000 NA
BRANCH  19  20
ATOM     20  CA  LYS A  13       1.486   0.508   0.000  0.00  0.00    +0.000 C 
BRANCH  20  21
ATOM     21  C   LYS A  13       1.558   1.330   0.000  0.00  0.00    +0.000 C 
ATOM     22  O   LYS A  13       2.305   1.679   0.000  0.00  0.00    +0.000 OA
ATOM     23  N   TRP A  14       0.881   1.802   0.000  0.00  0.00    +0.000 NA
BRANCH  23  24
ATOM     24  CA  TRP A  14       0.953   2.624   0.000  0.00  0.00    +0.000 C 
BRANCH  24  25
ATOM     25  C   TRP A  14       1.700   2.974   0.000  0.00  0.00    +0.000 C 
ATOM     26  O   TRP A  14       1.771   3.795   0.000  0.00  0.00    +0.000 OA
ATOM     27  N   ASP A  15       2.376   2.501   0.000  0.00  0.00    +0.000 NA
BRANCH  27  28
ATOM     28  CA  ASP A  15       3.123   2.850   0.000  0.00  0.00    +0.000 C 
BRANCH  28  29
ATOM     29  C   ASP A  15       3.800   2.378   0.000  0.00  0.00    +0.000 C 
ATOM     30  O   ASP A  15       3.729   1.556   0.000  0.00  0.00    +0.000 OA
ATOM     31  N   ASN A  16       4.547   2.727   0.000  0.00  0.00    +0.000 NA
BRANCH  31  32
ATOM     32  CA  ASN A  16       5.223   2.255   0.000  0.00  0.00    +0.000 C 
BRANCH  32  33
ATOM     33  C   ASN A  16       5.971   2.604   0.000  0.00  0.00    +0.000 C 
ATOM     34  O   ASN A  16       6.042   3.426   0.000  0.00  0.00    +0.000 OA
ATOM     35  N   GLN A  17       6.647   2.131   0.000  0.00  0.00    +0.000 NA
BRANCH  35  36
ATOM     36  CA  GLN A  17       7.394   2.481   0.000  0.00  0.00    +0.000 C 
BRANCH  36  37
ATOM     37  C   GLN A  17       7.465   3.303   0.000  0.00  0.00    +0.000 C 
ATOM     38  O   GLN A  17       8.213   3.652   0.000  0.00  0.00    +0.000 OA
ATOM     39  OXT GLN A  17       6.789   3.775   0.000  0.00  0.00    +0.000 OA
ENDBRANCH  36  37
BRANCH  36  40
ATOM     40  CB  GLN A  17       8.071   2.008   0.000  0.00  0.00    +0.000 C 
BRANCH  40  41
ATOM     41  CG  GLN A  17       8.818   2.357   0.000  0.00  0.00    +0.000 C 
BRANCH  41  42
ATOM     42  CD  GLN A  17       9.494   1.885   0.000  0.00  0.00    +0.000 C 
ATOM     43  NE2 GLN A  17      10.242   2.234   0.000  0.00  0.00    +0.000 NA
ATOM     44  OE1 GLN A  17       9.423   1.063   0.000  0.00  0.00    +0.000 OA
ENDBRANCH  41  42
ENDBRANCH  40  41
ENDBRANCH  36  40
ENDBRANCH  35  36
ENDBRANCH  32  33
BRANCH  32  45
ATOM     45  CB  ASN A  16       5.152   1.433   0.000  0.00  0.00    +0.000 C 
BRANCH  45  46
ATOM     46  CG  ASN A  16       5.829   0.960   0.000  0.00  0.00    +0.000 C 
ATOM     47  ND2 ASN A  16       6.576   1.309   0.000  0.00  0.00    +0.000 NA
ATOM     48  OD1 ASN A  16       5.757   0.138   0.000  0.00  0.00    +0.000 OA
ENDBRANCH  45  46
ENDBRANCH  32  45
ENDBRANCH  31  32
ENDBRANCH  28  29
BRANCH  28  49
ATOM     49  CB  ASP A  15       3.195   3.672   0.000  0.00  0.00    +0.000 C 
BRANCH  49  50
ATOM     50  CG  ASP A  15       3.942   4.021   0.000  0.00  0.00    +0.000 C 
ATOM     51  OD1 ASP A  15       4.013   4.843   0.000  0.00  0.00    +0.000 OA
ATOM     52  OD2 ASP A  15       4.618   3.549   0.000  0.00  0.00    +0.000 OA
ENDBRANCH  49  50
ENDBRANCH  28  49
ENDBRANCH  27  28
ENDBRANCH  24  25
BRANCH  24  53
ATOM     53  CB  TRP A  14       0.276   3.097   0.000  0.00  0.00    +0.000 C 
BRANCH  53  54
ATOM     54  CG  TRP A  14      -0.471   2.747   0.000  0.00  0.00    +0.000 A 
ATOM     55  CD1 TRP A  14      -0.628   1.937   0.000  0.00  0.00    +0.000 A 
ATOM     56  NE1 TRP A  14      -1.446   1.836   0.000  0.00  0.00    +0.000 NA
ATOM     57  CE2 TRP A  14      -1.796   2.583   0.000  0.00  0.00    +0.000 A 
ATOM     58  CZ2 TRP A  14      -2.585   2.824   0.000  0.00  0.00    +0.000 A 
ATOM     59  CH2 TRP A  14      -2.771   3.628   0.000  0.00  0.00    +0.000 A 
ATOM     60  CZ3 TRP A  14      -2.168   4.191   0.000  0.00  0.00    +0.000 A 
ATOM     61  CE3 TRP A  14      -1.379   3.950   0.000  0.00  0.00    +0.000 A 
ATOM     62  CD2 TRP A  14      -1.193   3.147   0.000  0.00  0.00    +0.000 A 
ENDBRANCH  53  54
ENDBRANCH  24  53
ENDBRANCH  23  24
ENDBRANCH  20  21
BRANCH  20  63
ATOM     63  CB  LYS A  13       0.739   0.158   0.000  0.00  0.00    +0.000 C 
BRANCH  63  64
ATOM     64  CG  LYS A  13       0.668  -0.664   0.000  0.00  0.00    +0.000 C 
BRANCH  64  65
ATOM     65  CD  LYS A  13      -0.079  -1.013   0.000  0.00  0.00    +0.000 C 
BRANCH  65  66
ATOM     66  CE  LYS A  13      -0.151  -1.835   0.000  0.00  0.00    +0.000 C 
ATOM     67  NZ  LYS A  13      -0.898  -2.184   0.000  0.00  0.00    +0.000 NA
ENDBRANCH  65  66
ENDBRANCH  64  65
ENDBRANCH  63  64
ENDBRANCH  20  63
ENDBRANCH  19  20
ENDBRANCH  16  17
BRANCH  16  68
ATOM     68  CB  LEU A  12       3.515  -0.910   0.000  0.00  0.00    +0.000 C 
BRANCH  68  69
ATOM     69  CG  LEU A  12       4.191  -1.383   0.000  0.00  0.00    +0.000 C 
ATOM     70  CD1 LEU A  12       4.939  -1.033   0.000  0.00  0.00    +0.000 C 
ATOM     71  CD2 LEU A  12       4.617  -2.089   0.000  0.00  0.00    +0.000 C 
ENDBRANCH  68  69
ENDBRANCH  16  68
ENDBRANCH  15  16
ENDBRANCH  12  13
BRANCH  12  72
ATOM     72  CB  LYS A  11       2.554  -3.725   0.000  0.00  0.00    +0.000 C 
BRANCH  72  73
ATOM     73  CG  LYS A  11       2.483  -4.547   0.000  0.00  0.00    +0.000 C 
BRANCH  73  74
ATOM     74  CD  LYS A  11       1.736  -4.896   0.000  0.00  0.00    +0.000 C 
BRANCH  74  75
ATOM     75  CE  LYS A  11       1.665  -5.718   0.000  0.00  0.00    +0.000 C 
ATOM     76  NZ  LYS A  11       0.917  -6.068   0.000  0.00  0.00    +0.000 NA
ENDBRANCH  74  75
ENDBRANCH  73  74
ENDBRANCH  72  73
ENDBRANCH  12  72
ENDBRANCH  11  12
ENDBRANCH   8   9
ENDBRANCH   1   2
BRANCH   1  79
ATOM     77  C   ILE A   8       2.623  -7.459   0.000  0.00  0.00    +0.000 C 
ATOM     78  O   ILE A   8       2.522  -6.640   0.000  0.00  0.00    +0.000 OA
ATOM     79  N   ARG A   9       3.383  -7.781   0.000  0.00  0.00    +0.000 NA
BRANCH  77  80
ATOM     80  CA  ILE A   8       1.965  -7.956   0.000  0.00  0.00    +0.000 C 
BRANCH  80  81
ATOM     81  N   ILE A   8       1.205  -7.635   0.000  0.00  0.00    +0.000 NA
ATOM     82  C   ARG A   7       0.546  -8.132   0.000  0.00  0.00    +0.000 C 
ATOM     83  O   ARG A   7       0.648  -8.950   0.000  0.00  0.00    +0.000 OA
BRANCH  82  84
ATOM     84  CA  ARG A   7      -0.213  -7.810   0.000  0.00  0.00    +0.000 C 
BRANCH  84  85
ATOM     85  N   ARG A   7      -0.872  -8.307   0.000  0.00  0.00    +0.000 NA
ATOM     86  C   ARG A   6      -1.631  -7.985   0.000  0.00  0.00    +0.000 C 
ATOM     87  O   ARG A   6      -1.733  -7.167   0.000  0.00  0.00    +0.000 OA
BRANCH  86  88
ATOM     88  CA  ARG A   6      -2.290  -8.482   0.000  0.00  0.00    +0.000 C 
BRANCH  88  89
ATOM     89  N   ARG A   6      -3.050  -8.161   0.000  0.00  0.00    +0.000 NA
ATOM     90  C   LEU A   5      -3.708  -8.658   0.000  0.00  0.00    +0.000 C 
ATOM     91  O   LEU A   5      -3.607  -9.477   0.000  0.00  0.00    +0.000 OA
BRANCH  90  92
ATOM     92  CA  LEU A   5      -4.468  -8.336   0.000  0.00  0.00    +0.000 C 
BRANCH  92  93
ATOM     93  N   LEU A   5      -5.126  -8.833   0.000  0.00  0.00    +0.000 NA
ATOM     94  C   PHE A   4      -5.886  -8.512   0.000  0.00  0.00    +0.000 C 
ATOM     95  O   PHE A   4      -5.987  -7.693   0.000  0.00  0.00    +0.000 OA
BRANCH  94  96
ATOM     96  CA  PHE A   4      -6.544  -9.009   0.000  0.00  0.00    +0.000 C 
BRANCH  96  97
ATOM     97  N   PHE A   4      -7.304  -8.687   0.000  0.00  0.00    +0.000 NA
ATOM     98  C   GLY A   3      -7.962  -9.184   0.000  0.00  0.00    +0.000 C 
ATOM     99  O   GLY A   3      -7.861 -10.003   0.000  0.00  0.00    +0.000 OA
BRANCH  98 100
ATOM    100  CA  GLY A   3      -8.722  -8.863   0.000  0.00  0.00    +0.000 C 
BRANCH 100 101
ATOM    101  N   GLY A   3      -9.380  -9.360   0.000  0.00  0.00    +0.000 NA
ATOM    102  C   GLY A   2     -10.140  -9.038   0.000  0.00  0.00    +0.000 C 
ATOM    103  O   GLY A   2     -10.242  -8.219   0.000  0.00  0.00    +0.000 OA
BRANCH 102 104
ATOM    104  CA  GLY A   2     -10.799  -9.535   0.000  0.00  0.00    +0.000 C 
BRANCH 104 105
ATOM    105  N   GLY A   2     -11.558  -9.213   0.000  0.00  0.00    +0.000 NA
ATOM    106  C   TYR A   1     -12.217  -9.711   0.000  0.00  0.00    +0.000 C 
ATOM    107  O   TYR A   1     -12.116 -10.529   0.000  0.00  0.00    +0.000 OA
BRANCH 106 108
ATOM    108  CA  TYR A   1     -12.976  -9.389   0.000  0.00  0.00    +0.000 C 
ATOM    109  N   TYR A   1     -13.078  -8.570   0.000  0.00  0.00    +0.000 NA
BRANCH 108 110
ATOM    110  CB  TYR A   1     -13.635  -9.886   0.000  0.00  0.00    +0.000 C 
BRANCH 110 111
ATOM    111  CG  TYR A   1     -14.395  -9.564   0.000  0.00  0.00    +0.000 A 
ATOM    112  CD1 TYR A   1     -15.053 -10.062   0.000  0.00  0.00    +0.000 A 
ATOM    113  CE1 TYR A   1     -15.813  -9.740   0.000  0.00  0.00    +0.000 A 
ATOM    114  CZ  TYR A   1     -15.914  -8.921   0.000  0.00  0.00    +0.000 A 
ATOM    115  OH  TYR A   1     -16.674  -8.600   0.000  0.00  0.00    +0.000 OA
ATOM    116  CE2 TYR A   1     -15.256  -8.424   0.000  0.00  0.00    +0.000 A 
ATOM    117  CD2 TYR A   1     -14.496  -8.746   0.000  0.00  0.00    +0.000 A 
ENDBRANCH 110 111
ENDBRANCH 108 110
ENDBRANCH 106 108
ENDBRANCH 104 105
ENDBRANCH 102 104
ENDBRANCH 100 101
ENDBRANCH  98 100
ENDBRANCH  96  97
BRANCH  96 118
ATOM    118  CB  PHE A   4      -6.443  -9.828   0.000  0.00  0.00    +0.000 C 
BRANCH 118 119
ATOM    119  CG  PHE A   4      -5.683 -10.149   0.000  0.00  0.00    +0.000 A 
ATOM    120  CD1 PHE A   4      -5.025  -9.652   0.000  0.00  0.00    +0.000 A 
ATOM    121  CE1 PHE A   4      -4.265  -9.974   0.000  0.00  0.00    +0.000 A 
ATOM    122  CZ  PHE A   4      -4.164 -10.793   0.000  0.00  0.00    +0.000 A 
ATOM    123  CE2 PHE A   4      -4.822 -11.290   0.000  0.00  0.00    +0.000 A 
ATOM    124  CD2 PHE A   4      -5.582 -10.968   0.000  0.00  0.00    +0.000 A 
ENDBRANCH 118 119
ENDBRANCH  96 118
ENDBRANCH  94  96
ENDBRANCH  92  93
BRANCH  92 125
ATOM    125  CB  LEU A   5      -4.569  -7.518   0.000  0.00  0.00    +0.000 C 
BRANCH 125 126
ATOM    126  CG  LEU A   5      -3.911  -7.020   0.000  0.00  0.00    +0.000 C 
ATOM    127  CD1 LEU A   5      -4.012  -6.202   0.000  0.00  0.00    +0.000 C 
ATOM    128  CD2 LEU A   5      -3.151  -7.342   0.000  0.00  0.00    +0.000 C 
ENDBRANCH 125 126
ENDBRANCH  92 125
ENDBRANCH  90  92
ENDBRANCH  88  89
BRANCH  88 129
ATOM    129  CB  ARG A   6      -2.188  -9.301   0.000  0.00  0.00    +0.000 C 
BRANCH 129 130
ATOM    130  CG  ARG A   6      -2.847  -9.798   0.000  0.00  0.00    +0.000 C 
BRANCH 130 131
ATOM    131  CD  ARG A   6      -2.746 -10.617   0.000  0.00  0.00    +0.000 C 
BRANCH 131 132
ATOM    132  NE  ARG A   6      -3.404 -11.114   0.000  0.00  0.00    +0.000 NA
ATOM    133  CZ  ARG A   6      -3.303 -11.933   0.000  0.00  0.00    +0.000 C 
ATOM    134  NH1 ARG A   6      -2.543 -12.255   0.000  0.00  0.00    +0.000 NA
ATOM    135  NH2 ARG A   6      -3.961 -12.430   0.000  0.00  0.00    +0.000 NA
ENDBRANCH 131 132
ENDBRANCH 130 131
ENDBRANCH 129 130
ENDBRANCH  88 129
ENDBRANCH  86  88
ENDBRANCH  84  85
BRANCH  84 136
ATOM    136  CB  ARG A   7      -0.315  -6.991   0.000  0.00  0.00    +0.000 C 
BRANCH 136 137
ATOM    137  CG  ARG A   7       0.344  -6.494   0.000  0.00  0.00    +0.000 C 
BRANCH 137 138
ATOM    138  CD  ARG A   7       0.242  -5.675   0.000  0.00  0.00    +0.000 C 
BRANCH 138 139
ATOM    139  NE  ARG A   7       0.901  -5.178   0.000  0.00  0.00    +0.000 NA
ATOM    140  CZ  ARG A   7       0.800  -4.359   0.000  0.00  0.00    +0.000 C 
ATOM    141  NH1 ARG A   7       0.040  -4.038   0.000  0.00  0.00    +0.000 NA
ATOM    142  NH2 ARG A   7       1.458  -3.862   0.000  0.00  0.00    +0.000 NA
ENDBRANCH 138 139
ENDBRANCH 137 138
ENDBRANCH 136 137
ENDBRANCH  84 136
ENDBRANCH  82  84
ENDBRANCH  80  81
BRANCH  80 143
ATOM    143  CB  ILE A   8       2.066  -8.775   0.000  0.00  0.00    +0.000 C 
ATOM    144  CG2 ILE A   8       1.407  -9.272   0.000  0.00  0.00    +0.000 C 
BRANCH 143 145
ATOM    145  CG1 ILE A   8       2.826  -9.097   0.000  0.00  0.00    +0.000 C 
ATOM    146  CD1 ILE A   8       2.927  -9.915   0.000  0.00  0.00    +0.000 C 
ENDBRANCH 143 145
ENDBRANCH  80 143
ENDBRANCH  77  80
ENDBRANCH   1  79
BRANCH   1 147
ATOM    147  CB  ARG A   9       4.801  -7.605   0.000  0.00  0.00    +0.000 C 
BRANCH 147 148
ATOM    148  CG  ARG A   9       4.902  -8.424   0.000  0.00  0.00    +0.000 C 
BRANCH 148 149
ATOM    149  CD  ARG A   9       5.662  -8.746   0.000  0.00  0.00    +0.000 C 
BRANCH 149 150
ATOM    150  NE  ARG A   9       5.763  -9.564   0.000  0.00  0.00    +0.000 NA
ATOM    151  CZ  ARG A   9       6.523  -9.886   0.000  0.00  0.00    +0.000 C 
ATOM    152  NH1 ARG A   9       7.181  -9.389   0.000  0.00  0.00    +0.000 NA
ATOM    153  NH2 ARG A   9       6.624 -10.705   0.000  0.00  0.00    +0.000 NA
ENDBRANCH 149 150
ENDBRANCH 148 149
ENDBRANCH 147 148
ENDBRANCH   1 147
TORSDOF 71
