REMARK  Name = 
REMARK  42 active torsions:
REMARK  status: ('A' for Active; 'I' for Inactive)
REMARK    1  A    between atoms: N_3  and  C_5
REMARK    2  A    between atoms: C_5  and  C_98
REMARK    3  A    between atoms: C_8  and  C_26
REMARK    4  A    between atoms: C_9  and  C_41
REMARK    5  A    between atoms: C_10  and  C_12
REMARK    6  A    between atoms: C_11  and  C_13
REMARK    7  A    between atoms: C_14  and  C_25
REMARK    8  A    between atoms: C_15  and  C_28
REMARK    9  A    between atoms: C_16  and  C_32
REMARK   10  A    between atoms: C_17  and  C_31
REMARK   11  A    between atoms: N_18  and  C_26
REMARK   12  A    between atoms: N_19  and  C_31
REMARK   13  A    between atoms: N_20  and  C_25
REMARK   14  A    between atoms: N_21  and  C_27
REMARK   15  A    between atoms: N_22  and  C_32
REMARK   16  A    between atoms: N_23  and  C_35
REMARK   17  A    between atoms: C_24  and  C_27
REMARK   18  A    between atoms: C_25  and  C_46
REMARK   19  A    between atoms: C_26  and  C_72
REMARK   20  A    between atoms: C_27  and  C_47
REMARK   21  A    between atoms: C_28  and  N_29
REMARK   22  A    between atoms: C_28  and  C_50
REMARK   23  A    between atoms: C_30  and  C_35
REMARK   24  A    between atoms: C_31  and  C_53
REMARK   25  A    between atoms: C_32  and  C_54
REMARK   26  A    between atoms: C_33  and  C_55
REMARK   27  A    between atoms: N_34  and  C_55
REMARK   28  A    between atoms: C_35  and  C_61
REMARK   29  A    between atoms: C_36  and  C_58
REMARK   30  A    between atoms: C_41  and  C_63
REMARK   31  A    between atoms: C_46  and  C_65
REMARK   32  A    between atoms: C_47  and  C_64
REMARK   33  A    between atoms: C_50  and  C_73
REMARK   34  A    between atoms: C_53  and  C_58
REMARK   35  A    between atoms: C_54  and  C_91
REMARK   36  A    between atoms: C_61  and  C_74
REMARK   37  A    between atoms: C_63  and  C_98
REMARK   38  A    between atoms: S_66  and  C_74
REMARK   39  A    between atoms: C_72  and  C_81
REMARK   40  A    between atoms: C_75  and  C_82
REMARK   41  A    between atoms: C_81  and  C_82
REMARK   42  A    between atoms: C_91  and  C_92
REMARK                            x       y       z     vdW  Elec       q    Type
REMARK                         _______ _______ _______ _____ _____    ______ ____
ROOT
ATOM      1  C   UNL     1      -0.309   0.116   0.000  0.00  0.00    +0.000 C 
ENDROOT
BRANCH   1   2
ATOM      2  C   UNL     1      -0.309   1.692   0.000  0.00  0.00    +0.000 C 
ATOM      3  N   UNL     1      -1.022   2.106   0.000  0.00  0.00    +0.000 NA
ATOM      4  O   UNL     1       0.404   2.106   0.000  0.00  0.00    +0.000 OA
BRANCH   3   5
ATOM      5  C   UNL     1      -1.736   1.692   0.000  0.00  0.00    +0.000 C 
BRANCH   5   6
ATOM      6  C   UNL     1      -2.449   2.106   0.000  0.00  0.00    +0.000 C 
ATOM      7  N   UNL     1      -3.162   1.692   0.000  0.00  0.00    +0.000 NA
ATOM      8  O   UNL     1      -2.449   2.930   0.000  0.00  0.00    +0.000 OA
BRANCH   7   9
ATOM      9  C   UNL     1      -3.875   2.106   0.000  0.00  0.00    +0.000 C 
BRANCH   9  10
ATOM     10  C   UNL     1      -4.588   1.692   0.000  0.00  0.00    +0.000 C 
ATOM     11  N   UNL     1      -5.302   2.106   0.000  0.00  0.00    +0.000 N 
ATOM     12  O   UNL     1      -4.588   0.868   0.000  0.00  0.00    +0.000 OA
ATOM     13  C   UNL     1      -5.307   2.936   0.000  0.00  0.00    +0.000 C 
BRANCH  11  14
ATOM     14  C   UNL     1      -6.015   1.692   0.000  0.00  0.00    +0.000 C 
BRANCH  14  16
ATOM     15  N   UNL     1      -7.436   1.692   0.000  0.00  0.00    +0.000 NA
ATOM     16  C   UNL     1      -6.728   2.106   0.000  0.00  0.00    +0.000 C 
ATOM     17  O   UNL     1      -6.728   2.930   0.000  0.00  0.00    +0.000 OA
BRANCH  15  18
ATOM     18  C   UNL     1      -8.149   2.106   0.000  0.00  0.00    +0.000 C 
BRANCH  18  19
ATOM     19  C   UNL     1      -8.149   3.732   0.000  0.00  0.00    +0.000 C 
ATOM     20  N   UNL     1      -8.862   4.146   0.000  0.00  0.00    +0.000 NA
ATOM     21  O   UNL     1      -7.430   4.146   0.000  0.00  0.00    +0.000 OA
BRANCH  20  22
ATOM     22  C   UNL     1      -9.581   3.737   0.000  0.00  0.00    +0.000 C 
BRANCH  22  23
ATOM     23  C   UNL     1      -9.581   2.914   0.000  0.00  0.00    +0.000 C 
ATOM     24  O   UNL     1      -8.868   2.499   0.000  0.00  0.00    +0.000 OA
ATOM     25  N   UNL     1     -10.300   2.499   0.000  0.00  0.00    +0.000 NA
ENDBRANCH  22  23
BRANCH  22  26
ATOM     26  C   UNL     1     -10.300   4.152   0.000  0.00  0.00    +0.000 C 
BRANCH  26  27
ATOM     27  C   UNL     1     -11.013   3.743   0.000  0.00  0.00    +0.000 C 
BRANCH  27  28
ATOM     28  S   UNL     1     -11.732   4.157   0.000  0.00  0.00    +0.000 S 
ATOM     29  C   UNL     1     -12.450   3.743   0.000  0.00  0.00    +0.000 C 
ATOM     30  O   UNL     1     -11.151   4.749   0.000  0.00  0.00    +0.000 OA
ATOM     31  O   UNL     1     -12.329   4.749   0.000  0.00  0.00    +0.000 OA
ENDBRANCH  27  28
ENDBRANCH  26  27
ENDBRANCH  22  26
ENDBRANCH  20  22
ENDBRANCH  18  19
BRANCH  18  32
ATOM     32  C   UNL     1      -8.862   1.692   0.000  0.00  0.00    +0.000 C 
BRANCH  32  33
ATOM     33  C   UNL     1      -8.862   0.868   0.000  0.00  0.00    +0.000 C 
ATOM     34  C   UNL     1      -9.581   0.459   0.000  0.00  0.00    +0.000 C 
ATOM     35  C   UNL     1      -8.155   0.453   0.000  0.00  0.00    +0.000 C 
ENDBRANCH  32  33
ENDBRANCH  18  32
ENDBRANCH  15  18
ENDBRANCH  14  16
ENDBRANCH  11  14
ENDBRANCH   9  10
BRANCH   9  36
ATOM     36  C   UNL     1      -3.875   3.627   0.000  0.00  0.00    +0.000 C 
BRANCH  36  37
ATOM     37  C   UNL     1      -4.594   4.041   0.000  0.00  0.00    +0.000 A 
ATOM     38  C   UNL     1      -4.594   4.877   0.000  0.00  0.00    +0.000 A 
ATOM     39  C   UNL     1      -5.307   3.621   0.000  0.00  0.00    +0.000 A 
ATOM     40  C   UNL     1      -6.026   4.030   0.000  0.00  0.00    +0.000 A 
ATOM     41  C   UNL     1      -5.313   5.285   0.000  0.00  0.00    +0.000 A 
ATOM     42  C   UNL     1      -6.032   4.871   0.000  0.00  0.00    +0.000 A 
ENDBRANCH  36  37
ENDBRANCH   9  36
ENDBRANCH   7   9
ENDBRANCH   5   6
BRANCH   5  43
ATOM     43  C   UNL     1      -1.736   0.868   0.000  0.00  0.00    +0.000 C 
BRANCH  43  44
ATOM     44  C   UNL     1      -2.449   0.459   0.000  0.00  0.00    +0.000 A 
ATOM     45  C   UNL     1      -3.162   0.879   0.000  0.00  0.00    +0.000 A 
ATOM     46  C   UNL     1      -2.454  -0.359   0.000  0.00  0.00    +0.000 A 
ATOM     47  C   UNL     1      -3.881   0.470   0.000  0.00  0.00    +0.000 A 
ATOM     48  C   UNL     1      -3.168  -0.769   0.000  0.00  0.00    +0.000 A 
ATOM     49  C   UNL     1      -3.881  -0.354   0.000  0.00  0.00    +0.000 A 
ENDBRANCH  43  44
ENDBRANCH   5  43
ENDBRANCH   3   5
ENDBRANCH   1   2
BRANCH   1  51
ATOM     50  C   UNL     1       1.112   0.122   0.000  0.00  0.00    +0.000 C 
ATOM     51  N   UNL     1       0.409  -0.293   0.000  0.00  0.00    +0.000 NA
ATOM     52  O   UNL     1       1.112   0.945   0.000  0.00  0.00    +0.000 OA
BRANCH  50  53
ATOM     53  C   UNL     1       1.836  -0.282   0.000  0.00  0.00    +0.000 C 
BRANCH  53  55
ATOM     54  C   UNL     1       2.555  -1.520   0.000  0.00  0.00    +0.000 C 
ATOM     55  N   UNL     1       1.841  -1.111   0.000  0.00  0.00    +0.000 NA
ATOM     56  O   UNL     1       3.262  -1.106   0.000  0.00  0.00    +0.000 OA
BRANCH  54  59
ATOM     57  N   UNL     1       3.224  -2.831   0.000  0.00  0.00    +0.000 N 
ATOM     58  C   UNL     1       3.931  -2.411   0.000  0.00  0.00    +0.000 C 
ATOM     59  C   UNL     1       2.555  -2.350   0.000  0.00  0.00    +0.000 C 
ATOM     60  O   UNL     1       3.926  -1.592   0.000  0.00  0.00    +0.000 OA
ATOM     61  C   UNL     1       2.964  -3.621   0.000  0.00  0.00    +0.000 C 
ATOM     62  C   UNL     1       1.886  -2.831   0.000  0.00  0.00    +0.000 C 
ATOM     63  C   UNL     1       2.140  -3.621   0.000  0.00  0.00    +0.000 C 
BRANCH  58  64
ATOM     64  C   UNL     1       4.650  -2.820   0.000  0.00  0.00    +0.000 C 
BRANCH  64  66
ATOM     65  C   UNL     1       6.077  -2.809   0.000  0.00  0.00    +0.000 C 
ATOM     66  N   UNL     1       5.363  -2.400   0.000  0.00  0.00    +0.000 NA
ATOM     67  O   UNL     1       6.071  -3.638   0.000  0.00  0.00    +0.000 OA
BRANCH  65  70
ATOM     68  N   UNL     1       7.459  -2.892   0.000  0.00  0.00    +0.000 N 
ATOM     69  C   UNL     1       7.453  -3.715   0.000  0.00  0.00    +0.000 C 
ATOM     70  C   UNL     1       6.790  -2.405   0.000  0.00  0.00    +0.000 C 
ATOM     71  O   UNL     1       6.734  -4.124   0.000  0.00  0.00    +0.000 OA
ATOM     72  C   UNL     1       8.122  -2.405   0.000  0.00  0.00    +0.000 C 
ATOM     73  C   UNL     1       7.050  -1.620   0.000  0.00  0.00    +0.000 C 
ATOM     74  C   UNL     1       7.873  -1.620   0.000  0.00  0.00    +0.000 C 
BRANCH  69  75
ATOM     75  C   UNL     1       8.166  -4.130   0.000  0.00  0.00    +0.000 C 
ATOM     76  N   UNL     1       8.166  -4.959   0.000  0.00  0.00    +0.000 NA
BRANCH  75  77
ATOM     77  C   UNL     1       8.880  -3.710   0.000  0.00  0.00    +0.000 C 
BRANCH  77  78
ATOM     78  C   UNL     1       9.593  -4.119   0.000  0.00  0.00    +0.000 C 
BRANCH  78  79
ATOM     79  C   UNL     1      10.302  -3.707   0.000  0.00  0.00    +0.000 C 
BRANCH  79  82
ATOM     80  C   UNL     1      11.728  -3.682   0.000  0.00  0.00    +0.000 C 
ATOM     81  N   UNL     1      11.717  -2.853   0.000  0.00  0.00    +0.000 NA
ATOM     82  N   UNL     1      11.022  -4.108   0.000  0.00  0.00    +0.000 NA
ATOM     83  N   UNL     1      12.450  -4.076   0.000  0.00  0.00    +0.000 NA
ENDBRANCH  79  82
ENDBRANCH  78  79
ENDBRANCH  77  78
ENDBRANCH  75  77
ENDBRANCH  69  75
ENDBRANCH  65  70
ENDBRANCH  64  66
BRANCH  64  84
ATOM     84  C   UNL     1       4.661  -3.643   0.000  0.00  0.00    +0.000 C 
BRANCH  84  85
ATOM     85  C   UNL     1       3.942  -4.047   0.000  0.00  0.00    +0.000 C 
BRANCH  85  86
ATOM     86  C   UNL     1       3.942  -4.877   0.000  0.00  0.00    +0.000 C 
BRANCH  86  88
ATOM     87  N   UNL     1       2.499  -4.877   0.000  0.00  0.00    +0.000 NA
ATOM     88  C   UNL     1       3.224  -5.285   0.000  0.00  0.00    +0.000 C 
ENDBRANCH  86  88
ENDBRANCH  85  86
ENDBRANCH  84  85
ENDBRANCH  64  84
ENDBRANCH  58  64
ENDBRANCH  54  59
ENDBRANCH  53  55
BRANCH  53  89
ATOM     89  C   UNL     1       2.549   0.133   0.000  0.00  0.00    +0.000 C 
BRANCH  89  90
ATOM     90  C   UNL     1       3.262  -0.276   0.000  0.00  0.00    +0.000 C 
BRANCH  90  91
ATOM     91  C   UNL     1       3.975   0.144   0.000  0.00  0.00    +0.000 C 
ATOM     92  O   UNL     1       3.965   0.968   0.000  0.00  0.00    +0.000 OA
ATOM     93  N   UNL     1       4.689  -0.271   0.000  0.00  0.00    +0.000 NA
ENDBRANCH  90  91
ENDBRANCH  89  90
ENDBRANCH  53  89
ENDBRANCH  50  53
ENDBRANCH   1  51
BRANCH   1  94
ATOM     94  C   UNL     1      -1.022  -0.293   0.000  0.00  0.00    +0.000 C 
BRANCH  94  95
ATOM     95  C   UNL     1      -1.028  -1.111   0.000  0.00  0.00    +0.000 C 
BRANCH  95  96
ATOM     96  C   UNL     1      -1.741  -1.515   0.000  0.00  0.00    +0.000 C 
ATOM     97  N   UNL     1      -2.454  -1.100   0.000  0.00  0.00    +0.000 NA
ATOM     98  O   UNL     1      -1.747  -2.339   0.000  0.00  0.00    +0.000 OA
ENDBRANCH  95  96
ENDBRANCH  94  95
ENDBRANCH   1  94
TORSDOF 42
