REMARK  Name = 
REMARK  6 active torsions:
REMARK  status: ('A' for Active; 'I' for Inactive)
REMARK    1  A    between atoms: C_1  and  O_17
REMARK    2  A    between atoms: C_4  and  C_21
REMARK    3  A    between atoms: C_7  and  O_17
REMARK    4  A    between atoms: C_10  and  O_13
REMARK    5  A    between atoms: O_13  and  C_14
REMARK    6  A    between atoms: C_14  and  C_15
REMARK                            x       y       z     vdW  Elec       q    Type
REMARK                         _______ _______ _______ _____ _____    ______ ____
ROOT
ATOM      1  C   UNL     1      -0.705  -1.434   0.000  0.00  0.00    +0.000 A 
ATOM      2  C   UNL     1      -1.417  -1.850   0.000  0.00  0.00    +0.000 A 
ATOM      3  C   UNL     1      -2.137  -1.441   0.000  0.00  0.00    +0.000 A 
ATOM      4  C   UNL     1      -2.139  -0.617   0.000  0.00  0.00    +0.000 A 
ATOM      5  C   UNL     1      -1.427  -0.200   0.000  0.00  0.00    +0.000 A 
ATOM      6  C   UNL     1      -0.713  -0.608   0.000  0.00  0.00    +0.000 A 
ENDROOT
BRANCH   4   7
ATOM      7  O   UNL     1      -2.852  -0.211   0.000  0.00  0.00    +0.000 OA
BRANCH   7   8
ATOM      8  C   UNL     1      -2.854   0.614   0.000  0.00  0.00    +0.000 C 
ATOM      9  C   UNL     1      -3.569   1.025   0.000  0.00  0.00    +0.000 C 
BRANCH   8  10
ATOM     10  C   UNL     1      -2.142   1.025   0.000  0.00  0.00    +0.000 C 
ATOM     11  O   UNL     1      -1.432   0.613   0.000  0.00  0.00    +0.000 OA
ATOM     12  O   UNL     1      -2.142   1.850   0.000  0.00  0.00    +0.000 OA
ENDBRANCH   8  10
ENDBRANCH   7   8
ENDBRANCH   4   7
BRANCH   1  13
ATOM     13  O   UNL     1       0.003  -1.842   0.000  0.00  0.00    +0.000 OA
BRANCH  13  14
ATOM     14  C   UNL     1       0.708  -1.428   0.000  0.00  0.00    +0.000 A 
ATOM     15  C   UNL     1       0.708  -0.602   0.000  0.00  0.00    +0.000 A 
ATOM     16  C   UNL     1       1.421  -0.185   0.000  0.00  0.00    +0.000 A 
ATOM     17  C   UNL     1       2.138  -0.597   0.000  0.00  0.00    +0.000 A 
ATOM     18  C   UNL     1       2.142  -1.425   0.000  0.00  0.00    +0.000 A 
ATOM     19  N   UNL     1       1.425  -1.840   0.000  0.00  0.00    +0.000 NA
ATOM     20 CL   UNL     1      -0.008  -0.192   0.000  0.00  0.00    +0.000 Cl
BRANCH  17  21
ATOM     21  C   UNL     1       2.853  -0.183   0.000  0.00  0.00    +0.000 C 
ATOM     22  F   UNL     1       2.849   0.644   0.000  0.00  0.00    +0.000 F 
ATOM     23  F   UNL     1       3.569  -0.593   0.000  0.00  0.00    +0.000 F 
ATOM     24  F   UNL     1       3.562   0.239   0.000  0.00  0.00    +0.000 F 
ENDBRANCH  17  21
ENDBRANCH  13  14
ENDBRANCH   1  13
TORSDOF 6
