REMARK  Name = 
REMARK  6 active torsions:
REMARK  status: ('A' for Active; 'I' for Inactive)
REMARK    1  A    between atoms: N_7  and  C_8
REMARK    2  A    between atoms: C_10  and  C_24
REMARK    3  A    between atoms: O_15  and  P_17
REMARK    4  A    between atoms: O_15  and  C_24
REMARK    5  A    between atoms: P_17  and  O_19
REMARK    6  A    between atoms: O_19  and  P_21
REMARK                            x       y       z     vdW  Elec       q    Type
REMARK                         _______ _______ _______ _____ _____    ______ ____
ROOT
ATOM      1  C   UNL     1       1.243   0.127   0.000  0.00  0.00    +0.000 C 
ATOM      2  O   UNL     1       0.758  -0.540   0.000  0.00  0.00    +0.000 OA
ATOM      3  C   UNL     1       1.243  -1.208   0.000  0.00  0.00    +0.000 C 
ATOM      4  C   UNL     1       2.027  -0.953   0.000  0.00  0.00    +0.000 C 
ATOM      5  O   UNL     1       2.695  -1.438   0.000  0.00  0.00    +0.000 OA
ATOM      6  C   UNL     1       2.028  -0.128   0.000  0.00  0.00    +0.000 C 
ATOM      7  O   UNL     1       2.695   0.357   0.000  0.00  0.00    +0.000 OA
ENDROOT
BRANCH   1  14
ATOM      8  C   UNL     1      -0.511   2.405   0.000  0.00  0.00    +0.000 A 
ATOM      9  N   UNL     1      -1.225   1.992   0.000  0.00  0.00    +0.000 NA
ATOM     10  N   UNL     1      -0.511   0.755   0.000  0.00  0.00    +0.000 NA
ATOM     11  C   UNL     1       0.203   1.167   0.000  0.00  0.00    +0.000 A 
ATOM     12  C   UNL     1       0.203   1.992   0.000  0.00  0.00    +0.000 A 
ATOM     13  C   UNL     1       1.473   1.579   0.000  0.00  0.00    +0.000 C 
ATOM     14  N   UNL     1       0.988   0.912   0.000  0.00  0.00    +0.000 N 
ATOM     15  C   UNL     1      -1.226   1.167   0.000  0.00  0.00    +0.000 A 
ATOM     16  N   UNL     1      -1.940   0.755   0.000  0.00  0.00    +0.000 NA
ATOM     17  O   UNL     1      -0.511   3.230   0.000  0.00  0.00    +0.000 OA
ATOM     18  N   UNL     1       0.988   2.247   0.000  0.00  0.00    +0.000 N 
ATOM     19  C   UNL     1       1.202   3.044   0.000  0.00  0.00    +0.000 C 
ENDBRANCH   1  14
BRANCH   3  20
ATOM     20  C   UNL     1       0.988  -1.992   0.000  0.00  0.00    +0.000 C 
BRANCH  20  21
ATOM     21  O   UNL     1       0.163  -1.992   0.000  0.00  0.00    +0.000 OA
BRANCH  21  23
ATOM     22  O   UNL     1      -0.551  -3.230   0.000  0.00  0.00    +0.000 OA
ATOM     23  P   UNL     1      -0.551  -2.405   0.000  0.00  0.00    +0.000 P 
ATOM     24  O   UNL     1      -0.551  -1.580   0.000  0.00  0.00    +0.000 OA
BRANCH  23  25
ATOM     25  O   UNL     1      -1.266  -1.992   0.000  0.00  0.00    +0.000 OA
BRANCH  25  27
ATOM     26  O   UNL     1      -1.980  -3.230   0.000  0.00  0.00    +0.000 OA
ATOM     27  P   UNL     1      -1.980  -2.405   0.000  0.00  0.00    +0.000 P 
ATOM     28  O   UNL     1      -1.980  -1.560   0.000  0.00  0.00    +0.000 OA
ATOM     29  O   UNL     1      -2.695  -1.992   0.000  0.00  0.00    +0.000 OA
ENDBRANCH  25  27
ENDBRANCH  23  25
ENDBRANCH  21  23
ENDBRANCH  20  21
ENDBRANCH   3  20
TORSDOF 6
