REMARK  Name = 
REMARK  7 active torsions:
REMARK  status: ('A' for Active; 'I' for Inactive)
REMARK    1  A    between atoms: C_1  and  C_6
REMARK    2  A    between atoms: C_2  and  N_8
REMARK    3  A    between atoms: C_6  and  C_11
REMARK    4  A    between atoms: C_9  and  C_11
REMARK    5  A    between atoms: C_10  and  C_18
REMARK    6  A    between atoms: C_11  and  C_19
REMARK    7  A    between atoms: C_18  and  C_20
REMARK                            x       y       z     vdW  Elec       q    Type
REMARK                         _______ _______ _______ _____ _____    ______ ____
ROOT
ATOM      1  C   UNL     1      -1.066  -0.007   0.000  0.00  0.00    +0.000 A 
ATOM      2  C   UNL     1       0.362  -0.031   0.000  0.00  0.00    +0.000 A 
ATOM      3  C   UNL     1      -0.352  -0.422   0.000  0.00  0.00    +0.000 A 
ATOM      4  C   UNL     1      -1.066   0.813   0.000  0.00  0.00    +0.000 A 
ATOM      5  C   UNL     1       0.362   0.784   0.000  0.00  0.00    +0.000 A 
ATOM      6  C   UNL     1      -0.328   1.218   0.000  0.00  0.00    +0.000 A 
ATOM      7  I   UNL     1      -0.362  -1.247   0.000  0.00  0.00    +0.000 I 
ATOM      8  I   UNL     1      -1.766   1.228   0.000  0.00  0.00    +0.000 I 
ATOM      9  I   UNL     1       1.090   1.194   0.000  0.00  0.00    +0.000 I 
ENDROOT
BRANCH   2  10
ATOM     10  N   UNL     1       1.066  -0.446   0.000  0.00  0.00    +0.000 NA
ATOM     11  C   UNL     1       1.795  -0.031   0.000  0.00  0.00    +0.000 C 
ATOM     12  O   UNL     1       1.775   0.731   0.000  0.00  0.00    +0.000 OA
BRANCH  11  13
ATOM     13  C   UNL     1       2.509  -0.451   0.000  0.00  0.00    +0.000 C 
BRANCH  13  14
ATOM     14  C   UNL     1       3.223  -0.041   0.000  0.00  0.00    +0.000 C 
ATOM     15  C   UNL     1       3.942  -0.480   0.000  0.00  0.00    +0.000 C 
ENDBRANCH  13  14
ENDBRANCH  11  13
ENDBRANCH   2  10
BRANCH   1  16
ATOM     16  C   UNL     1      -1.790  -0.422   0.000  0.00  0.00    +0.000 C 
BRANCH  16  17
ATOM     17  C   UNL     1      -2.489   0.002   0.000  0.00  0.00    +0.000 C 
BRANCH  17  18
ATOM     18  C   UNL     1      -3.223  -0.393   0.000  0.00  0.00    +0.000 C 
ATOM     19  O   UNL     1      -3.942   0.017   0.000  0.00  0.00    +0.000 OA
ATOM     20  O   UNL     1      -3.223  -1.218   0.000  0.00  0.00    +0.000 OA
ENDBRANCH  17  18
BRANCH  17  21
ATOM     21  C   UNL     1      -2.489   0.823   0.000  0.00  0.00    +0.000 C 
ATOM     22  C   UNL     1      -3.218   1.247   0.000  0.00  0.00    +0.000 C 
ENDBRANCH  17  21
ENDBRANCH  16  17
ENDBRANCH   1  16
TORSDOF 7
