REMARK  Name = 
REMARK  20 active torsions:
REMARK  status: ('A' for Active; 'I' for Inactive)
REMARK    1  A    between atoms: N_16  and  CA_24
REMARK    2  A    between atoms: N_17  and  CA_28
REMARK    3  A    between atoms: N_18  and  CA_34
REMARK    4  A    between atoms: N_19  and  CA_36
REMARK    5  A    between atoms: N_20  and  CA_43
REMARK    6  A    between atoms: C_21  and  C_22
REMARK    7  A    between atoms: C_21  and  C_23
REMARK    8  A    between atoms: C_22  and  CA_24
REMARK    9  A    between atoms: CA_24  and  C_29
REMARK   10  A    between atoms: C_25  and  CA_28
REMARK   11  A    between atoms: CA_27  and  C_32
REMARK   12  A    between atoms: CA_28  and  C_33
REMARK   13  A    between atoms: C_30  and  C_31
REMARK   14  A    between atoms: C_31  and  C_35
REMARK   15  A    between atoms: CA_34  and  C_39
REMARK   16  A    between atoms: C_35  and  CA_36
REMARK   17  A    between atoms: CA_36  and  C_41
REMARK   18  A    between atoms: C_37  and  C_40
REMARK   19  A    between atoms: C_40  and  C_42
REMARK   20  A    between atoms: CA_43  and  C_48
REMARK                            x       y       z     vdW  Elec       q    Type
REMARK                         _______ _______ _______ _____ _____    ______ ____
ROOT
ATOM      1  CA  UNL     1      -1.072  -0.412   0.000  0.00  0.00    +0.000 C 
ENDROOT
BRANCH   1   3
ATOM      2  O   UNL     1      -2.501   0.412   0.000  0.00  0.00    +0.000 OA
ATOM      3  N   UNL     1      -1.786  -0.825   0.000  0.00  0.00    +0.000 NA
ATOM      4  C   UNL     1      -2.501  -0.412   0.000  0.00  0.00    +0.000 C 
BRANCH   4   5
ATOM      5  C   UNL     1      -3.215  -0.825   0.000  0.00  0.00    +0.000 C 
BRANCH   5   6
ATOM      6  C   UNL     1      -3.929  -0.412   0.000  0.00  0.00    +0.000 C 
BRANCH   6   7
ATOM      7  CA  UNL     1      -4.644  -0.825   0.000  0.00  0.00    +0.000 C 
BRANCH   7   9
ATOM      8  O   UNL     1      -6.073  -1.650   0.000  0.00  0.00    +0.000 OA
ATOM      9  N   UNL     1      -5.359  -0.412   0.000  0.00  0.00    +0.000 NA
ATOM     10  C   UNL     1      -6.073  -0.825   0.000  0.00  0.00    +0.000 C 
ATOM     11  C   UNL     1      -6.787  -0.412   0.000  0.00  0.00    +0.000 C 
ENDBRANCH   7   9
BRANCH   7  14
ATOM     12  O   UNL     1      -5.359  -2.062   0.000  0.00  0.00    +0.000 OA
ATOM     13  OXT UNL     1      -3.929  -2.062   0.000  0.00  0.00    +0.000 OA
ATOM     14  C   UNL     1      -4.644  -1.650   0.000  0.00  0.00    +0.000 C 
ENDBRANCH   7  14
ENDBRANCH   6   7
ENDBRANCH   5   6
ENDBRANCH   4   5
ENDBRANCH   1   3
BRANCH   1  17
ATOM     15  O   UNL     1      -1.786   0.825   0.000  0.00  0.00    +0.000 OA
ATOM     16  N   UNL     1      -0.357   0.825   0.000  0.00  0.00    +0.000 NA
ATOM     17  C   ACE A   1      -1.072   0.412   0.000  0.00  0.00    +0.000 C 
BRANCH  16  18
ATOM     18  CA  UNL     1      -0.357   1.650   0.000  0.00  0.00    +0.000 C 
ATOM     19  CB  UNL     1      -1.072   2.062   0.000  0.00  0.00    +0.000 C 
BRANCH  18  22
ATOM     20  O   UNL     1       1.072   1.650   0.000  0.00  0.00    +0.000 OA
ATOM     21  N   UNL     1       0.357   2.888   0.000  0.00  0.00    +0.000 NA
ATOM     22  C   UNL     1       0.357   2.062   0.000  0.00  0.00    +0.000 C 
BRANCH  21  23
ATOM     23  CA  UNL     1       1.072   3.300   0.000  0.00  0.00    +0.000 C 
ATOM     24  CB  UNL     1       1.786   2.888   0.000  0.00  0.00    +0.000 C 
BRANCH  23  27
ATOM     25  O   UNL     1       1.786   4.537   0.000  0.00  0.00    +0.000 OA
ATOM     26  OXT UNL     1       0.357   4.537   0.000  0.00  0.00    +0.000 OA
ATOM     27  C   UNL     1       1.072   4.125   0.000  0.00  0.00    +0.000 C 
ENDBRANCH  23  27
ENDBRANCH  21  23
ENDBRANCH  18  22
ENDBRANCH  16  18
ENDBRANCH   1  17
BRANCH   1  28
ATOM     28  C   UNL     1      -0.357  -0.825   0.000  0.00  0.00    +0.000 C 
BRANCH  28  29
ATOM     29  C   UNL     1      -0.357  -1.650   0.000  0.00  0.00    +0.000 C 
BRANCH  29  32
ATOM     30  S   UNL     1       1.786  -2.062   0.000  0.00  0.00    +0.000 S 
ATOM     31  N   UNL     1       1.072  -3.300   0.000  0.00  0.00    +0.000 NA
ATOM     32  C   UNL     1       0.357  -2.062   0.000  0.00  0.00    +0.000 C 
ATOM     33  C   UNL     1       1.786  -2.888   0.000  0.00  0.00    +0.000 C 
ATOM     34  C   UNL     1       1.072  -1.650   0.000  0.00  0.00    +0.000 C 
ATOM     35  CA  UNL     1       0.357  -2.888   0.000  0.00  0.00    +0.000 C 
BRANCH  35  38
ATOM     36  O   UNL     1      -1.072  -2.888   0.000  0.00  0.00    +0.000 OA
ATOM     37  OXT UNL     1      -0.357  -4.125   0.000  0.00  0.00    +0.000 OA
ATOM     38  C   UNL     1      -0.357  -3.300   0.000  0.00  0.00    +0.000 C 
ENDBRANCH  35  38
BRANCH  33  39
ATOM     39  CA  UNL     1       2.501  -3.300   0.000  0.00  0.00    +0.000 C 
BRANCH  39  42
ATOM     40  O   UNL     1       3.215  -4.537   0.000  0.00  0.00    +0.000 OA
ATOM     41  OXT UNL     1       1.786  -4.537   0.000  0.00  0.00    +0.000 OA
ATOM     42  C   UNL     1       2.501  -4.125   0.000  0.00  0.00    +0.000 C 
ENDBRANCH  39  42
BRANCH  39  44
ATOM     43  O   UNL     1       3.929  -4.125   0.000  0.00  0.00    +0.000 OA
ATOM     44  N   UNL     1       3.215  -2.888   0.000  0.00  0.00    +0.000 NA
ATOM     45  C   UNL     1       3.929  -3.300   0.000  0.00  0.00    +0.000 C 
BRANCH  45  46
ATOM     46  C   UNL     1       4.644  -2.888   0.000  0.00  0.00    +0.000 C 
BRANCH  46  47
ATOM     47  C   UNL     1       5.358  -3.300   0.000  0.00  0.00    +0.000 A 
ATOM     48  C   UNL     1       5.358  -4.125   0.000  0.00  0.00    +0.000 A 
ATOM     49  C   UNL     1       6.073  -2.888   0.000  0.00  0.00    +0.000 A 
ATOM     50  C   UNL     1       6.073  -4.537   0.000  0.00  0.00    +0.000 A 
ATOM     51  C   UNL     1       6.787  -3.300   0.000  0.00  0.00    +0.000 A 
ATOM     52  C   UNL     1       6.787  -4.125   0.000  0.00  0.00    +0.000 A 
ENDBRANCH  46  47
ENDBRANCH  45  46
ENDBRANCH  39  44
ENDBRANCH  33  39
ENDBRANCH  29  32
ENDBRANCH  28  29
ENDBRANCH   1  28
TORSDOF 20
