REMARK  Name = 
REMARK  16 active torsions:
REMARK  status: ('A' for Active; 'I' for Inactive)
REMARK    1  A    between atoms: C_16  and  C_17
REMARK    2  A    between atoms: C_16  and  C_27
REMARK    3  A    between atoms: C_17  and  C_38
REMARK    4  A    between atoms: C_18  and  C_28
REMARK    5  A    between atoms: C_19  and  N_50
REMARK    6  A    between atoms: C_22  and  C_40
REMARK    7  A    between atoms: C_22  and  C_41
REMARK    8  A    between atoms: C_26  and  N_50
REMARK    9  A    between atoms: C_27  and  C_40
REMARK   10  A    between atoms: C_28  and  C_44
REMARK   11  A    between atoms: C_30  and  C_38
REMARK   12  A    between atoms: C_30  and  C_44
REMARK   13  A    between atoms: C_32  and  O_62
REMARK   14  A    between atoms: C_39  and  O_57
REMARK   15  A    between atoms: C_40  and  O_58
REMARK   16  A    between atoms: C_44  and  O_62
REMARK                            x       y       z     vdW  Elec       q    Type
REMARK                         _______ _______ _______ _____ _____    ______ ____
ROOT
ATOM      1  C   UNL     1       5.458   0.869   0.000  0.00  0.00    +0.000 C 
ATOM      2  C   UNL     1       3.315  -2.018   0.000  0.00  0.00    +0.000 C 
ATOM      3  C   UNL     1       4.744  -2.018   0.000  0.00  0.00    +0.000 C 
ATOM      4  C   UNL     1       3.315   0.456   0.000  0.00  0.00    +0.000 C 
ATOM      5  C   UNL     1       5.458  -1.606   0.000  0.00  0.00    +0.000 C 
ATOM      6  C   UNL     1       4.744  -2.844   0.000  0.00  0.00    +0.000 C 
ATOM      7  C   UNL     1       3.315  -0.368   0.000  0.00  0.00    +0.000 C 
ATOM      8  C   UNL     1       4.029   0.869   0.000  0.00  0.00    +0.000 C 
ATOM      9  C   UNL     1       6.173  -0.368   0.000  0.00  0.00    +0.000 C 
ATOM     10  C   UNL     1       3.315  -2.844   0.000  0.00  0.00    +0.000 C 
ATOM     11  C   UNL     1       7.817   1.093   0.000  0.00  0.00    +0.000 A 
ATOM     12  C   UNL     1       3.890   3.021   0.000  0.00  0.00    +0.000 A 
ATOM     13  C   UNL     1       6.644   3.957   0.000  0.00  0.00    +0.000 A 
ATOM     14  C   UNL     1       6.173   0.456   0.000  0.00  0.00    +0.000 C 
ATOM     15  C   UNL     1       2.600  -1.606   0.000  0.00  0.00    +0.000 C 
ATOM     16  C   UNL     1       5.458  -0.781   0.000  0.00  0.00    +0.000 C 
ATOM     17  C   UNL     1       4.029  -3.256   0.000  0.00  0.00    +0.000 C 
ATOM     18  C   UNL     1       6.887   0.869   0.000  0.00  0.00    +0.000 A 
ATOM     19  C   UNL     1       4.744   2.931   0.000  0.00  0.00    +0.000 A 
ATOM     20  C   UNL     1       7.066   3.098   0.000  0.00  0.00    +0.000 A 
ATOM     21  C   UNL     1       2.600  -0.781   0.000  0.00  0.00    +0.000 C 
ATOM     22  C   UNL     1       1.886  -2.018   0.000  0.00  0.00    +0.000 C 
ATOM     23  C   UNL     1       4.029   1.694   0.000  0.00  0.00    +0.000 A 
ATOM     24  C   UNL     1       2.600  -3.256   0.000  0.00  0.00    +0.000 C 
ATOM     25  C   UNL     1       5.458   3.344   0.000  0.00  0.00    +0.000 A 
ATOM     26  C   UNL     1       7.478   2.384   0.000  0.00  0.00    +0.000 A 
ATOM     27  N   UNL     1       4.744   2.106   0.000  0.00  0.00    +0.000 NA
ATOM     28  N   UNL     1       6.926   1.771   0.000  0.00  0.00    +0.000 NA
ATOM     29  N   UNL     1       6.259   2.927   0.000  0.00  0.00    +0.000 NA
ATOM     30  O   UNL     1       4.744  -0.368   0.000  0.00  0.00    +0.000 OA
ATOM     31  O   UNL     1       4.029  -4.081   0.000  0.00  0.00    +0.000 OA
ATOM     32  O   UNL     1       2.600  -4.081   0.000  0.00  0.00    +0.000 OA
ATOM     33  O   UNL     1       3.477   2.307   0.000  0.00  0.00    +0.000 OA
ATOM     34  O   UNL     1       8.117   1.861   0.000  0.00  0.00    +0.000 OA
ATOM     35  O   UNL     1       5.829   4.081   0.000  0.00  0.00    +0.000 OA
ATOM     36  O   UNL     1       1.886  -2.844   0.000  0.00  0.00    +0.000 OA
ENDROOT
BRANCH  21  38
ATOM     37  C   UNL     1       1.886   0.456   0.000  0.00  0.00    +0.000 C 
ATOM     38  O   UNL     1       1.886  -0.368   0.000  0.00  0.00    +0.000 OA
ENDBRANCH  21  38
BRANCH  22  39
ATOM     39  C   UNL     1       1.171  -1.606   0.000  0.00  0.00    +0.000 C 
BRANCH  39  40
ATOM     40  C   UNL     1       0.457  -2.018   0.000  0.00  0.00    +0.000 C 
BRANCH  40  42
ATOM     41  C   UNL     1      -0.258  -0.781   0.000  0.00  0.00    +0.000 C 
ATOM     42  C   UNL     1      -0.258  -1.606   0.000  0.00  0.00    +0.000 C 
BRANCH  42  43
ATOM     43  C   UNL     1      -0.972  -2.018   0.000  0.00  0.00    +0.000 C 
BRANCH  43  44
ATOM     44  C   UNL     1      -1.686  -1.606   0.000  0.00  0.00    +0.000 C 
BRANCH  44  45
ATOM     45  C   UNL     1      -2.401  -2.018   0.000  0.00  0.00    +0.000 C 
ATOM     46  O   UNL     1      -1.916  -2.686   0.000  0.00  0.00    +0.000 OA
BRANCH  45  48
ATOM     47  C   UNL     1      -3.115  -0.781   0.000  0.00  0.00    +0.000 C 
ATOM     48  C   UNL     1      -3.115  -1.606   0.000  0.00  0.00    +0.000 C 
BRANCH  48  49
ATOM     49  C   UNL     1      -3.830  -2.018   0.000  0.00  0.00    +0.000 C 
BRANCH  49  51
ATOM     50  C   UNL     1      -4.544  -0.781   0.000  0.00  0.00    +0.000 C 
ATOM     51  C   UNL     1      -4.544  -1.606   0.000  0.00  0.00    +0.000 C 
BRANCH  51  52
ATOM     52  C   UNL     1      -5.259  -2.018   0.000  0.00  0.00    +0.000 C 
ATOM     53  C   UNL     1      -5.973  -1.606   0.000  0.00  0.00    +0.000 C 
BRANCH  53  55
ATOM     54  C   UNL     1      -6.688  -2.844   0.000  0.00  0.00    +0.000 C 
ATOM     55  N   UNL     1      -6.688  -2.018   0.000  0.00  0.00    +0.000 N 
BRANCH  55  56
ATOM     56  C   UNL     1      -7.402  -1.606   0.000  0.00  0.00    +0.000 C 
ATOM     57  O   UNL     1      -8.117  -2.018   0.000  0.00  0.00    +0.000 OA
ENDBRANCH  55  56
ENDBRANCH  53  55
ENDBRANCH  51  52
ENDBRANCH  49  51
BRANCH  49  58
ATOM     58  O   UNL     1      -3.830  -2.844   0.000  0.00  0.00    +0.000 OA
BRANCH  58  60
ATOM     59  C   UNL     1      -3.115  -4.081   0.000  0.00  0.00    +0.000 C 
ATOM     60  C   UNL     1      -3.115  -3.256   0.000  0.00  0.00    +0.000 C 
ATOM     61  O   UNL     1      -2.401  -2.844   0.000  0.00  0.00    +0.000 OA
ENDBRANCH  58  60
ENDBRANCH  49  58
ENDBRANCH  48  49
ENDBRANCH  45  48
ENDBRANCH  44  45
ENDBRANCH  43  44
ENDBRANCH  42  43
ENDBRANCH  40  42
BRANCH  40  63
ATOM     62  C   UNL     1      -0.258  -3.256   0.000  0.00  0.00    +0.000 C 
ATOM     63  O   UNL     1       0.457  -2.844   0.000  0.00  0.00    +0.000 OA
ENDBRANCH  40  63
ENDBRANCH  39  40
ENDBRANCH  22  39
TORSDOF 16
