REMARK  Name = 
REMARK  6 active torsions:
REMARK  status: ('A' for Active; 'I' for Inactive)
REMARK    1  A    between atoms: N_5  and  C_8
REMARK    2  A    between atoms: C_11  and  C_21
REMARK    3  A    between atoms: C_12  and  N_14
REMARK    4  A    between atoms: N_14  and  C_15
REMARK    5  A    between atoms: C_27  and  C_33
REMARK    6  A    between atoms: C_33  and  C_34
REMARK                            x       y       z     vdW  Elec       q    Type
REMARK                         _______ _______ _______ _____ _____    ______ ____
ROOT
ATOM      1  C   UNL     1       0.077   0.926   0.000  0.00  0.00    +0.000 C 
ATOM      2  O   UNL     1      -0.475   0.313   0.000  0.00  0.00    +0.000 OA
ATOM      3  N   UNL     1       0.884   0.754   0.000  0.00  0.00    +0.000 NA
ATOM      4  C   UNL     1       1.139  -0.030   0.000  0.00  0.00    +0.000 A 
ATOM      5  C   UNL     1       1.923  -0.285   0.000  0.00  0.00    +0.000 A 
ATOM      6  C   UNL     1       2.638   0.127   0.000  0.00  0.00    +0.000 A 
ATOM      7  C   UNL     1       3.352  -0.285   0.000  0.00  0.00    +0.000 A 
ATOM      8  C   UNL     1       3.352  -1.110   0.000  0.00  0.00    +0.000 A 
ATOM      9  C   UNL     1       2.638  -1.523   0.000  0.00  0.00    +0.000 A 
ATOM     10  C   UNL     1       1.923  -1.110   0.000  0.00  0.00    +0.000 A 
ATOM     11  N   UNL     1       1.139  -1.365   0.000  0.00  0.00    +0.000 NA
ATOM     12  N   UNL     1       0.654  -0.698   0.000  0.00  0.00    +0.000 NA
ENDROOT
BRANCH   1  16
ATOM     13  C   UNL     1      -0.688   3.280   0.000  0.00  0.00    +0.000 A 
ATOM     14  C   UNL     1       0.119   3.108   0.000  0.00  0.00    +0.000 A 
ATOM     15  C   UNL     1       0.374   2.323   0.000  0.00  0.00    +0.000 A 
ATOM     16  C   UNL     1      -0.178   1.710   0.000  0.00  0.00    +0.000 A 
ATOM     17  C   UNL     1      -0.985   1.882   0.000  0.00  0.00    +0.000 A 
ATOM     18  C   UNL     1      -1.240   2.666   0.000  0.00  0.00    +0.000 A 
BRANCH  13  23
ATOM     19  C   UNL     1      -1.708   6.418   0.000  0.00  0.00    +0.000 C 
ATOM     20  N   UNL     1      -1.453   5.633   0.000  0.00  0.00    +0.000 NA
ATOM     21  C   UNL     1      -0.646   5.462   0.000  0.00  0.00    +0.000 C 
ATOM     22  C   UNL     1      -0.391   4.677   0.000  0.00  0.00    +0.000 C 
ATOM     23  N   UNL     1      -0.943   4.064   0.000  0.00  0.00    +0.000 N 
ATOM     24  C   UNL     1      -1.750   4.236   0.000  0.00  0.00    +0.000 C 
ATOM     25  C   UNL     1      -2.005   5.020   0.000  0.00  0.00    +0.000 C 
ENDBRANCH  13  23
BRANCH  17  26
ATOM     26  N   UNL     1      -1.537   1.269   0.000  0.00  0.00    +0.000 NA
BRANCH  26  27
ATOM     27  C   UNL     1      -2.344   1.440   0.000  0.00  0.00    +0.000 C 
ATOM     28  C   UNL     1      -2.896   0.827   0.000  0.00  0.00    +0.000 C 
ATOM     29  C   UNL     1      -3.703   0.999   0.000  0.00  0.00    +0.000 C 
ATOM     30  O   UNL     1      -3.958   1.783   0.000  0.00  0.00    +0.000 OA
ATOM     31  C   UNL     1      -3.406   2.396   0.000  0.00  0.00    +0.000 C 
ATOM     32  C   UNL     1      -2.599   2.225   0.000  0.00  0.00    +0.000 C 
ENDBRANCH  26  27
ENDBRANCH  17  26
ENDBRANCH   1  16
BRANCH   7  33
ATOM     33  C   UNL     1       4.067   0.127   0.000  0.00  0.00    +0.000 C 
BRANCH  33  34
ATOM     34  C   UNL     1       4.781  -0.285   0.000  0.00  0.00    +0.000 A 
ATOM     35  C   UNL     1       5.496   0.127   0.000  0.00  0.00    +0.000 A 
ATOM     36  C   UNL     1       6.210  -0.285   0.000  0.00  0.00    +0.000 A 
ATOM     37  C   UNL     1       6.210  -1.110   0.000  0.00  0.00    +0.000 A 
ATOM     38  C   UNL     1       5.496  -1.523   0.000  0.00  0.00    +0.000 A 
ATOM     39  C   UNL     1       4.781  -1.110   0.000  0.00  0.00    +0.000 A 
ATOM     40  F   UNL     1       5.496  -2.348   0.000  0.00  0.00    +0.000 F 
ATOM     41  F   UNL     1       6.925   0.127   0.000  0.00  0.00    +0.000 F 
ENDBRANCH  33  34
ENDBRANCH   7  33
TORSDOF 6
