REMARK  Name = 
REMARK  5 active torsions:
REMARK  status: ('A' for Active; 'I' for Inactive)
REMARK    1  A    between atoms: C_6  and  C_25
REMARK    2  A    between atoms: C_8  and  C_9
REMARK    3  A    between atoms: C_12  and  C_15
REMARK    4  A    between atoms: C_18  and  C_19
REMARK    5  A    between atoms: C_19  and  C_20
REMARK                            x       y       z     vdW  Elec       q    Type
REMARK                         _______ _______ _______ _____ _____    ______ ____
ROOT
ATOM      1  C   UNL     1      -0.715  -3.712   0.000  0.00  0.00    +0.000 A 
ATOM      2  C   UNL     1      -1.429  -4.125   0.000  0.00  0.00    +0.000 A 
ATOM      3  C   UNL     1      -2.143  -3.712   0.000  0.00  0.00    +0.000 A 
ATOM      4  C   UNL     1      -2.143  -2.888   0.000  0.00  0.00    +0.000 A 
ATOM      5  C   UNL     1      -1.429  -2.475   0.000  0.00  0.00    +0.000 A 
ATOM      6  C   UNL     1      -0.715  -2.888   0.000  0.00  0.00    +0.000 A 
ENDROOT
BRANCH   1  14
ATOM      7  C   UNL     1       0.715  -2.888   0.000  0.00  0.00    +0.000 C 
ATOM      8  C   UNL     1       0.715  -3.712   0.000  0.00  0.00    +0.000 A 
ATOM      9  N   UNL     1       1.429  -4.125   0.000  0.00  0.00    +0.000 NA
ATOM     10  C   UNL     1       1.429  -4.950   0.000  0.00  0.00    +0.000 A 
ATOM     11  C   UNL     1       2.143  -5.362   0.000  0.00  0.00    +0.000 C 
ATOM     12  C   UNL     1       0.715  -5.362   0.000  0.00  0.00    +0.000 A 
ATOM     13  N   UNL     1       0.000  -4.950   0.000  0.00  0.00    +0.000 NA
ATOM     14  C   UNL     1       0.000  -4.125   0.000  0.00  0.00    +0.000 A 
BRANCH  12  15
ATOM     15  C   UNL     1       0.715  -6.188   0.000  0.00  0.00    +0.000 C 
ATOM     16  N   UNL     1       0.000  -6.600   0.000  0.00  0.00    +0.000 NA
ATOM     17  O   UNL     1       1.429  -6.600   0.000  0.00  0.00    +0.000 OA
ENDBRANCH  12  15
ENDBRANCH   1  14
BRANCH   4  18
ATOM     18  C   UNL     1      -2.858  -2.475   0.000  0.00  0.00    +0.000 C 
ATOM     19  C   UNL     1      -3.572  -2.888   0.000  0.00  0.00    +0.000 C 
ATOM     20  C   UNL     1      -4.287  -2.475   0.000  0.00  0.00    +0.000 C 
ATOM     21  C   UNL     1      -4.287  -1.650   0.000  0.00  0.00    +0.000 C 
ATOM     22  C   UNL     1      -3.572  -1.238   0.000  0.00  0.00    +0.000 C 
ATOM     23  C   UNL     1      -2.858  -1.650   0.000  0.00  0.00    +0.000 C 
BRANCH  21  24
ATOM     24  C   UNL     1      -5.001  -1.238   0.000  0.00  0.00    +0.000 C 
BRANCH  24  25
ATOM     25  C   UNL     1      -5.001  -0.412   0.000  0.00  0.00    +0.000 C 
ATOM     26  O   UNL     1      -5.716   0.000   0.000  0.00  0.00    +0.000 OA
ATOM     27  O   UNL     1      -4.287   0.000   0.000  0.00  0.00    +0.000 OA
ENDBRANCH  24  25
ENDBRANCH  21  24
ENDBRANCH   4  18
TORSDOF 5
