REMARK  Name = 
REMARK  4 active torsions:
REMARK  status: ('A' for Active; 'I' for Inactive)
REMARK    1  A    between atoms: O_7  and  C_18
REMARK    2  A    between atoms: N_9  and  C_12
REMARK    3  A    between atoms: C_12  and  C_17
REMARK    4  A    between atoms: C_15  and  C_16
REMARK                            x       y       z     vdW  Elec       q    Type
REMARK                         _______ _______ _______ _____ _____    ______ ____
ROOT
ATOM      1  O   UNL     1       0.191  -0.073   0.000  0.00  0.00    +0.000 OA
ATOM      2  O   UNL     1      -1.952   0.340   0.000  0.00  0.00    +0.000 OA
ATOM      3  O   UNL     1      -1.952  -1.310   0.000  0.00  0.00    +0.000 OA
ATOM      4  O   UNL     1      -0.523  -2.135   0.000  0.00  0.00    +0.000 OA
ATOM      5  C   UNL     1      -1.238  -0.073   0.000  0.00  0.00    +0.000 C 
ATOM      6  C   UNL     1      -0.523   0.340   0.000  0.00  0.00    +0.000 C 
ATOM      7  C   UNL     1      -1.238  -0.898   0.000  0.00  0.00    +0.000 C 
ATOM      8  C   UNL     1      -0.523  -1.310   0.000  0.00  0.00    +0.000 C 
ATOM      9  C   UNL     1       0.191  -0.898   0.000  0.00  0.00    +0.000 C 
ENDROOT
BRANCH   6  12
ATOM     10  O   UNL     1      -1.761   1.054   0.000  0.00  0.00    +0.000 OA
ATOM     11  N   UNL     1      -0.936   1.879   0.000  0.00  0.00    +0.000 N 
ATOM     12  C   UNL     1      -0.936   1.054   0.000  0.00  0.00    +0.000 C 
ATOM     13  H   UNL     1      -1.379   2.135   0.000  0.00  0.00    +0.000 HD
ATOM     14  H   UNL     1      -0.492   2.135   0.000  0.00  0.00    +0.000 HD
ENDBRANCH   6  12
BRANCH   6  16
ATOM     15  O   UNL     1       1.127   0.340   0.000  0.00  0.00    +0.000 OA
ATOM     16  N   UNL     1      -0.111   1.054   0.000  0.00  0.00    +0.000 N 
ATOM     17  C   UNL     1       0.715   1.054   0.000  0.00  0.00    +0.000 C 
ATOM     18  H   UNL     1      -0.111   1.566   0.000  0.00  0.00    +0.000 HD
BRANCH  17  19
ATOM     19  O   UNL     1       1.127   1.769   0.000  0.00  0.00    +0.000 OA
ATOM     20  C   UNL     1       1.952   1.769   0.000  0.00  0.00    +0.000 C 
ENDBRANCH  17  19
ENDBRANCH   6  16
BRANCH   9  22
ATOM     21  O   UNL     1       1.621  -0.898   0.000  0.00  0.00    +0.000 OA
ATOM     22  C   UNL     1       0.906  -1.310   0.000  0.00  0.00    +0.000 C 
ENDBRANCH   9  22
TORSDOF 4
