REMARK  Name = 
REMARK  8 active torsions:
REMARK  status: ('A' for Active; 'I' for Inactive)
REMARK    1  A    between atoms: C_1  and  C_6
REMARK    2  A    between atoms: C_2  and  N_3
REMARK    3  A    between atoms: C_4  and  C_7
REMARK    4  A    between atoms: C_6  and  N_9
REMARK    5  A    between atoms: C_8  and  O_13
REMARK    6  A    between atoms: N_9  and  C_21
REMARK    7  A    between atoms: C_11  and  O_24
REMARK    8  A    between atoms: O_13  and  C_15
REMARK                            x       y       z     vdW  Elec       q    Type
REMARK                         _______ _______ _______ _____ _____    ______ ____
ROOT
ATOM      1  C   UNL     1      -1.837   0.167   0.000  0.00  0.00    +0.000 A 
ATOM      2  C   UNL     1      -1.116   0.600   0.000  0.00  0.00    +0.000 A 
ATOM      3  C   UNL     1      -1.116   1.407   0.000  0.00  0.00    +0.000 A 
ATOM      4  C   UNL     1      -1.837   1.826   0.000  0.00  0.00    +0.000 A 
ATOM      5  C   UNL     1      -2.549   0.600   0.000  0.00  0.00    +0.000 A 
ATOM      6  C   UNL     1      -2.549   1.425   0.000  0.00  0.00    +0.000 A 
ATOM      7 BR   UNL     1      -0.390   1.826   0.000  0.00  0.00    +0.000 Br
ATOM      8 BR   UNL     1      -3.244   1.880   0.000  0.00  0.00    +0.000 Br
ENDROOT
BRANCH   2   9
ATOM      9  N   UNL     1      -0.390   0.167   0.000  0.00  0.00    +0.000 NA
ATOM     10  C   UNL     1       0.331   0.622   0.000  0.00  0.00    +0.000 C 
ATOM     11  O   UNL     1       0.345   1.447   0.000  0.00  0.00    +0.000 OA
BRANCH  10  12
ATOM     12  C   UNL     1       1.062   0.221   0.000  0.00  0.00    +0.000 A 
ATOM     13  C   UNL     1       2.482  -0.577   0.000  0.00  0.00    +0.000 A 
ATOM     14  C   UNL     1       2.491   0.243   0.000  0.00  0.00    +0.000 A 
ATOM     15  C   UNL     1       1.765   0.649   0.000  0.00  0.00    +0.000 A 
ATOM     16  C   UNL     1       1.048  -0.604   0.000  0.00  0.00    +0.000 A 
ATOM     17  C   UNL     1       1.819  -1.001   0.000  0.00  0.00    +0.000 A 
BRANCH  14  18
ATOM     18  O   UNL     1       3.194   0.676   0.000  0.00  0.00    +0.000 OA
ATOM     19  C   UNL     1       3.171   1.650   0.000  0.00  0.00    +0.000 C 
ENDBRANCH  14  18
BRANCH  13  20
ATOM     20  O   UNL     1       3.248  -1.001   0.000  0.00  0.00    +0.000 OA
BRANCH  20  21
ATOM     21  C   UNL     1       3.969  -0.554   0.000  0.00  0.00    +0.000 C 
ATOM     22  O   UNL     1       3.942   0.068   0.000  0.00  0.00    +0.000 OA
ATOM     23  C   UNL     1       4.700  -0.947   0.000  0.00  0.00    +0.000 C 
ENDBRANCH  20  21
ENDBRANCH  13  20
ENDBRANCH  10  12
ENDBRANCH   2   9
BRANCH   1  24
ATOM     24  C   UNL     1      -1.837  -0.649   0.000  0.00  0.00    +0.000 C 
BRANCH  24  25
ATOM     25  N   UNL     1      -2.567  -1.055   0.000  0.00  0.00    +0.000 NA
ATOM     26  C   UNL     1      -2.567  -1.880   0.000  0.00  0.00    +0.000 C 
BRANCH  25  27
ATOM     27  C   UNL     1      -3.266  -0.649   0.000  0.00  0.00    +0.000 C 
ATOM     28  C   UNL     1      -3.996  -1.055   0.000  0.00  0.00    +0.000 C 
ATOM     29  C   UNL     1      -3.266   0.167   0.000  0.00  0.00    +0.000 C 
ATOM     30  C   UNL     1      -3.996   0.573   0.000  0.00  0.00    +0.000 C 
ATOM     31  C   UNL     1      -4.700  -0.649   0.000  0.00  0.00    +0.000 C 
ATOM     32  C   UNL     1      -4.700   0.167   0.000  0.00  0.00    +0.000 C 
ENDBRANCH  25  27
ENDBRANCH  24  25
ENDBRANCH   1  24
TORSDOF 8
