REMARK  Name = 
REMARK  4 active torsions:
REMARK  status: ('A' for Active; 'I' for Inactive)
REMARK    1  A    between atoms: C_7  and  C_8
REMARK    2  A    between atoms: C_8  and  C_9
REMARK    3  A    between atoms: N_18  and  C_22
REMARK    4  A    between atoms: C_25  and  C_28
REMARK                            x       y       z     vdW  Elec       q    Type
REMARK                         _______ _______ _______ _____ _____    ______ ____
ROOT
ATOM      1  C   UNL     1       0.715  -2.888   0.000  0.00  0.00    +0.000 C 
ATOM      2  C   UNL     1       0.715  -3.712   0.000  0.00  0.00    +0.000 A 
ATOM      3  C   UNL     1       1.429  -4.125   0.000  0.00  0.00    +0.000 A 
ATOM      4  C   UNL     1       1.429  -4.950   0.000  0.00  0.00    +0.000 A 
ATOM      5  N   UNL     1       0.715  -5.362   0.000  0.00  0.00    +0.000 NA
ATOM      6  N   UNL     1       0.000  -4.950   0.000  0.00  0.00    +0.000 NA
ATOM      7  C   UNL     1       0.000  -4.125   0.000  0.00  0.00    +0.000 A 
ATOM      8  N   UNL     1       2.143  -5.362   0.000  0.00  0.00    +0.000 N 
ATOM      9  C   UNL     1       2.858  -4.950   0.000  0.00  0.00    +0.000 C 
ATOM     10  C   UNL     1       3.572  -5.362   0.000  0.00  0.00    +0.000 C 
ATOM     11  N   UNL     1       3.572  -6.188   0.000  0.00  0.00    +0.000 N 
ATOM     12  C   UNL     1       2.858  -6.600   0.000  0.00  0.00    +0.000 C 
ATOM     13  C   UNL     1       2.143  -6.188   0.000  0.00  0.00    +0.000 C 
ATOM     14  C   UNL     1       2.858  -7.425   0.000  0.00  0.00    +0.000 C 
ATOM     15  C   UNL     1       2.143  -3.712   0.000  0.00  0.00    +0.000 C 
ENDROOT
BRANCH  11  16
ATOM     16  C   UNL     1       4.287  -6.600   0.000  0.00  0.00    +0.000 A 
ATOM     17  C   UNL     1       5.001  -6.188   0.000  0.00  0.00    +0.000 A 
ATOM     18  N   UNL     1       5.716  -6.600   0.000  0.00  0.00    +0.000 NA
ATOM     19  C   UNL     1       5.716  -7.425   0.000  0.00  0.00    +0.000 A 
ATOM     20  C   UNL     1       5.001  -7.838   0.000  0.00  0.00    +0.000 A 
ATOM     21  N   UNL     1       4.287  -7.425   0.000  0.00  0.00    +0.000 NA
BRANCH  19  22
ATOM     22  C   UNL     1       6.430  -7.838   0.000  0.00  0.00    +0.000 C 
ATOM     23  C   UNL     1       7.145  -8.250   0.000  0.00  0.00    +0.000 C 
ATOM     24  C   UNL     1       6.018  -8.552   0.000  0.00  0.00    +0.000 C 
ATOM     25  O   UNL     1       6.843  -7.123   0.000  0.00  0.00    +0.000 OA
ENDBRANCH  19  22
ENDBRANCH  11  16
BRANCH   7  26
ATOM     26  C   UNL     1      -0.715  -3.712   0.000  0.00  0.00    +0.000 C 
BRANCH  26  27
ATOM     27  C   UNL     1      -1.429  -4.125   0.000  0.00  0.00    +0.000 A 
ATOM     28  C   UNL     1      -1.429  -4.950   0.000  0.00  0.00    +0.000 A 
ATOM     29  C   UNL     1      -2.143  -5.362   0.000  0.00  0.00    +0.000 A 
ATOM     30  C   UNL     1      -2.858  -4.950   0.000  0.00  0.00    +0.000 A 
ATOM     31  C   UNL     1      -2.858  -4.125   0.000  0.00  0.00    +0.000 A 
ATOM     32  C   UNL     1      -2.143  -3.712   0.000  0.00  0.00    +0.000 A 
ENDBRANCH  26  27
ENDBRANCH   7  26
TORSDOF 4
