REMARK  Name = 
REMARK  8 active torsions:
REMARK  status: ('A' for Active; 'I' for Inactive)
REMARK    1  A    between atoms: C_10  and  C_38
REMARK    2  A    between atoms: C_10  and  C_58
REMARK    3  A    between atoms: C_18  and  C_21
REMARK    4  A    between atoms: N_25  and  C_47
REMARK    5  A    between atoms: C_31  and  C_56
REMARK    6  A    between atoms: C_39  and  O_53
REMARK    7  A    between atoms: C_47  and  C_48
REMARK    8  A    between atoms: C_58  and  O_59
REMARK                            x       y       z     vdW  Elec       q    Type
REMARK                         _______ _______ _______ _____ _____    ______ ____
ROOT
ATOM      1  C   UNL     1       2.835  -1.126   0.000  0.00  0.00    +0.000 C 
ATOM      2  C   UNL     1       2.249  -1.709   0.000  0.00  0.00    +0.000 C 
ATOM      3  N   UNL     1       2.622  -2.447   0.000  0.00  0.00    +0.000 N 
ATOM      4  C   UNL     1       3.440  -2.320   0.000  0.00  0.00    +0.000 C 
ATOM      5  O   UNL     1       3.571  -1.504   0.000  0.00  0.00    +0.000 OA
ATOM      6  C   UNL     1       2.125   0.110   0.000  0.00  0.00    +0.000 C 
ATOM      7  C   UNL     1       2.125  -0.716   0.000  0.00  0.00    +0.000 C 
ATOM      8  C   UNL     1       3.551  -0.716   0.000  0.00  0.00    +0.000 C 
ATOM      9  C   UNL     1       3.551   0.110   0.000  0.00  0.00    +0.000 C 
ATOM     10  C   UNL     1       2.835   0.526   0.000  0.00  0.00    +0.000 C 
ATOM     11  C   UNL     1       1.411   1.356   0.000  0.00  0.00    +0.000 C 
ATOM     12  C   UNL     1       1.409   0.530   0.000  0.00  0.00    +0.000 C 
ATOM     13  C   UNL     1       0.697   0.114   0.000  0.00  0.00    +0.000 A 
ATOM     14  C   UNL     1       0.696  -0.712   0.000  0.00  0.00    +0.000 A 
ATOM     15  N   UNL     1       1.411  -1.129   0.000  0.00  0.00    +0.000 N 
ATOM     16  C   UNL     1      -0.732   0.110   0.000  0.00  0.00    +0.000 A 
ATOM     17  C   UNL     1      -0.733  -0.717   0.000  0.00  0.00    +0.000 A 
ATOM     18  C   UNL     1      -0.018  -1.131   0.000  0.00  0.00    +0.000 A 
ATOM     19  C   UNL     1      -0.019   0.523   0.000  0.00  0.00    +0.000 A 
ATOM     20  N   UNL     1       2.837   1.353   0.000  0.00  0.00    +0.000 NA
ATOM     21  C   UNL     1       4.254   0.520   0.000  0.00  0.00    +0.000 C 
ATOM     22  C   UNL     1       4.260   1.344   0.000  0.00  0.00    +0.000 C 
ATOM     23  C   UNL     1       3.549   1.763   0.000  0.00  0.00    +0.000 C 
ATOM     24  O   UNL     1       4.152  -2.732   0.000  0.00  0.00    +0.000 OA
ATOM     25  O   UNL     1       1.420  -1.709   0.000  0.00  0.00    +0.000 OA
ATOM     26  C   UNL     1       0.693  -1.539   0.000  0.00  0.00    +0.000 C 
ENDROOT
BRANCH  16  36
ATOM     27  C   UNL     1      -3.591   2.708   0.000  0.00  0.00    +0.000 A 
ATOM     28  C   UNL     1      -3.587   1.911   0.000  0.00  0.00    +0.000 A 
ATOM     29  N   UNL     1      -2.893   1.510   0.000  0.00  0.00    +0.000 NA
ATOM     30  C   UNL     1      -4.974   2.706   0.000  0.00  0.00    +0.000 A 
ATOM     31  C   UNL     1      -4.975   1.905   0.000  0.00  0.00    +0.000 A 
ATOM     32  C   UNL     1      -4.286   1.506   0.000  0.00  0.00    +0.000 A 
ATOM     33  C   UNL     1      -4.288   3.105   0.000  0.00  0.00    +0.000 A 
ATOM     34  C   UNL     1      -2.211   2.716   0.000  0.00  0.00    +0.000 A 
ATOM     35  C   UNL     1      -2.210   1.919   0.000  0.00  0.00    +0.000 A 
ATOM     36  C   UNL     1      -1.523   1.526   0.000  0.00  0.00    +0.000 C 
ATOM     37  C   UNL     1      -1.530   3.119   0.000  0.00  0.00    +0.000 C 
ATOM     38  C   UNL     1      -0.839   1.924   0.000  0.00  0.00    +0.000 C 
ATOM     39  C   UNL     1      -0.837   2.721   0.000  0.00  0.00    +0.000 C 
ATOM     40  N   UNL     1      -0.209   3.222   0.000  0.00  0.00    +0.000 NA
ATOM     41  C   UNL     1      -0.210   1.424   0.000  0.00  0.00    +0.000 C 
ATOM     42  C   UNL     1       0.570   3.049   0.000  0.00  0.00    +0.000 C 
ATOM     43  C   UNL     1       0.571   1.604   0.000  0.00  0.00    +0.000 C 
ATOM     44  C   UNL     1       0.914   2.328   0.000  0.00  0.00    +0.000 C 
ATOM     45  C   UNL     1       0.069   2.345   0.000  0.00  0.00    +0.000 C 
ATOM     46  O   UNL     1       1.625   2.744   0.000  0.00  0.00    +0.000 OA
BRANCH  44  47
ATOM     47  C   UNL     1       1.625   1.915   0.000  0.00  0.00    +0.000 C 
ATOM     48  C   UNL     1       2.451   1.915   0.000  0.00  0.00    +0.000 C 
ENDBRANCH  44  47
BRANCH  36  49
ATOM     49  C   UNL     1      -1.941   0.815   0.000  0.00  0.00    +0.000 C 
ATOM     50  O   UNL     1      -1.531   0.101   0.000  0.00  0.00    +0.000 OA
BRANCH  49  51
ATOM     51  O   UNL     1      -2.741   1.031   0.000  0.00  0.00    +0.000 OA
ATOM     52  C   UNL     1      -3.457   0.621   0.000  0.00  0.00    +0.000 C 
ENDBRANCH  49  51
ENDBRANCH  36  49
ENDBRANCH  16  36
BRANCH  17  53
ATOM     53  O   UNL     1      -1.450  -1.126   0.000  0.00  0.00    +0.000 OA
ATOM     54  C   UNL     1      -2.250  -0.909   0.000  0.00  0.00    +0.000 C 
ENDBRANCH  17  53
BRANCH   9  55
ATOM     55  C   UNL     1       4.262  -0.303   0.000  0.00  0.00    +0.000 C 
ATOM     56  C   UNL     1       4.975   0.113   0.000  0.00  0.00    +0.000 C 
ENDBRANCH   9  55
BRANCH   3  57
ATOM     57  C   UNL     1       2.035  -3.029   0.000  0.00  0.00    +0.000 C 
BRANCH  57  58
ATOM     58  C   UNL     1       1.235  -2.812   0.000  0.00  0.00    +0.000 C 
ATOM     59 CL   UNL     1       0.519  -3.222   0.000  0.00  0.00    +0.000 Cl
ENDBRANCH  57  58
ENDBRANCH   3  57
TORSDOF 8
