REMARK  Name = 
REMARK  4 active torsions:
REMARK  status: ('A' for Active; 'I' for Inactive)
REMARK    1  A    between atoms: CA_2  and  C_3
REMARK    2  A    between atoms: CA_2  and  C_5
REMARK    3  A    between atoms: C_5  and  C_6
REMARK    4  A    between atoms: C_6  and  N_7
REMARK                            x       y       z     vdW  Elec       q    Type
REMARK                         _______ _______ _______ _____ _____    ______ ____
ROOT
ATOM      1  C   UNL     1      -0.714  -0.206   0.000  0.00  0.00    +0.000 C 
ENDROOT
BRANCH   1   3
ATOM      2  N   UNL     1      -1.429   1.031   0.000  0.00  0.00    +0.000 NA
ATOM      3  CA  UNL     1      -1.429   0.206   0.000  0.00  0.00    +0.000 C 
BRANCH   3   4
ATOM      4  C   UNL     1      -2.143  -0.206   0.000  0.00  0.00    +0.000 C 
ATOM      5  O   UNL     1      -2.858   0.206   0.000  0.00  0.00    +0.000 OA
ATOM      6  OXT UNL     1      -2.143  -1.031   0.000  0.00  0.00    +0.000 OA
ENDBRANCH   3   4
ENDBRANCH   1   3
BRANCH   1   7
ATOM      7  C   UNL     1       0.000   0.206   0.000  0.00  0.00    +0.000 C 
BRANCH   7   8
ATOM      8  N   UNL     1       0.714  -0.206   0.000  0.00  0.00    +0.000 NA
ATOM      9  C   UNL     1       1.429   0.206   0.000  0.00  0.00    +0.000 C 
ATOM     10  N   UNL     1       2.143  -0.206   0.000  0.00  0.00    +0.000 NA
ATOM     11  N   UNL     1       1.429   1.031   0.000  0.00  0.00    +0.000 NA
ATOM     12  O   UNL     1       2.858   0.206   0.000  0.00  0.00    +0.000 OA
ENDBRANCH   7   8
ENDBRANCH   1   7
TORSDOF 4
