REMARK  Name = 
REMARK  8 active torsions:
REMARK  status: ('A' for Active; 'I' for Inactive)
REMARK    1  A    between atoms: C_2  and  C_26
REMARK    2  A    between atoms: C_14  and  C_16
REMARK    3  A    between atoms: C_16  and  C_17
REMARK    4  A    between atoms: C_17  and  C_18
REMARK    5  A    between atoms: C_26  and  C_28
REMARK    6  A    between atoms: C_28  and  C_29
REMARK    7  A    between atoms: C_29  and  C_30
REMARK    8  A    between atoms: C_30  and  C_31
REMARK                            x       y       z     vdW  Elec       q    Type
REMARK                         _______ _______ _______ _____ _____    ______ ____
ROOT
ATOM      1  C   UNL     1       1.095  -2.658   0.000  0.00  0.00    +0.000 C 
ATOM      2  C   UNL     1       0.341  -2.993   0.000  0.00  0.00    +0.000 C 
ATOM      3  C   UNL     1      -0.211  -2.380   0.000  0.00  0.00    +0.000 C 
ATOM      4  C   UNL     1       0.202  -1.666   0.000  0.00  0.00    +0.000 C 
ATOM      5  C   UNL     1      -0.053  -0.881   0.000  0.00  0.00    +0.000 C 
ATOM      6  C   UNL     1      -0.860  -0.709   0.000  0.00  0.00    +0.000 C 
ATOM      7  C   UNL     1      -1.115   0.075   0.000  0.00  0.00    +0.000 C 
ATOM      8  C   UNL     1      -0.563   0.688   0.000  0.00  0.00    +0.000 C 
ATOM      9  N   UNL     1      -0.818   1.473   0.000  0.00  0.00    +0.000 NA
ATOM     10  O   UNL     1      -1.625   1.645   0.000  0.00  0.00    +0.000 OA
ATOM     11  C   UNL     1       0.244   0.517   0.000  0.00  0.00    +0.000 C 
ATOM     12  C   UNL     1       0.273   1.341   0.000  0.00  0.00    +0.000 C 
ATOM     13  C   UNL     1       0.499  -0.268   0.000  0.00  0.00    +0.000 C 
ATOM     14  C   UNL     1       1.306  -0.439   0.000  0.00  0.00    +0.000 C 
ATOM     15  C   UNL     1       1.561  -1.224   0.000  0.00  0.00    +0.000 C 
ATOM     16  C   UNL     1       1.009  -1.837   0.000  0.00  0.00    +0.000 C 
ATOM     17  C   UNL     1       1.793  -2.092   0.000  0.00  0.00    +0.000 C 
ENDROOT
BRANCH   1  18
ATOM     18  C   UNL     1       1.809  -3.070   0.000  0.00  0.00    +0.000 C 
ATOM     19  C   UNL     1       1.809  -3.895   0.000  0.00  0.00    +0.000 C 
BRANCH  18  20
ATOM     20  C   UNL     1       2.524  -2.658   0.000  0.00  0.00    +0.000 C 
BRANCH  20  21
ATOM     21  C   UNL     1       3.238  -3.070   0.000  0.00  0.00    +0.000 C 
BRANCH  21  22
ATOM     22  C   UNL     1       3.953  -2.658   0.000  0.00  0.00    +0.000 C 
BRANCH  22  23
ATOM     23  C   UNL     1       4.667  -3.070   0.000  0.00  0.00    +0.000 C 
ATOM     24  C   UNL     1       5.382  -2.658   0.000  0.00  0.00    +0.000 C 
ATOM     25  C   UNL     1       4.667  -3.895   0.000  0.00  0.00    +0.000 C 
ENDBRANCH  22  23
ENDBRANCH  21  22
ENDBRANCH  20  21
ENDBRANCH  18  20
ENDBRANCH   1  18
BRANCH  11  26
ATOM     26  C   UNL     1       1.061   0.632   0.000  0.00  0.00    +0.000 C 
BRANCH  26  27
ATOM     27  C   UNL     1       1.569  -0.018   0.000  0.00  0.00    +0.000 C 
BRANCH  27  28
ATOM     28  C   UNL     1       2.386   0.096   0.000  0.00  0.00    +0.000 C 
ATOM     29  O   UNL     1       2.894  -0.554   0.000  0.00  0.00    +0.000 OA
ENDBRANCH  27  28
ENDBRANCH  26  27
ENDBRANCH  11  26
TORSDOF 8
