REMARK  Name = 
REMARK  5 active torsions:
REMARK  status: ('A' for Active; 'I' for Inactive)
REMARK    1  A    between atoms: C_2  and  S_3
REMARK    2  A    between atoms: S_3  and  C_6
REMARK    3  A    between atoms: C_10  and  C_12
REMARK    4  A    between atoms: C_14  and  C_27
REMARK    5  A    between atoms: N_29  and  C_30
REMARK                            x       y       z     vdW  Elec       q    Type
REMARK                         _______ _______ _______ _____ _____    ______ ____
ROOT
ATOM      1  C   UNL     1       2.898  -0.372   0.000  0.00  0.00    +0.000 A 
ATOM      2  C   UNL     1       3.705  -0.201   0.000  0.00  0.00    +0.000 A 
ATOM      3  C   UNL     1       3.960   0.584   0.000  0.00  0.00    +0.000 A 
ATOM      4  C   UNL     1       3.408   1.197   0.000  0.00  0.00    +0.000 A 
ATOM      5  C   UNL     1       2.601   1.026   0.000  0.00  0.00    +0.000 A 
ATOM      6  C   UNL     1       2.346   0.241   0.000  0.00  0.00    +0.000 A 
ATOM      7  C   UNL     1       1.521   0.241   0.000  0.00  0.00    +0.000 A 
ATOM      8  C   UNL     1       0.969  -0.372   0.000  0.00  0.00    +0.000 A 
ATOM      9  C   UNL     1       0.162  -0.201   0.000  0.00  0.00    +0.000 A 
ATOM     10  C   UNL     1      -0.092   0.584   0.000  0.00  0.00    +0.000 A 
ATOM     11  N   UNL     1       0.460   1.197   0.000  0.00  0.00    +0.000 NA
ATOM     12  C   UNL     1       1.266   1.026   0.000  0.00  0.00    +0.000 A 
ATOM     13  N   UNL     1       1.934   1.510   0.000  0.00  0.00    +0.000 NA
ATOM     14  C   UNL     1      -0.390  -0.814   0.000  0.00  0.00    +0.000 C 
ATOM     15  C   UNL     1       3.663   1.982   0.000  0.00  0.00    +0.000 C 
ENDROOT
BRANCH   1  20
ATOM     16  C   UNL     1       2.941  -2.554   0.000  0.00  0.00    +0.000 A 
ATOM     17  C   UNL     1       2.134  -2.726   0.000  0.00  0.00    +0.000 A 
ATOM     18  C   UNL     1       1.582  -2.113   0.000  0.00  0.00    +0.000 A 
ATOM     19  C   UNL     1       1.837  -1.328   0.000  0.00  0.00    +0.000 A 
ATOM     20  C   UNL     1       2.643  -1.157   0.000  0.00  0.00    +0.000 A 
ATOM     21  C   UNL     1       3.196  -1.770   0.000  0.00  0.00    +0.000 A 
BRANCH  16  22
ATOM     22  S   UNL     1       3.493  -3.168   0.000  0.00  0.00    +0.000 S 
ATOM     23  O   UNL     1       4.106  -2.615   0.000  0.00  0.00    +0.000 OA
ATOM     24  O   UNL     1       2.880  -3.720   0.000  0.00  0.00    +0.000 OA
BRANCH  22  26
ATOM     25  C   UNL     1       3.790  -4.565   0.000  0.00  0.00    +0.000 C 
ATOM     26  C   UNL     1       4.045  -3.781   0.000  0.00  0.00    +0.000 C 
ENDBRANCH  22  26
ENDBRANCH  16  22
ENDBRANCH   1  20
BRANCH   3  27
ATOM     27  C   UNL     1       4.767   0.756   0.000  0.00  0.00    +0.000 C 
ATOM     28  O   UNL     1       5.319   0.142   0.000  0.00  0.00    +0.000 OA
ATOM     29  N   UNL     1       5.022   1.540   0.000  0.00  0.00    +0.000 NA
BRANCH  29  30
ATOM     30  C   UNL     1       5.829   1.712   0.000  0.00  0.00    +0.000 C 
ATOM     31  C   UNL     1       6.084   2.496   0.000  0.00  0.00    +0.000 C 
ATOM     32  C   UNL     1       6.891   2.668   0.000  0.00  0.00    +0.000 C 
ATOM     33  N   UNL     1       7.443   2.055   0.000  0.00  0.00    +0.000 NA
ATOM     34  C   UNL     1       7.188   1.270   0.000  0.00  0.00    +0.000 C 
ATOM     35  C   UNL     1       6.381   1.099   0.000  0.00  0.00    +0.000 C 
ATOM     36  C   UNL     1       8.250   2.226   0.000  0.00  0.00    +0.000 C 
ENDBRANCH  29  30
ENDBRANCH   3  27
TORSDOF 5
