REMARK  Name = 
REMARK  6 active torsions:
REMARK  status: ('A' for Active; 'I' for Inactive)
REMARK    1  A    between atoms: C_3  and  C_5
REMARK    2  A    between atoms: C_7  and  C_8
REMARK    3  A    between atoms: C_8  and  O_9
REMARK    4  A    between atoms: O_9  and  C_10
REMARK    5  A    between atoms: C_16  and  N_17
REMARK    6  A    between atoms: N_17  and  C_18
REMARK                            x       y       z     vdW  Elec       q    Type
REMARK                         _______ _______ _______ _____ _____    ______ ____
ROOT
ATOM      1  C   UNL     1       0.715  -0.412   0.000  0.00  0.00    +0.000 A 
ATOM      2  C   UNL     1       0.000   0.000   0.000  0.00  0.00    +0.000 A 
ATOM      3  O   UNL     1      -0.785  -0.255   0.000  0.00  0.00    +0.000 OA
ATOM      4  C   UNL     1      -1.270   0.412   0.000  0.00  0.00    +0.000 A 
ATOM      5  C   UNL     1      -0.785   1.080   0.000  0.00  0.00    +0.000 A 
ATOM      6  C   UNL     1       0.000   0.825   0.000  0.00  0.00    +0.000 A 
ATOM      7  C   UNL     1       0.715   1.238   0.000  0.00  0.00    +0.000 A 
ATOM      8  N   UNL     1       1.429   0.825   0.000  0.00  0.00    +0.000 NA
ATOM      9  N   UNL     1       1.429   0.000   0.000  0.00  0.00    +0.000 NA
ENDROOT
BRANCH   7  10
ATOM     10  N   UNL     1       0.715   2.062   0.000  0.00  0.00    +0.000 NA
BRANCH  10  11
ATOM     11  C   UNL     1       1.429   2.475   0.000  0.00  0.00    +0.000 A 
ATOM     12  C   UNL     1       1.429   3.300   0.000  0.00  0.00    +0.000 A 
ATOM     13  C   UNL     1       2.143   3.712   0.000  0.00  0.00    +0.000 A 
ATOM     14  C   UNL     1       2.858   3.300   0.000  0.00  0.00    +0.000 A 
ATOM     15 CL   UNL     1       3.572   3.712   0.000  0.00  0.00    +0.000 Cl
ATOM     16  C   UNL     1       2.858   2.475   0.000  0.00  0.00    +0.000 A 
ATOM     17  C   UNL     1       2.143   2.062   0.000  0.00  0.00    +0.000 A 
ENDBRANCH  10  11
ENDBRANCH   7  10
BRANCH   1  18
ATOM     18  O   UNL     1       0.715  -1.238   0.000  0.00  0.00    +0.000 OA
BRANCH  18  19
ATOM     19  C   UNL     1       1.429  -1.650   0.000  0.00  0.00    +0.000 C 
BRANCH  19  22
ATOM     20  C   UNL     1       0.715  -3.712   0.000  0.00  0.00    +0.000 A 
ATOM     21  C   UNL     1       0.715  -2.888   0.000  0.00  0.00    +0.000 A 
ATOM     22  C   UNL     1       1.429  -2.475   0.000  0.00  0.00    +0.000 A 
ATOM     23  C   UNL     1       2.143  -2.888   0.000  0.00  0.00    +0.000 A 
ATOM     24  C   UNL     1       2.143  -3.712   0.000  0.00  0.00    +0.000 A 
ATOM     25  N   UNL     1       1.429  -4.125   0.000  0.00  0.00    +0.000 NA
BRANCH  20  28
ATOM     26  C   UNL     1      -0.715  -5.362   0.000  0.00  0.00    +0.000 C 
ATOM     27  N   UNL     1       0.000  -4.950   0.000  0.00  0.00    +0.000 NA
ATOM     28  C   UNL     1       0.000  -4.125   0.000  0.00  0.00    +0.000 C 
ATOM     29  O   UNL     1      -0.715  -3.712   0.000  0.00  0.00    +0.000 OA
ENDBRANCH  20  28
ENDBRANCH  19  22
ENDBRANCH  18  19
ENDBRANCH   1  18
TORSDOF 6
