REMARK  Name = 
REMARK  12 active torsions:
REMARK  status: ('A' for Active; 'I' for Inactive)
REMARK    1  A    between atoms: N_8  and  CA_14
REMARK    2  A    between atoms: N_9  and  CA_20
REMARK    3  A    between atoms: N_10  and  CA_15
REMARK    4  A    between atoms: C_11  and  C_12
REMARK    5  A    between atoms: C_11  and  C_13
REMARK    6  A    between atoms: C_12  and  CA_15
REMARK    7  A    between atoms: C_13  and  C_16
REMARK    8  A    between atoms: CA_14  and  CB_17
REMARK    9  A    between atoms: CA_14  and  C_18
REMARK   10  A    between atoms: CA_15  and  C_19
REMARK   11  A    between atoms: CA_20  and  C_21
REMARK   12  A    between atoms: CA_20  and  C_22
REMARK                            x       y       z     vdW  Elec       q    Type
REMARK                         _______ _______ _______ _____ _____    ______ ____
ROOT
ATOM      1  O   UNL     1      -0.357  -1.031   0.000  0.00  0.00    +0.000 OA
ATOM      2  N   UNL     1       0.357   0.206   0.000  0.00  0.00    +0.000 N 
ATOM      3  C   UNL     1      -0.357  -0.206   0.000  0.00  0.00    +0.000 C 
ATOM      4  H   UNL     1       0.357   0.718   0.000  0.00  0.00    +0.000 HD
ENDROOT
BRANCH   3   5
ATOM      5  C   UNL     1      -1.072   0.206   0.000  0.00  0.00    +0.000 C 
BRANCH   5   6
ATOM      6  C   UNL     1      -1.786  -0.206   0.000  0.00  0.00    +0.000 C 
BRANCH   6   7
ATOM      7  C   UNL     1      -2.501   0.206   0.000  0.00  0.00    +0.000 C 
BRANCH   7   8
ATOM      8  CA  UNL     1      -3.215  -0.206   0.000  0.00  0.00    +0.000 C 
BRANCH   8   9
ATOM      9  N   UNL     1      -3.215  -1.031   0.000  0.00  0.00    +0.000 NA
ATOM     10  H1  UNL     1      -2.772  -1.287   0.000  0.00  0.00    +0.000 HD
ATOM     11  H2  UNL     1      -3.658  -1.287   0.000  0.00  0.00    +0.000 HD
ENDBRANCH   8   9
BRANCH   8  14
ATOM     12  O   UNL     1      -4.644  -0.206   0.000  0.00  0.00    +0.000 OA
ATOM     13  OXT UNL     1      -3.930   1.031   0.000  0.00  0.00    +0.000 OA
ATOM     14  C   UNL     1      -3.930   0.206   0.000  0.00  0.00    +0.000 C 
ENDBRANCH   8  14
ENDBRANCH   7   8
ENDBRANCH   6   7
ENDBRANCH   5   6
ENDBRANCH   3   5
BRANCH   2  15
ATOM     15  CA  UNL     1       1.072  -0.206   0.000  0.00  0.00    +0.000 C 
BRANCH  15  18
ATOM     16  O   UNL     1       1.786   1.031   0.000  0.00  0.00    +0.000 OA
ATOM     17  N   UNL     1       2.501  -0.206   0.000  0.00  0.00    +0.000 N 
ATOM     18  C   UNL     1       1.786   0.206   0.000  0.00  0.00    +0.000 C 
ATOM     19  H   UNL     1       2.501  -0.718   0.000  0.00  0.00    +0.000 HD
BRANCH  17  20
ATOM     20  CA  UNL     1       3.215   0.206   0.000  0.00  0.00    +0.000 C 
BRANCH  20  23
ATOM     21  O   UNL     1       4.644   0.206   0.000  0.00  0.00    +0.000 OA
ATOM     22  OXT UNL     1       3.930  -1.031   0.000  0.00  0.00    +0.000 OA
ATOM     23  C   UNL     1       3.930  -0.206   0.000  0.00  0.00    +0.000 C 
ENDBRANCH  20  23
BRANCH  20  24
ATOM     24  C   UNL     1       3.215   1.031   0.000  0.00  0.00    +0.000 C 
ATOM     25  C   UNL     1       3.930   1.444   0.000  0.00  0.00    +0.000 C 
ENDBRANCH  20  24
ENDBRANCH  17  20
ENDBRANCH  15  18
BRANCH  15  27
ATOM     26  SG  UNL     1       0.357  -1.444   0.000  0.00  0.00    +0.000 S 
ATOM     27  CB  UNL     1       1.072  -1.031   0.000  0.00  0.00    +0.000 C 
ENDBRANCH  15  27
ENDBRANCH   2  15
TORSDOF 12
