REMARK  Name = 
REMARK  2 active torsions:
REMARK  status: ('A' for Active; 'I' for Inactive)
REMARK    1  A    between atoms: N_1  and  C_2
REMARK    2  A    between atoms: C_5  and  C_8
REMARK                            x       y       z     vdW  Elec       q    Type
REMARK                         _______ _______ _______ _____ _____    ______ ____
ROOT
ATOM      1  C   UNL     1      -0.320   0.217   0.000  0.00  0.00    +0.000 A 
ATOM      2  C   UNL     1       0.395  -0.196   0.000  0.00  0.00    +0.000 A 
ATOM      3  C   UNL     1       0.395  -1.021   0.000  0.00  0.00    +0.000 A 
ATOM      4  C   UNL     1      -0.320  -1.433   0.000  0.00  0.00    +0.000 A 
ATOM      5  C   UNL     1      -1.034  -1.021   0.000  0.00  0.00    +0.000 A 
ATOM      6  C   UNL     1      -1.034  -0.196   0.000  0.00  0.00    +0.000 A 
ENDROOT
BRANCH   1   7
ATOM      7  N   UNL     1      -0.320   1.042   0.000  0.00  0.00    +0.000 NA
ATOM      8  C   UNL     1       0.395   1.454   0.000  0.00  0.00    +0.000 C 
ATOM      9  O   UNL     1       0.395   2.279   0.000  0.00  0.00    +0.000 OA
ATOM     10  C   UNL     1       1.109   1.042   0.000  0.00  0.00    +0.000 C 
ENDBRANCH   1   7
BRANCH   4  11
ATOM     11  C   UNL     1      -0.320  -2.258   0.000  0.00  0.00    +0.000 C 
ATOM     12  O   UNL     1      -1.034  -2.671   0.000  0.00  0.00    +0.000 OA
ATOM     13  O   UNL     1       0.395  -2.671   0.000  0.00  0.00    +0.000 OA
ENDBRANCH   4  11
TORSDOF 2
