REMARK  Name = 
REMARK  10 active torsions:
REMARK  status: ('A' for Active; 'I' for Inactive)
REMARK    1  A    between atoms: C_2  and  C_4
REMARK    2  A    between atoms: C_2  and  N_12
REMARK    3  A    between atoms: C_4  and  C_5
REMARK    4  A    between atoms: C_13  and  C_15
REMARK    5  A    between atoms: C_15  and  C_16
REMARK    6  A    between atoms: C_15  and  N_21
REMARK    7  A    between atoms: C_16  and  C_17
REMARK    8  A    between atoms: C_17  and  C_18
REMARK    9  A    between atoms: C_22  and  C_24
REMARK   10  A    between atoms: C_27  and  C_30
REMARK                            x       y       z     vdW  Elec       q    Type
REMARK                         _______ _______ _______ _____ _____    ______ ____
ROOT
ATOM      1  C   UNL     1       0.715  -6.188   0.000  0.00  0.00    +0.000 C 
ENDROOT
BRANCH   1   3
ATOM      2  N   UNL     1       0.000  -7.425   0.000  0.00  0.00    +0.000 NA
ATOM      3  C   UNL     1       0.715  -7.013   0.000  0.00  0.00    +0.000 C 
ATOM      4  O   UNL     1       1.429  -7.425   0.000  0.00  0.00    +0.000 OA
BRANCH   2   6
ATOM      5  C   UNL     1       0.825  -8.250   0.000  0.00  0.00    +0.000 C 
ATOM      6  C   UNL     1       0.000  -8.250   0.000  0.00  0.00    +0.000 C 
ATOM      7  C   UNL     1      -0.825  -8.250   0.000  0.00  0.00    +0.000 C 
BRANCH   6   8
ATOM      8  C   UNL     1       0.000  -9.075   0.000  0.00  0.00    +0.000 C 
BRANCH   8   9
ATOM      9  C   UNL     1      -0.715  -9.488   0.000  0.00  0.00    +0.000 A 
ATOM     10  C   UNL     1      -0.715 -10.312   0.000  0.00  0.00    +0.000 A 
ATOM     11  C   UNL     1      -1.429 -10.725   0.000  0.00  0.00    +0.000 A 
ATOM     12  C   UNL     1      -2.143 -10.312   0.000  0.00  0.00    +0.000 A 
ATOM     13  F   UNL     1      -2.858 -10.725   0.000  0.00  0.00    +0.000 F 
ATOM     14  C   UNL     1      -2.143  -9.488   0.000  0.00  0.00    +0.000 A 
ATOM     15  C   UNL     1      -1.429  -9.075   0.000  0.00  0.00    +0.000 A 
ENDBRANCH   8   9
ENDBRANCH   6   8
ENDBRANCH   2   6
ENDBRANCH   1   3
BRANCH   1  16
ATOM     16  N   UNL     1       1.429  -5.775   0.000  0.00  0.00    +0.000 NA
ATOM     17  C   UNL     1       1.429  -4.950   0.000  0.00  0.00    +0.000 C 
ATOM     18  O   UNL     1       0.715  -4.537   0.000  0.00  0.00    +0.000 OA
BRANCH  17  19
ATOM     19  C   UNL     1       2.143  -4.537   0.000  0.00  0.00    +0.000 A 
ATOM     20  C   UNL     1       2.143  -3.712   0.000  0.00  0.00    +0.000 A 
ATOM     21  C   UNL     1       2.858  -3.300   0.000  0.00  0.00    +0.000 A 
ATOM     22  C   UNL     1       3.572  -3.712   0.000  0.00  0.00    +0.000 A 
ATOM     23  C   UNL     1       3.572  -4.537   0.000  0.00  0.00    +0.000 A 
ATOM     24  C   UNL     1       2.858  -4.950   0.000  0.00  0.00    +0.000 A 
BRANCH  22  25
ATOM     25  C   UNL     1       4.287  -3.300   0.000  0.00  0.00    +0.000 A 
ATOM     26  C   UNL     1       4.287  -2.475   0.000  0.00  0.00    +0.000 A 
ATOM     27  C   UNL     1       5.001  -2.062   0.000  0.00  0.00    +0.000 A 
ATOM     28  C   UNL     1       5.716  -2.475   0.000  0.00  0.00    +0.000 A 
ATOM     29  C   UNL     1       5.716  -3.300   0.000  0.00  0.00    +0.000 A 
ATOM     30  C   UNL     1       5.001  -3.712   0.000  0.00  0.00    +0.000 A 
ENDBRANCH  22  25
ENDBRANCH  17  19
ENDBRANCH   1  16
BRANCH   1  31
ATOM     31  C   UNL     1       0.000  -5.775   0.000  0.00  0.00    +0.000 C 
BRANCH  31  32
ATOM     32  C   UNL     1       0.000  -4.950   0.000  0.00  0.00    +0.000 C 
BRANCH  32  33
ATOM     33  C   UNL     1      -0.715  -4.537   0.000  0.00  0.00    +0.000 C 
ATOM     34  O   UNL     1      -1.429  -4.950   0.000  0.00  0.00    +0.000 OA
ATOM     35  O   UNL     1      -0.715  -3.712   0.000  0.00  0.00    +0.000 OA
ENDBRANCH  32  33
ENDBRANCH  31  32
ENDBRANCH   1  31
TORSDOF 10
