REMARK  Name = 
REMARK  8 active torsions:
REMARK  status: ('A' for Active; 'I' for Inactive)
REMARK    1  A    between atoms: C_2  and  C_4
REMARK    2  A    between atoms: C_9  and  C_10
REMARK    3  A    between atoms: C_10  and  C_11
REMARK    4  A    between atoms: C_18  and  C_20
REMARK    5  A    between atoms: N_22  and  C_23
REMARK    6  A    between atoms: C_26  and  S_29
REMARK    7  A    between atoms: S_29  and  C_32
REMARK    8  A    between atoms: C_37  and  C_38
REMARK                            x       y       z     vdW  Elec       q    Type
REMARK                         _______ _______ _______ _____ _____    ______ ____
ROOT
ATOM      1  C   UNL     1      -1.429  -8.250   0.000  0.00  0.00    +0.000 C 
ATOM      2  O   UNL     1      -1.429  -7.425   0.000  0.00  0.00    +0.000 OA
ATOM      3  N   UNL     1      -2.143  -8.662   0.000  0.00  0.00    +0.000 NA
ENDROOT
BRANCH   1  11
ATOM      4  C   UNL     1       0.715  -8.662   0.000  0.00  0.00    +0.000 A 
ATOM      5  C   UNL     1       0.715  -9.488   0.000  0.00  0.00    +0.000 A 
ATOM      6  O   UNL     1       1.429  -9.900   0.000  0.00  0.00    +0.000 OA
ATOM      7  C   UNL     1       0.000  -9.900   0.000  0.00  0.00    +0.000 A 
ATOM      8  O   UNL     1       0.000 -10.725   0.000  0.00  0.00    +0.000 OA
ATOM      9  C   UNL     1      -0.715  -9.488   0.000  0.00  0.00    +0.000 A 
ATOM     10  O   UNL     1      -1.429  -9.900   0.000  0.00  0.00    +0.000 OA
ATOM     11  C   UNL     1      -0.715  -8.662   0.000  0.00  0.00    +0.000 A 
ATOM     12  C   UNL     1       0.000  -8.250   0.000  0.00  0.00    +0.000 A 
BRANCH   4  13
ATOM     13  C   UNL     1       1.429  -8.250   0.000  0.00  0.00    +0.000 C 
BRANCH  13  19
ATOM     14  C   UNL     1       2.858  -8.250   0.000  0.00  0.00    +0.000 A 
ATOM     15  C   UNL     1       3.572  -8.662   0.000  0.00  0.00    +0.000 A 
ATOM     16  C   UNL     1       3.572  -9.488   0.000  0.00  0.00    +0.000 A 
ATOM     17  C   UNL     1       2.858  -9.900   0.000  0.00  0.00    +0.000 A 
ATOM     18  C   UNL     1       2.143  -9.488   0.000  0.00  0.00    +0.000 A 
ATOM     19  C   UNL     1       2.143  -8.662   0.000  0.00  0.00    +0.000 A 
BRANCH  14  21
ATOM     20  C   UNL     1       3.572  -7.013   0.000  0.00  0.00    +0.000 C 
ATOM     21  C   UNL     1       2.858  -7.425   0.000  0.00  0.00    +0.000 C 
ATOM     22  C   UNL     1       2.143  -7.013   0.000  0.00  0.00    +0.000 C 
ENDBRANCH  14  21
ENDBRANCH  13  19
ENDBRANCH   4  13
ENDBRANCH   1  11
BRANCH   3  23
ATOM     23  C   UNL     1      -2.858  -8.250   0.000  0.00  0.00    +0.000 A 
ATOM     24  C   UNL     1      -3.572  -8.662   0.000  0.00  0.00    +0.000 A 
ATOM     25  C   UNL     1      -4.287  -8.250   0.000  0.00  0.00    +0.000 A 
ATOM     26  C   UNL     1      -4.287  -7.425   0.000  0.00  0.00    +0.000 A 
ATOM     27  C   UNL     1      -3.572  -7.013   0.000  0.00  0.00    +0.000 A 
ATOM     28  C   UNL     1      -2.858  -7.425   0.000  0.00  0.00    +0.000 A 
BRANCH  26  29
ATOM     29  S   UNL     1      -5.001  -7.013   0.000  0.00  0.00    +0.000 S 
ATOM     30  O   UNL     1      -4.589  -6.298   0.000  0.00  0.00    +0.000 OA
ATOM     31  O   UNL     1      -5.414  -7.727   0.000  0.00  0.00    +0.000 OA
BRANCH  29  32
ATOM     32  C   UNL     1      -5.716  -6.600   0.000  0.00  0.00    +0.000 A 
ATOM     33  C   UNL     1      -6.430  -7.013   0.000  0.00  0.00    +0.000 A 
ATOM     34  C   UNL     1      -7.145  -6.600   0.000  0.00  0.00    +0.000 A 
ATOM     35  C   UNL     1      -7.145  -5.775   0.000  0.00  0.00    +0.000 A 
ATOM     36  C   UNL     1      -6.430  -5.362   0.000  0.00  0.00    +0.000 A 
ATOM     37  C   UNL     1      -5.716  -5.775   0.000  0.00  0.00    +0.000 A 
BRANCH  37  38
ATOM     38  C   UNL     1      -5.001  -5.362   0.000  0.00  0.00    +0.000 C 
ATOM     39  C   UNL     1      -4.287  -4.950   0.000  0.00  0.00    +0.000 C 
ATOM     40  C   UNL     1      -4.388  -5.915   0.000  0.00  0.00    +0.000 C 
ATOM     41  C   UNL     1      -5.414  -4.648   0.000  0.00  0.00    +0.000 C 
ENDBRANCH  37  38
ENDBRANCH  29  32
ENDBRANCH  26  29
ENDBRANCH   3  23
TORSDOF 8
