REMARK  Name = 
REMARK  13 active torsions:
REMARK  status: ('A' for Active; 'I' for Inactive)
REMARK    1  A    between atoms: O_2  and  C_3
REMARK    2  A    between atoms: N_5  and  C_6
REMARK    3  A    between atoms: C_6  and  C_7
REMARK    4  A    between atoms: C_6  and  C_10
REMARK    5  A    between atoms: C_16  and  C_17
REMARK    6  A    between atoms: C_20  and  C_22
REMARK    7  A    between atoms: C_25  and  C_28
REMARK    8  A    between atoms: C_31  and  C_32
REMARK    9  A    between atoms: C_35  and  C_37
REMARK   10  A    between atoms: C_42  and  C_44
REMARK   11  A    between atoms: C_44  and  N_45
REMARK   12  A    between atoms: C_44  and  C_50
REMARK   13  A    between atoms: C_46  and  O_48
REMARK                            x       y       z     vdW  Elec       q    Type
REMARK                         _______ _______ _______ _____ _____    ______ ____
ROOT
ATOM      1  C   UNL     1       3.279   1.238   0.000  0.00  0.00    +0.000 A 
ATOM      2  C   UNL     1       3.993   0.825   0.000  0.00  0.00    +0.000 A 
ATOM      3  C   UNL     1       3.993   0.000   0.000  0.00  0.00    +0.000 A 
ATOM      4  C   UNL     1       3.279  -0.412   0.000  0.00  0.00    +0.000 A 
ATOM      5  C   UNL     1       2.564   0.000   0.000  0.00  0.00    +0.000 A 
ATOM      6  C   UNL     1       2.564   0.825   0.000  0.00  0.00    +0.000 A 
ATOM      7  O   UNL     1       1.780   1.080   0.000  0.00  0.00    +0.000 OA
ATOM      8  C   UNL     1       1.295   0.412   0.000  0.00  0.00    +0.000 C 
ATOM      9  O   UNL     1       1.780  -0.255   0.000  0.00  0.00    +0.000 OA
ENDROOT
BRANCH   1  13
ATOM     10  C   UNL     1       3.279   3.712   0.000  0.00  0.00    +0.000 A 
ATOM     11  C   UNL     1       3.993   3.300   0.000  0.00  0.00    +0.000 A 
ATOM     12  C   UNL     1       3.993   2.475   0.000  0.00  0.00    +0.000 A 
ATOM     13  C   UNL     1       3.279   2.062   0.000  0.00  0.00    +0.000 A 
ATOM     14  C   UNL     1       2.564   2.475   0.000  0.00  0.00    +0.000 A 
ATOM     15  C   UNL     1       2.564   3.300   0.000  0.00  0.00    +0.000 A 
BRANCH  10  19
ATOM     16  C   UNL     1       2.866   5.807   0.000  0.00  0.00    +0.000 A 
ATOM     17  N   UNL     1       3.691   5.807   0.000  0.00  0.00    +0.000 NA
ATOM     18  C   UNL     1       3.946   5.022   0.000  0.00  0.00    +0.000 A 
ATOM     19  C   UNL     1       3.279   4.537   0.000  0.00  0.00    +0.000 A 
ATOM     20  N   UNL     1       2.611   5.022   0.000  0.00  0.00    +0.000 NA
BRANCH  16  27
ATOM     21  C   UNL     1       1.072   5.807   0.000  0.00  0.00    +0.000 C 
ATOM     22  O   UNL     1       1.407   5.053   0.000  0.00  0.00    +0.000 OA
ATOM     23  N   UNL     1       1.556   6.474   0.000  0.00  0.00    +0.000 N 
ATOM     24  C   UNL     1       1.302   7.259   0.000  0.00  0.00    +0.000 C 
ATOM     25  C   UNL     1       1.969   7.744   0.000  0.00  0.00    +0.000 C 
ATOM     26  C   UNL     1       2.636   7.259   0.000  0.00  0.00    +0.000 C 
ATOM     27  C   UNL     1       2.381   6.474   0.000  0.00  0.00    +0.000 C 
BRANCH  21  28
ATOM     28  C   UNL     1       0.251   5.893   0.000  0.00  0.00    +0.000 C 
BRANCH  28  29
ATOM     29  C   UNL     1      -0.085   6.647   0.000  0.00  0.00    +0.000 C 
ATOM     30  C   UNL     1       0.401   7.314   0.000  0.00  0.00    +0.000 C 
ATOM     31  C   UNL     1      -0.905   6.733   0.000  0.00  0.00    +0.000 C 
ENDBRANCH  28  29
BRANCH  28  34
ATOM     32  C   UNL     1      -1.054   5.312   0.000  0.00  0.00    +0.000 C 
ATOM     33  O   UNL     1      -1.390   6.066   0.000  0.00  0.00    +0.000 OA
ATOM     34  N   UNL     1      -0.234   5.226   0.000  0.00  0.00    +0.000 NA
BRANCH  32  36
ATOM     35  C   UNL     1      -2.360   4.731   0.000  0.00  0.00    +0.000 C 
ATOM     36  O   UNL     1      -1.539   4.645   0.000  0.00  0.00    +0.000 OA
ENDBRANCH  32  36
ENDBRANCH  28  34
ENDBRANCH  21  28
ENDBRANCH  16  27
ENDBRANCH  10  19
ENDBRANCH   1  13
BRANCH   4  37
ATOM     37  C   UNL     1       3.279  -1.238   0.000  0.00  0.00    +0.000 A 
ATOM     38  C   UNL     1       3.946  -1.722   0.000  0.00  0.00    +0.000 A 
ATOM     39  N   UNL     1       3.691  -2.507   0.000  0.00  0.00    +0.000 NA
ATOM     40  C   UNL     1       2.866  -2.507   0.000  0.00  0.00    +0.000 A 
ATOM     41  N   UNL     1       2.611  -1.722   0.000  0.00  0.00    +0.000 NA
BRANCH  40  42
ATOM     42  C   UNL     1       2.381  -3.175   0.000  0.00  0.00    +0.000 C 
ATOM     43  C   UNL     1       2.636  -3.959   0.000  0.00  0.00    +0.000 C 
ATOM     44  C   UNL     1       1.969  -4.444   0.000  0.00  0.00    +0.000 C 
ATOM     45  C   UNL     1       1.302  -3.959   0.000  0.00  0.00    +0.000 C 
ATOM     46  N   UNL     1       1.556  -3.175   0.000  0.00  0.00    +0.000 N 
ATOM     47  C   UNL     1       1.072  -2.507   0.000  0.00  0.00    +0.000 C 
ATOM     48  O   UNL     1       1.407  -1.753   0.000  0.00  0.00    +0.000 OA
BRANCH  47  49
ATOM     49  C   UNL     1       0.251  -2.593   0.000  0.00  0.00    +0.000 C 
BRANCH  49  50
ATOM     50  C   UNL     1      -0.085  -3.347   0.000  0.00  0.00    +0.000 C 
ATOM     51  C   UNL     1       0.401  -4.014   0.000  0.00  0.00    +0.000 C 
ATOM     52  C   UNL     1      -0.905  -3.433   0.000  0.00  0.00    +0.000 C 
ENDBRANCH  49  50
BRANCH  49  53
ATOM     53  N   UNL     1      -0.234  -1.926   0.000  0.00  0.00    +0.000 NA
ATOM     54  C   UNL     1      -1.054  -2.012   0.000  0.00  0.00    +0.000 C 
ATOM     55  O   UNL     1      -1.390  -2.766   0.000  0.00  0.00    +0.000 OA
BRANCH  54  56
ATOM     56  O   UNL     1      -1.539  -1.345   0.000  0.00  0.00    +0.000 OA
ATOM     57  C   UNL     1      -2.360  -1.431   0.000  0.00  0.00    +0.000 C 
ENDBRANCH  54  56
ENDBRANCH  49  53
ENDBRANCH  47  49
ENDBRANCH  40  42
ENDBRANCH   4  37
TORSDOF 13
