REMARK  Name = 
REMARK  9 active torsions:
REMARK  status: ('A' for Active; 'I' for Inactive)
REMARK    1  A    between atoms: CA_1  and  C_10
REMARK    2  A    between atoms: C_6  and  C_13
REMARK    3  A    between atoms: CA_7  and  N_26
REMARK    4  A    between atoms: N_17  and  C_20
REMARK    5  A    between atoms: C_27  and  C_28
REMARK    6  A    between atoms: C_28  and  C_30
REMARK    7  A    between atoms: C_40  and  O_41
REMARK    8  A    between atoms: O_41  and  C_43
REMARK    9  A    between atoms: C_43  and  C_44
REMARK                            x       y       z     vdW  Elec       q    Type
REMARK                         _______ _______ _______ _____ _____    ______ ____
ROOT
ATOM      1  CA  UNL     1      -1.957   0.825   0.000  0.00  0.00    +0.000 C 
ATOM      2  N   UNL     1      -2.671   0.412   0.000  0.00  0.00    +0.000 N 
ATOM      3  C   UNL     1      -2.671  -0.412   0.000  0.00  0.00    +0.000 C 
ATOM      4  S   UNL     1      -1.957  -0.825   0.000  0.00  0.00    +0.000 S 
ATOM      5  C   UNL     1      -1.243  -0.412   0.000  0.00  0.00    +0.000 C 
ATOM      6  C   UNL     1      -1.243   0.412   0.000  0.00  0.00    +0.000 C 
ATOM      7  CA  UNL     1      -3.496  -0.412   0.000  0.00  0.00    +0.000 C 
ATOM      8  C   UNL     1      -3.496   0.412   0.000  0.00  0.00    +0.000 C 
ATOM      9  O   UNL     1      -4.080   0.996   0.000  0.00  0.00    +0.000 OA
ENDROOT
BRANCH   6  10
ATOM     10  C   UNL     1      -0.528   0.825   0.000  0.00  0.00    +0.000 C 
ATOM     11  C   UNL     1       0.186   0.412   0.000  0.00  0.00    +0.000 C 
ATOM     12  C   UNL     1       0.273  -0.408   0.000  0.00  0.00    +0.000 C 
ATOM     13  C   UNL     1       1.080  -0.580   0.000  0.00  0.00    +0.000 C 
ATOM     14  N   UNL     1       1.492   0.135   0.000  0.00  0.00    +0.000 N 
ATOM     15  C   UNL     1       0.940   0.748   0.000  0.00  0.00    +0.000 C 
ATOM     16  O   UNL     1       1.112   1.555   0.000  0.00  0.00    +0.000 OA
BRANCH  14  17
ATOM     17  C   UNL     1       2.313   0.221   0.000  0.00  0.00    +0.000 C 
ATOM     18  C   UNL     1       2.865  -0.392   0.000  0.00  0.00    +0.000 C 
ATOM     19  N   UNL     1       3.619  -0.056   0.000  0.00  0.00    +0.000 N 
ATOM     20  C   UNL     1       3.532   0.764   0.000  0.00  0.00    +0.000 C 
ATOM     21  C   UNL     1       2.725   0.936   0.000  0.00  0.00    +0.000 C 
ATOM     22  C   UNL     1       4.333  -0.469   0.000  0.00  0.00    +0.000 C 
ATOM     23  O   UNL     1       4.333  -1.294   0.000  0.00  0.00    +0.000 OA
BRANCH  22  24
ATOM     24  O   UNL     1       5.047  -0.056   0.000  0.00  0.00    +0.000 OA
BRANCH  24  25
ATOM     25  C   UNL     1       5.762  -0.469   0.000  0.00  0.00    +0.000 C 
BRANCH  25  26
ATOM     26  C   UNL     1       6.476  -0.056   0.000  0.00  0.00    +0.000 A 
ATOM     27  O   UNL     1       7.291  -0.185   0.000  0.00  0.00    +0.000 OA
ATOM     28  C   UNL     1       7.666   0.550   0.000  0.00  0.00    +0.000 A 
ATOM     29  O   UNL     1       7.082   1.133   0.000  0.00  0.00    +0.000 OA
ATOM     30  C   UNL     1       6.347   0.758   0.000  0.00  0.00    +0.000 A 
ATOM     31  C   UNL     1       5.612   1.133   0.000  0.00  0.00    +0.000 C 
ATOM     32  O   UNL     1       8.481   0.679   0.000  0.00  0.00    +0.000 OA
ENDBRANCH  25  26
ENDBRANCH  24  25
ENDBRANCH  22  24
ENDBRANCH  14  17
ENDBRANCH   6  10
BRANCH   1  33
ATOM     33  C   UNL     1      -1.957   1.650   0.000  0.00  0.00    +0.000 C 
ATOM     34  O   UNL     1      -1.243   2.062   0.000  0.00  0.00    +0.000 OA
ATOM     35  OXT UNL     1      -2.671   2.062   0.000  0.00  0.00    +0.000 OA
ENDBRANCH   1  33
BRANCH   7  36
ATOM     36  N   UNL     1      -4.211  -0.825   0.000  0.00  0.00    +0.000 NA
ATOM     37  C   UNL     1      -4.925  -0.412   0.000  0.00  0.00    +0.000 C 
ATOM     38  O   UNL     1      -4.925   0.412   0.000  0.00  0.00    +0.000 OA
BRANCH  37  39
ATOM     39  C   UNL     1      -5.640  -0.825   0.000  0.00  0.00    +0.000 C 
ATOM     40  N   UNL     1      -5.640  -1.650   0.000  0.00  0.00    +0.000 NA
ATOM     41  O   UNL     1      -4.925  -2.062   0.000  0.00  0.00    +0.000 OA
BRANCH  39  42
ATOM     42  C   UNL     1      -6.354  -0.412   0.000  0.00  0.00    +0.000 A 
ATOM     43  N   UNL     1      -6.441   0.408   0.000  0.00  0.00    +0.000 NA
ATOM     44  S   UNL     1      -7.248   0.580   0.000  0.00  0.00    +0.000 S 
ATOM     45  C   UNL     1      -7.660  -0.135   0.000  0.00  0.00    +0.000 A 
ATOM     46  N   UNL     1      -7.108  -0.748   0.000  0.00  0.00    +0.000 NA
ATOM     47  N   UNL     1      -8.481  -0.221   0.000  0.00  0.00    +0.000 NA
ENDBRANCH  39  42
ENDBRANCH  37  39
ENDBRANCH   7  36
TORSDOF 9
