REMARK  Name = 
REMARK  2 active torsions:
REMARK  status: ('A' for Active; 'I' for Inactive)
REMARK    1  A    between atoms: C_1  and  C_3
REMARK    2  A    between atoms: C_3  and  C_7
REMARK                            x       y       z     vdW  Elec       q    Type
REMARK                         _______ _______ _______ _____ _____    ______ ____
ROOT
ATOM      1  C   UNL     1      -0.424   0.483   0.000  0.00  0.00    +0.000 A 
ATOM      2  C   UNL     1      -0.679  -0.301   0.000  0.00  0.00    +0.000 A 
ATOM      3  S   UNL     1      -1.091   0.969   0.000  0.00  0.00    +0.000 S 
ATOM      4  N   UNL     1      -1.504  -0.301   0.000  0.00  0.00    +0.000 NA
ATOM      5  C   UNL     1      -0.194  -0.969   0.000  0.00  0.00    +0.000 C 
ATOM      6  C   UNL     1      -1.759   0.483   0.000  0.00  0.00    +0.000 A 
ENDROOT
BRANCH   1   7
ATOM      7  C   UNL     1       0.361   0.738   0.000  0.00  0.00    +0.000 C 
BRANCH   7   8
ATOM      8  C   UNL     1       0.974   0.186   0.000  0.00  0.00    +0.000 C 
ATOM      9 CL   UNL     1       1.759   0.441   0.000  0.00  0.00    +0.000 Cl
ENDBRANCH   7   8
ENDBRANCH   1   7
TORSDOF 2
