REMARK  Name = 
REMARK  9 active torsions:
REMARK  status: ('A' for Active; 'I' for Inactive)
REMARK    1  A    between atoms: C_3  and  O_12
REMARK    2  A    between atoms: C_5  and  C_10
REMARK    3  A    between atoms: O_12  and  C_28
REMARK    4  A    between atoms: C_16  and  O_51
REMARK    5  A    between atoms: C_20  and  C_47
REMARK    6  A    between atoms: C_31  and  C_44
REMARK    7  A    between atoms: C_36  and  C_41
REMARK    8  A    between atoms: O_51  and  C_52
REMARK    9  A    between atoms: C_54  and  C_61
REMARK                            x       y       z     vdW  Elec       q    Type
REMARK                         _______ _______ _______ _____ _____    ______ ____
ROOT
ATOM      1  C   UNL     1      -2.098   1.658   0.000  0.00  0.00    +0.000 A 
ATOM      2  C   UNL     1      -2.099   0.831   0.000  0.00  0.00    +0.000 A 
ATOM      3  C   UNL     1      -1.384   0.418   0.000  0.00  0.00    +0.000 A 
ATOM      4  C   UNL     1      -1.386   2.071   0.000  0.00  0.00    +0.000 A 
ATOM      5  C   UNL     1      -0.671   1.662   0.000  0.00  0.00    +0.000 A 
ATOM      6  C   UNL     1      -0.672   0.833   0.000  0.00  0.00    +0.000 A 
ATOM      7  C   UNL     1       0.041   0.420   0.000  0.00  0.00    +0.000 C 
ATOM      8  C   UNL     1       0.043   2.077   0.000  0.00  0.00    +0.000 C 
ATOM      9  C   UNL     1       0.761   1.660   0.000  0.00  0.00    +0.000 A 
ATOM     10  C   UNL     1       0.759   0.835   0.000  0.00  0.00    +0.000 A 
ATOM     11  C   UNL     1       1.472   0.422   0.000  0.00  0.00    +0.000 A 
ATOM     12  C   UNL     1       2.186   0.834   0.000  0.00  0.00    +0.000 A 
ATOM     13  C   UNL     1       2.184   1.662   0.000  0.00  0.00    +0.000 A 
ATOM     14  C   UNL     1       1.471   2.071   0.000  0.00  0.00    +0.000 A 
ATOM     15  O   UNL     1       0.043   2.902   0.000  0.00  0.00    +0.000 OA
ATOM     16  O   UNL     1       1.469   2.896   0.000  0.00  0.00    +0.000 OA
ENDROOT
BRANCH   7  29
ATOM     17  C   UNL     1       1.479  -0.415   0.000  0.00  0.00    +0.000 A 
ATOM     18  C   UNL     1       0.753  -0.812   0.000  0.00  0.00    +0.000 A 
ATOM     19  C   UNL     1       0.735  -1.637   0.000  0.00  0.00    +0.000 A 
ATOM     20  C   UNL     1       1.442  -2.067   0.000  0.00  0.00    +0.000 A 
ATOM     21  C   UNL     1       2.169  -1.665   0.000  0.00  0.00    +0.000 A 
ATOM     22  C   UNL     1       2.183  -0.841   0.000  0.00  0.00    +0.000 A 
ATOM     23  C   UNL     1      -1.386  -0.393   0.000  0.00  0.00    +0.000 A 
ATOM     24  C   UNL     1      -2.107  -0.799   0.000  0.00  0.00    +0.000 A 
ATOM     25  C   UNL     1      -2.115  -1.624   0.000  0.00  0.00    +0.000 A 
ATOM     26  C   UNL     1      -1.402  -2.045   0.000  0.00  0.00    +0.000 A 
ATOM     27  C   UNL     1      -0.680  -1.634   0.000  0.00  0.00    +0.000 A 
ATOM     28  C   UNL     1      -0.676  -0.809   0.000  0.00  0.00    +0.000 A 
ATOM     29  C   UNL     1       0.041  -0.405   0.000  0.00  0.00    +0.000 C 
ATOM     30  C   UNL     1       0.032  -2.050   0.000  0.00  0.00    +0.000 C 
ATOM     31  O   UNL     1      -1.408  -2.870   0.000  0.00  0.00    +0.000 OA
ATOM     32  O   UNL     1       0.033  -2.876   0.000  0.00  0.00    +0.000 OA
BRANCH  24  33
ATOM     33  C   UNL     1      -2.817  -0.379   0.000  0.00  0.00    +0.000 C 
ATOM     34  O   UNL     1      -2.809   0.446   0.000  0.00  0.00    +0.000 OA
ATOM     35  O   UNL     1      -3.536  -0.784   0.000  0.00  0.00    +0.000 OA
ENDBRANCH  24  33
BRANCH  20  36
ATOM     36  O   UNL     1       1.425  -2.892   0.000  0.00  0.00    +0.000 OA
BRANCH  36  37
ATOM     37  C   UNL     1       2.137  -3.301   0.000  0.00  0.00    +0.000 C 
ATOM     38  O   UNL     1       2.137  -4.123   0.000  0.00  0.00    +0.000 OA
ATOM     39  C   UNL     1       2.845  -4.532   0.000  0.00  0.00    +0.000 C 
ATOM     40  C   UNL     1       3.557  -4.124   0.000  0.00  0.00    +0.000 C 
ATOM     41  C   UNL     1       3.558  -3.302   0.000  0.00  0.00    +0.000 C 
ATOM     42  C   UNL     1       2.845  -2.888   0.000  0.00  0.00    +0.000 C 
ATOM     43  O   UNL     1       2.845  -2.063   0.000  0.00  0.00    +0.000 OA
ATOM     44  O   UNL     1       4.273  -2.890   0.000  0.00  0.00    +0.000 OA
ATOM     45  O   UNL     1       4.271  -4.537   0.000  0.00  0.00    +0.000 OA
BRANCH  39  46
ATOM     46  C   UNL     1       2.843  -5.357   0.000  0.00  0.00    +0.000 C 
ATOM     47  O   UNL     1       3.554  -5.768   0.000  0.00  0.00    +0.000 OA
ENDBRANCH  39  46
ENDBRANCH  36  37
ENDBRANCH  20  36
ENDBRANCH   7  29
BRANCH  12  48
ATOM     48  C   UNL     1       2.901   0.422   0.000  0.00  0.00    +0.000 C 
ATOM     49  O   UNL     1       2.902  -0.403   0.000  0.00  0.00    +0.000 OA
ATOM     50  O   UNL     1       3.616   0.836   0.000  0.00  0.00    +0.000 OA
ENDBRANCH  12  48
BRANCH   4  51
ATOM     51  O   UNL     1      -1.387   2.894   0.000  0.00  0.00    +0.000 OA
BRANCH  51  54
ATOM     52  C   UNL     1      -3.530   3.272   0.000  0.00  0.00    +0.000 C 
ATOM     53  C   UNL     1      -2.807   2.874   0.000  0.00  0.00    +0.000 C 
ATOM     54  C   UNL     1      -2.106   3.300   0.000  0.00  0.00    +0.000 C 
ATOM     55  O   UNL     1      -2.119   4.120   0.000  0.00  0.00    +0.000 OA
ATOM     56  C   UNL     1      -2.841   4.519   0.000  0.00  0.00    +0.000 C 
ATOM     57  C   UNL     1      -3.550   4.097   0.000  0.00  0.00    +0.000 C 
ATOM     58  O   UNL     1      -4.273   4.495   0.000  0.00  0.00    +0.000 OA
ATOM     59  O   UNL     1      -4.235   2.844   0.000  0.00  0.00    +0.000 OA
ATOM     60  O   UNL     1      -2.790   2.049   0.000  0.00  0.00    +0.000 OA
BRANCH  56  61
ATOM     61  C   UNL     1      -2.855   5.344   0.000  0.00  0.00    +0.000 C 
ATOM     62  O   UNL     1      -2.153   5.768   0.000  0.00  0.00    +0.000 OA
ENDBRANCH  56  61
ENDBRANCH  51  54
ENDBRANCH   4  51
TORSDOF 9
