REMARK  Name = 
REMARK  6 active torsions:
REMARK  status: ('A' for Active; 'I' for Inactive)
REMARK    1  A    between atoms: C_8  and  C_12
REMARK    2  A    between atoms: C_8  and  N_16
REMARK    3  A    between atoms: C_9  and  C_12
REMARK    4  A    between atoms: C_9  and  O_19
REMARK    5  A    between atoms: C_10  and  N_16
REMARK    6  A    between atoms: C_15  and  O_19
REMARK                            x       y       z     vdW  Elec       q    Type
REMARK                         _______ _______ _______ _____ _____    ______ ____
ROOT
ATOM      1  C   UNL     1      -3.548   0.455   0.000  0.00  0.00    +0.000 C 
ATOM      2  C   UNL     1      -2.143   3.712   0.000  0.00  0.00    +0.000 A 
ATOM      3  C   UNL     1      -2.858   3.300   0.000  0.00  0.00    +0.000 A 
ATOM      4  C   UNL     1      -1.429   3.300   0.000  0.00  0.00    +0.000 A 
ATOM      5  C   UNL     1      -2.315   1.256   0.000  0.00  0.00    +0.000 A 
ATOM      6  C   UNL     1      -3.135   1.169   0.000  0.00  0.00    +0.000 A 
ATOM      7  C   UNL     1      -2.143   2.062   0.000  0.00  0.00    +0.000 A 
ATOM      8  C   UNL     1      -2.858   2.475   0.000  0.00  0.00    +0.000 A 
ATOM      9  C   UNL     1      -1.429   2.475   0.000  0.00  0.00    +0.000 A 
ATOM     10  N   UNL     1      -3.471   1.923   0.000  0.00  0.00    +0.000 NA
ENDROOT
BRANCH   9  11
ATOM     11  O   UNL     1      -0.715   2.062   0.000  0.00  0.00    +0.000 OA
BRANCH  11  12
ATOM     12  C   UNL     1       0.000   2.475   0.000  0.00  0.00    +0.000 C 
BRANCH  12  13
ATOM     13  C   UNL     1       0.715   2.062   0.000  0.00  0.00    +0.000 C 
ATOM     14  O   UNL     1       0.715   1.238   0.000  0.00  0.00    +0.000 OA
BRANCH  13  15
ATOM     15  C   UNL     1       1.429   2.475   0.000  0.00  0.00    +0.000 C 
BRANCH  15  16
ATOM     16  N   UNL     1       2.143   2.062   0.000  0.00  0.00    +0.000 NA
BRANCH  16  19
ATOM     17  C   UNL     1       3.572   2.062   0.000  0.00  0.00    +0.000 C 
ATOM     18  C   UNL     1       2.858   3.300   0.000  0.00  0.00    +0.000 C 
ATOM     19  C   UNL     1       2.858   2.475   0.000  0.00  0.00    +0.000 C 
ENDBRANCH  16  19
ENDBRANCH  15  16
ENDBRANCH  13  15
ENDBRANCH  12  13
ENDBRANCH  11  12
ENDBRANCH   9  11
TORSDOF 6
