REMARK  Name = 
REMARK  6 active torsions:
REMARK  status: ('A' for Active; 'I' for Inactive)
REMARK    1  A    between atoms: C_5  and  O_7
REMARK    2  A    between atoms: O_7  and  C_8
REMARK    3  A    between atoms: C_8  and  C_9
REMARK    4  A    between atoms: C_12  and  C_15
REMARK    5  A    between atoms: C_15  and  N_16
REMARK    6  A    between atoms: N_23  and  C_26
REMARK                            x       y       z     vdW  Elec       q    Type
REMARK                         _______ _______ _______ _____ _____    ______ ____
ROOT
ATOM      1  C   UNL     1       2.070   1.110   0.000  0.00  0.00    +0.000 A 
ATOM      2  C   UNL     1       1.356   0.698   0.000  0.00  0.00    +0.000 A 
ATOM      3  C   UNL     1       0.641   1.110   0.000  0.00  0.00    +0.000 A 
ATOM      4  C   UNL     1       0.641   1.935   0.000  0.00  0.00    +0.000 A 
ATOM      5  C   UNL     1       1.356   2.348   0.000  0.00  0.00    +0.000 A 
ATOM      6  C   UNL     1       2.070   1.935   0.000  0.00  0.00    +0.000 A 
ATOM      7  C   UNL     1      -0.143   2.190   0.000  0.00  0.00    +0.000 C 
ATOM      8  N   UNL     1      -0.628   1.523   0.000  0.00  0.00    +0.000 N 
ATOM      9  C   UNL     1      -0.143   0.856   0.000  0.00  0.00    +0.000 C 
ATOM     10  O   UNL     1      -0.398   0.071   0.000  0.00  0.00    +0.000 OA
ENDROOT
BRANCH   8  11
ATOM     11  C   UNL     1      -1.453   1.523   0.000  0.00  0.00    +0.000 C 
ATOM     12  C   UNL     1      -1.866   0.808   0.000  0.00  0.00    +0.000 C 
ATOM     13  C   UNL     1      -2.691   0.808   0.000  0.00  0.00    +0.000 C 
ATOM     14  C   UNL     1      -3.103   1.523   0.000  0.00  0.00    +0.000 C 
ATOM     15  O   UNL     1      -3.928   1.523   0.000  0.00  0.00    +0.000 OA
ATOM     16  N   UNL     1      -2.691   2.237   0.000  0.00  0.00    +0.000 NA
ATOM     17  C   UNL     1      -1.866   2.237   0.000  0.00  0.00    +0.000 C 
ATOM     18  O   UNL     1      -1.453   2.952   0.000  0.00  0.00    +0.000 OA
ENDBRANCH   8  11
BRANCH   5  19
ATOM     19  O   UNL     1       1.356   3.173   0.000  0.00  0.00    +0.000 OA
BRANCH  19  20
ATOM     20  C   UNL     1       2.070   3.585   0.000  0.00  0.00    +0.000 C 
BRANCH  20  21
ATOM     21  C   UNL     1       2.070   4.410   0.000  0.00  0.00    +0.000 A 
ATOM     22  C   UNL     1       1.356   4.823   0.000  0.00  0.00    +0.000 A 
ATOM     23  C   UNL     1       1.356   5.648   0.000  0.00  0.00    +0.000 A 
ATOM     24  C   UNL     1       2.070   6.060   0.000  0.00  0.00    +0.000 A 
ATOM     25  C   UNL     1       2.784   5.648   0.000  0.00  0.00    +0.000 A 
ATOM     26  C   UNL     1       2.784   4.823   0.000  0.00  0.00    +0.000 A 
BRANCH  24  27
ATOM     27  C   UNL     1       2.070   6.885   0.000  0.00  0.00    +0.000 C 
BRANCH  27  28
ATOM     28  N   UNL     1       2.784   7.298   0.000  0.00  0.00    +0.000 NA
ATOM     29  C   UNL     1       2.784   8.123   0.000  0.00  0.00    +0.000 C 
ATOM     30  C   UNL     1       3.499   8.535   0.000  0.00  0.00    +0.000 C 
ATOM     31  O   UNL     1       4.213   8.123   0.000  0.00  0.00    +0.000 OA
ATOM     32  C   UNL     1       4.213   7.298   0.000  0.00  0.00    +0.000 C 
ATOM     33  C   UNL     1       3.499   6.885   0.000  0.00  0.00    +0.000 C 
ENDBRANCH  27  28
ENDBRANCH  24  27
ENDBRANCH  20  21
ENDBRANCH  19  20
ENDBRANCH   5  19
TORSDOF 6
