REMARK  Name = 
REMARK  36 active torsions:
REMARK  status: ('A' for Active; 'I' for Inactive)
REMARK    1  A    between atoms: C_2  and  C_6
REMARK    2  A    between atoms: C_2  and  C_11
REMARK    3  A    between atoms: C_3  and  C_8
REMARK    4  A    between atoms: C_3  and  C_12
REMARK    5  A    between atoms: C_4  and  C_9
REMARK    6  A    between atoms: C_4  and  C_13
REMARK    7  A    between atoms: C_5  and  C_10
REMARK    8  A    between atoms: C_5  and  C_14
REMARK    9  A    between atoms: C_6  and  C_19
REMARK   10  A    between atoms: C_8  and  C_21
REMARK   11  A    between atoms: C_9  and  C_22
REMARK   12  A    between atoms: C_10  and  C_23
REMARK   13  A    between atoms: C_11  and  N_46
REMARK   14  A    between atoms: C_12  and  N_47
REMARK   15  A    between atoms: C_13  and  N_48
REMARK   16  A    between atoms: C_14  and  N_49
REMARK   17  A    between atoms: C_15  and  C_18
REMARK   18  A    between atoms: C_15  and  S_65
REMARK   19  A    between atoms: C_16  and  C_24
REMARK   20  A    between atoms: C_16  and  S_66
REMARK   21  A    between atoms: C_18  and  C_31
REMARK   22  A    between atoms: C_19  and  C_25
REMARK   23  A    between atoms: C_19  and  N_51
REMARK   24  A    between atoms: C_20  and  C_26
REMARK   25  A    between atoms: C_20  and  N_52
REMARK   26  A    between atoms: C_21  and  C_27
REMARK   27  A    between atoms: C_21  and  N_53
REMARK   28  A    between atoms: C_22  and  C_28
REMARK   29  A    between atoms: C_22  and  N_54
REMARK   30  A    between atoms: C_23  and  C_29
REMARK   31  A    between atoms: C_23  and  N_70
REMARK   32  A    between atoms: C_24  and  C_30
REMARK   33  A    between atoms: C_24  and  N_50
REMARK   34  A    between atoms: N_55  and  C_67
REMARK   35  A    between atoms: S_65  and  S_66
REMARK   36  A    between atoms: C_67  and  C_68
REMARK                            x       y       z     vdW  Elec       q    Type
REMARK                         _______ _______ _______ _____ _____    ______ ____
ROOT
ATOM      1  C   UNK     1       0.357  -0.206   0.000  0.00  0.00    +0.000 C 
ENDROOT
BRANCH   1   2
ATOM      2  C   UNK     1       1.072   0.206   0.000  0.00  0.00    +0.000 C 
ATOM      3  N   UNK     1       1.786  -0.206   0.000  0.00  0.00    +0.000 NA
ATOM      4  O   UNK     1       1.072   1.031   0.000  0.00  0.00    +0.000 OA
BRANCH   3   5
ATOM      5  C   UNK     1       2.501   0.206   0.000  0.00  0.00    +0.000 C 
BRANCH   5   6
ATOM      6  C   UNK     1       3.215  -0.206   0.000  0.00  0.00    +0.000 C 
ATOM      7  N   UNK     1       3.930   0.206   0.000  0.00  0.00    +0.000 NA
ATOM      8  O   UNK     1       3.215  -1.031   0.000  0.00  0.00    +0.000 OA
BRANCH   7  10
ATOM      9  C   UNK     1       4.644  -1.031   0.000  0.00  0.00    +0.000 C 
ATOM     10  C   UNK     1       4.644  -0.206   0.000  0.00  0.00    +0.000 C 
BRANCH  10  11
ATOM     11  C   UNK     1       5.359   0.206   0.000  0.00  0.00    +0.000 C 
ATOM     12  N   UNK     1       6.073  -0.206   0.000  0.00  0.00    +0.000 NA
ATOM     13  O   UNK     1       5.359   1.031   0.000  0.00  0.00    +0.000 OA
BRANCH  12  14
ATOM     14  C   UNK     1       6.787   0.206   0.000  0.00  0.00    +0.000 C 
BRANCH  14  15
ATOM     15  C   UNK     1       6.787   1.031   0.000  0.00  0.00    +0.000 C 
ATOM     16  N   UNK     1       6.073   1.444   0.000  0.00  0.00    +0.000 NA
ATOM     17  O   UNK     1       7.502   1.444   0.000  0.00  0.00    +0.000 OA
ENDBRANCH  14  15
BRANCH  14  18
ATOM     18  C   UNK     1       7.502  -0.206   0.000  0.00  0.00    +0.000 C 
BRANCH  18  19
ATOM     19  C   UNK     1       8.216   0.206   0.000  0.00  0.00    +0.000 C 
BRANCH  19  20
ATOM     20  C   UNK     1       8.931  -0.206   0.000  0.00  0.00    +0.000 C 
BRANCH  20  24
ATOM     21  C   UNK     1      10.360  -0.206   0.000  0.00  0.00    +0.000 C 
ATOM     22  N   UNK     1      11.074   0.206   0.000  0.00  0.00    +0.000 NA
ATOM     23  N   UNK     1      10.360  -1.031   0.000  0.00  0.00    +0.000 NA
ATOM     24  N   UNK     1       9.645   0.206   0.000  0.00  0.00    +0.000 NA
ENDBRANCH  20  24
ENDBRANCH  19  20
ENDBRANCH  18  19
ENDBRANCH  14  18
ENDBRANCH  12  14
ENDBRANCH  10  11
ENDBRANCH   7  10
ENDBRANCH   5   6
BRANCH   5  25
ATOM     25  C   UNK     1       2.501   1.031   0.000  0.00  0.00    +0.000 C 
BRANCH  25  26
ATOM     26  C   UNK     1       3.215   1.444   0.000  0.00  0.00    +0.000 C 
BRANCH  26  27
ATOM     27  C   UNK     1       3.215   2.269   0.000  0.00  0.00    +0.000 C 
BRANCH  27  31
ATOM     28  C   UNK     1       3.930   3.506   0.000  0.00  0.00    +0.000 C 
ATOM     29  N   UNK     1       3.215   3.919   0.000  0.00  0.00    +0.000 NA
ATOM     30  N   UNK     1       4.644   3.919   0.000  0.00  0.00    +0.000 NA
ATOM     31  N   UNK     1       3.930   2.681   0.000  0.00  0.00    +0.000 NA
ENDBRANCH  27  31
ENDBRANCH  26  27
ENDBRANCH  25  26
ENDBRANCH   5  25
ENDBRANCH   3   5
ENDBRANCH   1   2
BRANCH   1  33
ATOM     32  C   UNK     1      -1.072  -0.206   0.000  0.00  0.00    +0.000 C 
ATOM     33  N   UNK     1      -0.357   0.206   0.000  0.00  0.00    +0.000 NA
ATOM     34  O   UNK     1      -1.072  -1.031   0.000  0.00  0.00    +0.000 OA
BRANCH  32  35
ATOM     35  C   UNK     1      -1.786   0.206   0.000  0.00  0.00    +0.000 C 
BRANCH  35  37
ATOM     36  C   UNK     1      -3.215   0.206   0.000  0.00  0.00    +0.000 C 
ATOM     37  N   UNK     1      -2.501  -0.206   0.000  0.00  0.00    +0.000 NA
ATOM     38  O   UNK     1      -3.215   1.031   0.000  0.00  0.00    +0.000 OA
BRANCH  36  39
ATOM     39  C   UNK     1      -3.929  -0.206   0.000  0.00  0.00    +0.000 C 
ATOM     40  C   UNK     1      -3.929  -1.031   0.000  0.00  0.00    +0.000 C 
BRANCH  39  42
ATOM     41  C   UNK     1      -5.358  -0.206   0.000  0.00  0.00    +0.000 C 
ATOM     42  N   UNK     1      -4.644   0.206   0.000  0.00  0.00    +0.000 NA
ATOM     43  O   UNK     1      -5.358  -1.031   0.000  0.00  0.00    +0.000 OA
BRANCH  41  44
ATOM     44  C   UNK     1      -6.073   0.206   0.000  0.00  0.00    +0.000 C 
BRANCH  44  47
ATOM     45  C   UNK     1      -6.787   2.269   0.000  0.00  0.00    +0.000 C 
ATOM     46  C   UNK     1      -6.787   1.444   0.000  0.00  0.00    +0.000 C 
ATOM     47  N   UNK     1      -6.073   1.031   0.000  0.00  0.00    +0.000 NA
ATOM     48  O   UNK     1      -7.502   1.031   0.000  0.00  0.00    +0.000 OA
ENDBRANCH  44  47
BRANCH  44  49
ATOM     49  C   UNK     1      -6.787  -0.206   0.000  0.00  0.00    +0.000 C 
BRANCH  49  50
ATOM     50  S   UNK     1      -7.502   0.206   0.000  0.00  0.00    +0.000 S 
BRANCH  50  51
ATOM     51  S   UNK     1      -8.216  -0.206   0.000  0.00  0.00    +0.000 S 
BRANCH  51  52
ATOM     52  C   UNK     1      -8.931   0.206   0.000  0.00  0.00    +0.000 C 
BRANCH  52  53
ATOM     53  C   UNK     1      -9.645  -0.206   0.000  0.00  0.00    +0.000 C 
ATOM     54  N   UNK     1      -9.645  -1.031   0.000  0.00  0.00    +0.000 NA
BRANCH  53  55
ATOM     55  C   UNK     1     -10.360   0.206   0.000  0.00  0.00    +0.000 C 
ATOM     56  O   UNK     1     -11.074  -0.206   0.000  0.00  0.00    +0.000 OA
ATOM     57  O   UNK     1     -10.360   1.031   0.000  0.00  0.00    +0.000 OA
ENDBRANCH  53  55
ENDBRANCH  52  53
ENDBRANCH  51  52
ENDBRANCH  50  51
ENDBRANCH  49  50
ENDBRANCH  44  49
ENDBRANCH  41  44
ENDBRANCH  39  42
ENDBRANCH  36  39
ENDBRANCH  35  37
BRANCH  35  58
ATOM     58  C   UNK     1      -1.786   1.031   0.000  0.00  0.00    +0.000 C 
BRANCH  58  59
ATOM     59  C   UNK     1      -1.072   1.444   0.000  0.00  0.00    +0.000 C 
BRANCH  59  60
ATOM     60  C   UNK     1      -1.072   2.269   0.000  0.00  0.00    +0.000 C 
BRANCH  60  64
ATOM     61  C   UNK     1      -0.357   3.506   0.000  0.00  0.00    +0.000 C 
ATOM     62  N   UNK     1      -1.072   3.919   0.000  0.00  0.00    +0.000 NA
ATOM     63  N   UNK     1       0.357   3.919   0.000  0.00  0.00    +0.000 NA
ATOM     64  N   UNK     1      -0.357   2.681   0.000  0.00  0.00    +0.000 NA
ENDBRANCH  60  64
ENDBRANCH  59  60
ENDBRANCH  58  59
ENDBRANCH  35  58
ENDBRANCH  32  35
ENDBRANCH   1  33
BRANCH   1  65
ATOM     65  C   UNK     1       0.357  -1.031   0.000  0.00  0.00    +0.000 C 
BRANCH  65  66
ATOM     66  C   UNK     1      -0.357  -1.444   0.000  0.00  0.00    +0.000 C 
BRANCH  66  67
ATOM     67  C   UNK     1      -0.357  -2.269   0.000  0.00  0.00    +0.000 C 
BRANCH  67  71
ATOM     68  C   UNK     1      -1.072  -3.506   0.000  0.00  0.00    +0.000 C 
ATOM     69  N   UNK     1      -0.357  -3.919   0.000  0.00  0.00    +0.000 NA
ATOM     70  N   UNK     1      -1.786  -3.919   0.000  0.00  0.00    +0.000 NA
ATOM     71  N   UNK     1      -1.072  -2.681   0.000  0.00  0.00    +0.000 NA
ENDBRANCH  67  71
ENDBRANCH  66  67
ENDBRANCH  65  66
ENDBRANCH   1  65
TORSDOF 36
