REMARK  Name = 
REMARK  5 active torsions:
REMARK  status: ('A' for Active; 'I' for Inactive)
REMARK    1  A    between atoms: C_7  and  C_8
REMARK    2  A    between atoms: N_16  and  C_18
REMARK    3  A    between atoms: C_18  and  C_20
REMARK    4  A    between atoms: C_22  and  C_30
REMARK    5  A    between atoms: C_24  and  C_26
REMARK                            x       y       z     vdW  Elec       q    Type
REMARK                         _______ _______ _______ _____ _____    ______ ____
ROOT
ATOM      1  C   UNL     1       2.143  -3.712   0.000  0.00  0.00    +0.000 C 
ATOM      2  C   UNL     1       2.143  -2.888   0.000  0.00  0.00    +0.000 C 
ATOM      3  N   UNL     1       2.858  -2.475   0.000  0.00  0.00    +0.000 NA
ATOM      4  C   UNL     1       3.572  -2.888   0.000  0.00  0.00    +0.000 C 
ATOM      5  C   UNL     1       3.572  -3.712   0.000  0.00  0.00    +0.000 C 
ATOM      6  N   UNL     1       2.858  -4.125   0.000  0.00  0.00    +0.000 N 
ATOM      7  C   UNL     1       2.858  -4.950   0.000  0.00  0.00    +0.000 C 
ATOM      8  O   UNL     1       2.143  -5.362   0.000  0.00  0.00    +0.000 OA
ATOM      9  N   UNL     1       3.572  -5.362   0.000  0.00  0.00    +0.000 N 
ATOM     10  C   UNL     1       4.287  -4.950   0.000  0.00  0.00    +0.000 C 
ENDROOT
BRANCH   1  17
ATOM     11  C   UNL     1       0.715  -2.888   0.000  0.00  0.00    +0.000 C 
ATOM     12  C   UNL     1       0.715  -3.712   0.000  0.00  0.00    +0.000 A 
ATOM     13  C   UNL     1       0.000  -4.125   0.000  0.00  0.00    +0.000 A 
ATOM     14  C   UNL     1       0.000  -4.950   0.000  0.00  0.00    +0.000 A 
ATOM     15  C   UNL     1       0.715  -5.362   0.000  0.00  0.00    +0.000 A 
ATOM     16  C   UNL     1       1.429  -4.950   0.000  0.00  0.00    +0.000 A 
ATOM     17  C   UNL     1       1.429  -4.125   0.000  0.00  0.00    +0.000 A 
ATOM     18  F   UNL     1      -0.715  -5.362   0.000  0.00  0.00    +0.000 F 
ENDBRANCH   1  17
BRANCH   9  19
ATOM     19  C   UNL     1       3.572  -6.188   0.000  0.00  0.00    +0.000 C 
ATOM     20  C   UNL     1       2.858  -6.600   0.000  0.00  0.00    +0.000 C 
BRANCH  19  21
ATOM     21  C   UNL     1       4.287  -6.600   0.000  0.00  0.00    +0.000 A 
ATOM     22  C   UNL     1       5.001  -6.188   0.000  0.00  0.00    +0.000 A 
ATOM     23  C   UNL     1       5.716  -6.600   0.000  0.00  0.00    +0.000 A 
ATOM     24  C   UNL     1       5.716  -7.425   0.000  0.00  0.00    +0.000 A 
ATOM     25  C   UNL     1       5.001  -7.838   0.000  0.00  0.00    +0.000 A 
ATOM     26  C   UNL     1       4.287  -7.425   0.000  0.00  0.00    +0.000 A 
BRANCH  25  27
ATOM     27  C   UNL     1       5.001  -8.662   0.000  0.00  0.00    +0.000 C 
ATOM     28  F   UNL     1       5.001  -9.488   0.000  0.00  0.00    +0.000 F 
ATOM     29  F   UNL     1       5.826  -8.662   0.000  0.00  0.00    +0.000 F 
ATOM     30  F   UNL     1       4.176  -8.662   0.000  0.00  0.00    +0.000 F 
ENDBRANCH  25  27
BRANCH  23  31
ATOM     31  C   UNL     1       6.430  -6.188   0.000  0.00  0.00    +0.000 C 
ATOM     32  F   UNL     1       7.145  -5.775   0.000  0.00  0.00    +0.000 F 
ATOM     33  F   UNL     1       6.843  -6.902   0.000  0.00  0.00    +0.000 F 
ATOM     34  F   UNL     1       6.018  -5.473   0.000  0.00  0.00    +0.000 F 
ENDBRANCH  23  31
ENDBRANCH  19  21
ENDBRANCH   9  19
TORSDOF 5
