REMARK  Name = 
REMARK  7 active torsions:
REMARK  status: ('A' for Active; 'I' for Inactive)
REMARK    1  A    between atoms: CA_3  and  C_29
REMARK    2  A    between atoms: CA_7  and  N_10
REMARK    3  A    between atoms: C_11  and  C_13
REMARK    4  A    between atoms: C_13  and  C_14
REMARK    5  A    between atoms: C_13  and  C_20
REMARK    6  A    between atoms: C_20  and  O_22
REMARK    7  A    between atoms: O_22  and  C_23
REMARK                            x       y       z     vdW  Elec       q    Type
REMARK                         _______ _______ _______ _____ _____    ______ ____
ROOT
ATOM      1  N   UNL     1       0.904   2.600   0.000  0.00  0.00    +0.000 NA
ATOM      2  C   UNL     1       1.619   3.012   0.000  0.00  0.00    +0.000 C 
ATOM      3  O   UNL     1       1.619   3.837   0.000  0.00  0.00    +0.000 OA
ENDROOT
BRANCH   1  10
ATOM      4  C   UNL     1      -2.389   2.177   0.000  0.00  0.00    +0.000 C 
ATOM      5  C   UNL     1      -1.940   2.869   0.000  0.00  0.00    +0.000 C 
ATOM      6  CA  UNL     1      -1.645   3.639   0.000  0.00  0.00    +0.000 C 
ATOM      7  N   UNL     1      -0.821   3.595   0.000  0.00  0.00    +0.000 N 
ATOM      8  C   UNL     1      -0.607   2.799   0.000  0.00  0.00    +0.000 C 
ATOM      9  S   UNL     1      -1.299   2.349   0.000  0.00  0.00    +0.000 S 
ATOM     10  CA  UNL     1       0.190   3.012   0.000  0.00  0.00    +0.000 C 
ATOM     11  C   UNL     1      -0.024   3.809   0.000  0.00  0.00    +0.000 C 
ATOM     12  O   UNL     1       0.389   4.524   0.000  0.00  0.00    +0.000 OA
ATOM     13  C   UNL     1      -2.675   3.243   0.000  0.00  0.00    +0.000 C 
BRANCH   6  14
ATOM     14  C   UNL     1      -2.094   4.331   0.000  0.00  0.00    +0.000 C 
ATOM     15  O   UNL     1      -2.918   4.287   0.000  0.00  0.00    +0.000 OA
ATOM     16  OXT UNL     1      -1.719   5.066   0.000  0.00  0.00    +0.000 OA
ENDBRANCH   6  14
ENDBRANCH   1  10
BRANCH   2  17
ATOM     17  C   UNL     1       2.333   2.600   0.000  0.00  0.00    +0.000 C 
BRANCH  17  18
ATOM     18  C   UNL     1       2.333   1.775   0.000  0.00  0.00    +0.000 A 
ATOM     19  C   UNL     1       3.048   1.362   0.000  0.00  0.00    +0.000 A 
ATOM     20  C   UNL     1       3.048   0.537   0.000  0.00  0.00    +0.000 A 
ATOM     21  C   UNL     1       2.333   0.125   0.000  0.00  0.00    +0.000 A 
ATOM     22  C   UNL     1       1.619   0.537   0.000  0.00  0.00    +0.000 A 
ATOM     23  C   UNL     1       1.619   1.362   0.000  0.00  0.00    +0.000 A 
ENDBRANCH  17  18
BRANCH  17  24
ATOM     24  C   UNL     1       3.048   3.012   0.000  0.00  0.00    +0.000 C 
ATOM     25  O   UNL     1       3.048   3.837   0.000  0.00  0.00    +0.000 OA
BRANCH  24  26
ATOM     26  O   UNL     1       3.762   2.600   0.000  0.00  0.00    +0.000 OA
BRANCH  26  27
ATOM     27  C   UNL     1       4.477   3.012   0.000  0.00  0.00    +0.000 A 
ATOM     28  C   UNL     1       4.477   3.837   0.000  0.00  0.00    +0.000 A 
ATOM     29  C   UNL     1       5.191   4.250   0.000  0.00  0.00    +0.000 A 
ATOM     30  C   UNL     1       5.905   3.837   0.000  0.00  0.00    +0.000 A 
ATOM     31  C   UNL     1       5.905   3.012   0.000  0.00  0.00    +0.000 A 
ATOM     32  C   UNL     1       5.191   2.600   0.000  0.00  0.00    +0.000 A 
ENDBRANCH  26  27
ENDBRANCH  24  26
ENDBRANCH  17  24
ENDBRANCH   2  17
TORSDOF 7
