REMARK  Name = 
REMARK  26 active torsions:
REMARK  status: ('A' for Active; 'I' for Inactive)
REMARK    1  A    between atoms: CB_3  and  CA_5
REMARK    2  A    between atoms: CA_5  and  C_6
REMARK    3  A    between atoms: CA_5  and  N_8
REMARK    4  A    between atoms: C_9  and  CA_11
REMARK    5  A    between atoms: CA_16  and  N_17
REMARK    6  A    between atoms: C_18  and  CA_20
REMARK    7  A    between atoms: CA_20  and  CB_21
REMARK    8  A    between atoms: CA_20  and  N_28
REMARK    9  A    between atoms: CB_21  and  CG_22
REMARK   10  A    between atoms: C_29  and  C_31
REMARK   11  A    between atoms: C_31  and  N_32
REMARK   12  A    between atoms: N_35  and  C_36
REMARK   13  A    between atoms: C_36  and  C_37
REMARK   14  A    between atoms: N_42  and  C_43
REMARK   15  A    between atoms: C_43  and  C_44
REMARK   16  A    between atoms: N_49  and  C_50
REMARK   17  A    between atoms: C_50  and  C_51
REMARK   18  A    between atoms: CA_59  and  CB_60
REMARK   19  A    between atoms: CB_60  and  CG_61
REMARK   20  A    between atoms: CA_71  and  CB_72
REMARK   21  A    between atoms: CB_72  and  CG_73
REMARK   22  A    between atoms: CA_85  and  CB_86
REMARK   23  A    between atoms: CB_86  and  CG_87
REMARK   24  A    between atoms: CG_87  and  CD_88
REMARK   25  A    between atoms: CD_88  and  CE_89
REMARK   26  A    between atoms: CA_94  and  CB_95
REMARK                            x       y       z     vdW  Elec       q    Type
REMARK                         _______ _______ _______ _____ _____    ______ ____
ROOT
ATOM      1  Y   UNL     1      -2.890   0.460   0.000  0.00  0.00    +0.000 Y 
ENDROOT
TORSDOF 0
REMARK  Name = 
REMARK  26 active torsions:
REMARK  status: ('A' for Active; 'I' for Inactive)
REMARK    1  A    between atoms: CB_3  and  CA_5
REMARK    2  A    between atoms: CA_5  and  C_6
REMARK    3  A    between atoms: CA_5  and  N_8
REMARK    4  A    between atoms: C_9  and  CA_11
REMARK    5  A    between atoms: CA_16  and  N_17
REMARK    6  A    between atoms: C_18  and  CA_20
REMARK    7  A    between atoms: CA_20  and  CB_21
REMARK    8  A    between atoms: CA_20  and  N_28
REMARK    9  A    between atoms: CB_21  and  CG_22
REMARK   10  A    between atoms: C_29  and  C_31
REMARK   11  A    between atoms: C_31  and  N_32
REMARK   12  A    between atoms: N_35  and  C_36
REMARK   13  A    between atoms: C_36  and  C_37
REMARK   14  A    between atoms: N_42  and  C_43
REMARK   15  A    between atoms: C_43  and  C_44
REMARK   16  A    between atoms: N_49  and  C_50
REMARK   17  A    between atoms: C_50  and  C_51
REMARK   18  A    between atoms: CA_59  and  CB_60
REMARK   19  A    between atoms: CB_60  and  CG_61
REMARK   20  A    between atoms: CA_71  and  CB_72
REMARK   21  A    between atoms: CB_72  and  CG_73
REMARK   22  A    between atoms: CA_85  and  CB_86
REMARK   23  A    between atoms: CB_86  and  CG_87
REMARK   24  A    between atoms: CG_87  and  CD_88
REMARK   25  A    between atoms: CD_88  and  CE_89
REMARK   26  A    between atoms: CA_94  and  CB_95
REMARK                            x       y       z     vdW  Elec       q    Type
REMARK                         _______ _______ _______ _____ _____    ______ ____
ROOT
ATOM      1  CA  CYS A   6       3.033  -4.926   0.000  0.00  0.00    +0.000 C 
ATOM      2  CB  CYS A   6       2.226  -5.097   0.000  0.00  0.00    +0.000 C 
ATOM      3  SG  CYS A   6       1.674  -4.484   0.000  0.00  0.00    +0.000 S 
ATOM      4  SG  PHE A   1       1.929  -3.700   0.000  0.00  0.00    +0.000 S 
ATOM      5  CB  PHE A   1       2.736  -3.528   0.000  0.00  0.00    +0.000 C 
ATOM      6  CA  PHE A   1       2.991  -2.743   0.000  0.00  0.00    +0.000 C 
ATOM      7  C   PHE A   1       3.798  -2.572   0.000  0.00  0.00    +0.000 C 
ATOM      8  O   PHE A   1       4.350  -3.185   0.000  0.00  0.00    +0.000 OA
ATOM      9  N   TYR A   2       4.053  -1.787   0.000  0.00  0.00    +0.000 NA
ATOM     10  CA  TYR A   2       4.860  -1.616   0.000  0.00  0.00    +0.000 C 
ATOM     11  C   TYR A   2       5.115  -0.831   0.000  0.00  0.00    +0.000 C 
ATOM     12  O   TYR A   2       4.563  -0.218   0.000  0.00  0.00    +0.000 OA
ATOM     13  N   TRP A   3       5.922  -0.660   0.000  0.00  0.00    +0.000 NA
ATOM     14  CA  TRP A   3       6.474  -1.273   0.000  0.00  0.00    +0.000 C 
ATOM     15  C   TRP A   3       6.219  -2.057   0.000  0.00  0.00    +0.000 C 
ATOM     16  O   TRP A   3       5.412  -2.229   0.000  0.00  0.00    +0.000 OA
ATOM     17  N   LYS A   4       6.771  -2.670   0.000  0.00  0.00    +0.000 NA
ATOM     18  CA  LYS A   4       6.516  -3.455   0.000  0.00  0.00    +0.000 C 
ATOM     19  C   LYS A   4       5.709  -3.627   0.000  0.00  0.00    +0.000 C 
ATOM     20  O   LYS A   4       5.157  -3.014   0.000  0.00  0.00    +0.000 OA
ATOM     21  N   THR A   5       5.454  -4.411   0.000  0.00  0.00    +0.000 NA
ATOM     22  CA  THR A   5       4.647  -4.583   0.000  0.00  0.00    +0.000 C 
ATOM     23  C   THR A   5       4.392  -5.367   0.000  0.00  0.00    +0.000 C 
ATOM     24  O   THR A   5       4.478  -6.188   0.000  0.00  0.00    +0.000 OA
ATOM     25  N   CYS A   6       3.585  -5.539   0.000  0.00  0.00    +0.000 NA
ENDROOT
BRANCH   6  26
ATOM     26  N   PHE A   1       2.184  -2.572   0.000  0.00  0.00    +0.000 NA
ATOM     27  C   PHE A   1       1.632  -3.185   0.000  0.00  0.00    +0.000 C 
ATOM     28  O   PHE A   1       1.632  -4.010   0.000  0.00  0.00    +0.000 OA
BRANCH  27  29
ATOM     29  CA  PHE A   1       0.825  -3.014   0.000  0.00  0.00    +0.000 C 
BRANCH  29  30
ATOM     30  N   PHE A   1       0.273  -3.627   0.000  0.00  0.00    +0.000 NA
ATOM     31  C   UNK A   0      -0.534  -3.455   0.000  0.00  0.00    +0.000 C 
ATOM     32  O   UNK A   0      -1.202  -2.970   0.000  0.00  0.00    +0.000 OA
BRANCH  31  33
ATOM     33  C   UNK A   0      -1.086  -4.068   0.000  0.00  0.00    +0.000 C 
BRANCH  33  34
ATOM     34  N   UNK A   0      -1.893  -3.897   0.000  0.00  0.00    +0.000 NA
ATOM     35  C   UNK A   0      -1.519  -3.162   0.000  0.00  0.00    +0.000 C 
ATOM     36  C   UNK A   0      -1.968  -2.470   0.000  0.00  0.00    +0.000 C 
ATOM     37  N   UNK A   0      -2.792  -2.513   0.000  0.00  0.00    +0.000 NA
ATOM     38  C   UNK A   0      -3.527  -2.138   0.000  0.00  0.00    +0.000 C 
ATOM     39  C   UNK A   0      -4.219  -2.588   0.000  0.00  0.00    +0.000 C 
ATOM     40  N   UNK A   0      -4.176  -3.411   0.000  0.00  0.00    +0.000 NA
ATOM     41  C   UNK A   0      -4.550  -4.146   0.000  0.00  0.00    +0.000 C 
ATOM     42  C   UNK A   0      -4.101  -4.838   0.000  0.00  0.00    +0.000 C 
ATOM     43  N   UNK A   0      -3.277  -4.795   0.000  0.00  0.00    +0.000 NA
ATOM     44  C   UNK A   0      -2.542  -5.170   0.000  0.00  0.00    +0.000 C 
ATOM     45  C   UNK A   0      -1.850  -4.721   0.000  0.00  0.00    +0.000 C 
BRANCH  40  46
ATOM     46  C   UNK A   0      -4.982  -3.240   0.000  0.00  0.00    +0.000 C 
BRANCH  46  47
ATOM     47  C   UNK A   0      -5.535  -3.853   0.000  0.00  0.00    +0.000 C 
ATOM     48  O   UNK A   0      -6.341  -3.682   0.000  0.00  0.00    +0.000 OA
ATOM     49  O   UNK A   0      -5.280  -4.638   0.000  0.00  0.00    +0.000 OA
ENDBRANCH  46  47
ENDBRANCH  40  46
BRANCH  37  50
ATOM     50  C   UNK A   0      -2.620  -1.706   0.000  0.00  0.00    +0.000 C 
BRANCH  50  51
ATOM     51  C   UNK A   0      -3.233  -1.154   0.000  0.00  0.00    +0.000 C 
ATOM     52  O   UNK A   0      -3.062  -0.347   0.000  0.00  0.00    +0.000 OA
ATOM     53  O   UNK A   0      -4.018  -1.409   0.000  0.00  0.00    +0.000 OA
ENDBRANCH  50  51
ENDBRANCH  37  50
BRANCH  43  54
ATOM     54  C   UNK A   0      -3.448  -5.602   0.000  0.00  0.00    +0.000 C 
BRANCH  54  55
ATOM     55  C   UNK A   0      -4.233  -5.857   0.000  0.00  0.00    +0.000 C 
ATOM     56  O   UNK A   0      -4.405  -6.664   0.000  0.00  0.00    +0.000 OA
ATOM     57  O   UNK A   0      -4.846  -5.305   0.000  0.00  0.00    +0.000 OA
ENDBRANCH  54  55
ENDBRANCH  43  54
ENDBRANCH  33  34
ENDBRANCH  31  33
ENDBRANCH  29  30
BRANCH  29  58
ATOM     58  CB  PHE A   1       0.570  -2.229   0.000  0.00  0.00    +0.000 C 
BRANCH  58  59
ATOM     59  CG  PHE A   1      -0.237  -2.057   0.000  0.00  0.00    +0.000 A 
ATOM     60  CD1 PHE A   1      -0.789  -2.670   0.000  0.00  0.00    +0.000 A 
ATOM     61  CE1 PHE A   1      -1.596  -2.499   0.000  0.00  0.00    +0.000 A 
ATOM     62  CZ  PHE A   1      -1.851  -1.714   0.000  0.00  0.00    +0.000 A 
ATOM     63  CE2 PHE A   1      -1.299  -1.101   0.000  0.00  0.00    +0.000 A 
ATOM     64  CD2 PHE A   1      -0.492  -1.273   0.000  0.00  0.00    +0.000 A 
ENDBRANCH  58  59
ENDBRANCH  29  58
ENDBRANCH  27  29
ENDBRANCH   6  26
BRANCH  22  65
ATOM     65  CB  THR A   5       5.199  -5.196   0.000  0.00  0.00    +0.000 C 
ATOM     66  CG2 THR A   5       4.944  -5.980   0.000  0.00  0.00    +0.000 C 
ATOM     67  OG1 THR A   5       6.006  -5.024   0.000  0.00  0.00    +0.000 OA
ENDBRANCH  22  65
BRANCH   1  69
ATOM     68  N   PHE A   1       3.330  -6.324   0.000  0.00  0.00    +0.000 NA
ATOM     69  C   CYS A   6       2.778  -5.710   0.000  0.00  0.00    +0.000 C 
ATOM     70  O   CYS A   6       1.971  -5.882   0.000  0.00  0.00    +0.000 OA
BRANCH  68  71
ATOM     71  CA  PHE A   1       3.075  -7.108   0.000  0.00  0.00    +0.000 C 
BRANCH  71  73
ATOM     72  CG2 PHE A   1       2.013  -8.064   0.000  0.00  0.00    +0.000 C 
ATOM     73  CB  PHE A   1       2.268  -7.280   0.000  0.00  0.00    +0.000 C 
ATOM     74  OG1 PHE A   1       1.716  -6.667   0.000  0.00  0.00    +0.000 OA
ENDBRANCH  71  73
BRANCH  71  75
ATOM     75  C   PHE A   1       3.627  -7.721   0.000  0.00  0.00    +0.000 C 
ATOM     76  O   PHE A   1       3.372  -8.506   0.000  0.00  0.00    +0.000 OA
ENDBRANCH  71  75
ENDBRANCH  68  71
ENDBRANCH   1  69
BRANCH  10  77
ATOM     77  CB  TYR A   2       4.308  -1.003   0.000  0.00  0.00    +0.000 C 
BRANCH  77  78
ATOM     78  CG  TYR A   2       3.501  -1.174   0.000  0.00  0.00    +0.000 A 
ATOM     79  CD1 TYR A   2       3.246  -1.959   0.000  0.00  0.00    +0.000 A 
ATOM     80  CE1 TYR A   2       2.439  -2.130   0.000  0.00  0.00    +0.000 A 
ATOM     81  CZ  TYR A   2       1.887  -1.517   0.000  0.00  0.00    +0.000 A 
ATOM     82  OH  TYR A   2       1.080  -1.689   0.000  0.00  0.00    +0.000 OA
ATOM     83  CE2 TYR A   2       2.142  -0.733   0.000  0.00  0.00    +0.000 A 
ATOM     84  CD2 TYR A   2       2.949  -0.561   0.000  0.00  0.00    +0.000 A 
ENDBRANCH  77  78
ENDBRANCH  10  77
BRANCH  14  85
ATOM     85  CB  TRP A   3       7.281  -1.101   0.000  0.00  0.00    +0.000 C 
BRANCH  85  86
ATOM     86  CG  TRP A   3       7.536  -0.317   0.000  0.00  0.00    +0.000 A 
ATOM     87  CD1 TRP A   3       7.051   0.351   0.000  0.00  0.00    +0.000 A 
ATOM     88  NE1 TRP A   3       7.536   1.018   0.000  0.00  0.00    +0.000 NA
ATOM     89  CE2 TRP A   3       8.320   0.763   0.000  0.00  0.00    +0.000 A 
ATOM     90  CD2 TRP A   3       8.320  -0.062   0.000  0.00  0.00    +0.000 A 
ATOM     91  CE3 TRP A   3       9.035  -0.474   0.000  0.00  0.00    +0.000 A 
ATOM     92  CZ3 TRP A   3       9.749  -0.062   0.000  0.00  0.00    +0.000 A 
ATOM     93  CH2 TRP A   3       9.749   0.763   0.000  0.00  0.00    +0.000 A 
ATOM     94  CZ2 TRP A   3       9.035   1.176   0.000  0.00  0.00    +0.000 A 
ENDBRANCH  85  86
ENDBRANCH  14  85
BRANCH  18  95
ATOM     95  CB  LYS A   4       7.068  -4.068   0.000  0.00  0.00    +0.000 C 
BRANCH  95  96
ATOM     96  CG  LYS A   4       7.875  -3.897   0.000  0.00  0.00    +0.000 C 
BRANCH  96  97
ATOM     97  CD  LYS A   4       8.130  -3.112   0.000  0.00  0.00    +0.000 C 
BRANCH  97  98
ATOM     98  CE  LYS A   4       8.937  -2.941   0.000  0.00  0.00    +0.000 C 
ATOM     99  NZ  LYS A   4       9.489  -3.554   0.000  0.00  0.00    +0.000 NA
ENDBRANCH  97  98
ENDBRANCH  96  97
ENDBRANCH  95  96
ENDBRANCH  18  95
TORSDOF 26
