REMARK  Name = 
REMARK  8 active torsions:
REMARK  status: ('A' for Active; 'I' for Inactive)
REMARK    1  A    between atoms: C_2  and  S_9
REMARK    2  A    between atoms: C_5  and  O_7
REMARK    3  A    between atoms: S_9  and  N_10
REMARK    4  A    between atoms: N_10  and  C_13
REMARK    5  A    between atoms: N_10  and  C_20
REMARK    6  A    between atoms: C_13  and  C_14
REMARK    7  A    between atoms: C_20  and  C_21
REMARK    8  A    between atoms: C_20  and  C_24
REMARK                            x       y       z     vdW  Elec       q    Type
REMARK                         _______ _______ _______ _____ _____    ______ ____
ROOT
ATOM      1  N   UNL     1       0.002  -1.447   0.000  0.00  0.00    +0.000 NA
ENDROOT
BRANCH   1   2
ATOM      2  S   UNL     1      -0.005  -0.620   0.000  0.00  0.00    +0.000 S 
ATOM      3  O   UNL     1       0.820  -0.610   0.000  0.00  0.00    +0.000 OA
ATOM      4  O   UNL     1      -0.830  -0.629   0.000  0.00  0.00    +0.000 OA
BRANCH   2   6
ATOM      5  C   UNL     1      -0.743   0.606   0.000  0.00  0.00    +0.000 A 
ATOM      6  C   UNL     1      -0.019   0.204   0.000  0.00  0.00    +0.000 A 
ATOM      7  C   UNL     1       0.688   0.630   0.000  0.00  0.00    +0.000 A 
ATOM      8  C   UNL     1       0.673   1.457   0.000  0.00  0.00    +0.000 A 
ATOM      9  C   UNL     1      -0.055   1.857   0.000  0.00  0.00    +0.000 A 
ATOM     10  C   UNL     1      -0.759   1.429   0.000  0.00  0.00    +0.000 A 
BRANCH   9  11
ATOM     11  O   UNL     1      -0.073   2.682   0.000  0.00  0.00    +0.000 OA
ATOM     12  C   UNL     1       0.632   3.110   0.000  0.00  0.00    +0.000 C 
ENDBRANCH   9  11
ENDBRANCH   2   6
ENDBRANCH   1   2
BRANCH   1  13
ATOM     13  C   UNL     1      -0.709  -1.866   0.000  0.00  0.00    +0.000 C 
BRANCH  13  14
ATOM     14  C   UNL     1      -1.427  -1.460   0.000  0.00  0.00    +0.000 C 
ATOM     15  O   UNL     1      -1.434  -0.635   0.000  0.00  0.00    +0.000 OA
ATOM     16  N   UNL     1      -2.138  -1.878   0.000  0.00  0.00    +0.000 NA
ATOM     17  O   UNL     1      -2.856  -1.472   0.000  0.00  0.00    +0.000 OA
ENDBRANCH  13  14
BRANCH  13  18
ATOM     18  C   UNL     1      -0.701  -2.691   0.000  0.00  0.00    +0.000 C 
ATOM     19  C   UNL     1      -1.412  -3.110   0.000  0.00  0.00    +0.000 C 
ATOM     20  C   UNL     1       0.017  -3.097   0.000  0.00  0.00    +0.000 C 
ENDBRANCH  13  18
ENDBRANCH   1  13
BRANCH   1  21
ATOM     21  C   UNL     1       0.720  -1.854   0.000  0.00  0.00    +0.000 C 
BRANCH  21  22
ATOM     22  C   UNL     1       1.431  -1.435   0.000  0.00  0.00    +0.000 A 
ATOM     23  C   UNL     1       2.145  -1.845   0.000  0.00  0.00    +0.000 A 
ATOM     24  C   UNL     1       2.856  -1.427   0.000  0.00  0.00    +0.000 A 
ATOM     25  C   UNL     1       2.849  -0.601   0.000  0.00  0.00    +0.000 A 
ATOM     26  N   UNL     1       2.126  -0.195   0.000  0.00  0.00    +0.000 NA
ATOM     27  C   UNL     1       1.418  -0.615   0.000  0.00  0.00    +0.000 A 
ENDBRANCH  21  22
ENDBRANCH   1  21
TORSDOF 8
