REMARK  Name = 
REMARK  16 active torsions:
REMARK  status: ('A' for Active; 'I' for Inactive)
REMARK    1  A    between atoms: O_2  and  C_24
REMARK    2  A    between atoms: O_2  and  C_30
REMARK    3  A    between atoms: N_5  and  C_6
REMARK    4  A    between atoms: C_6  and  C_7
REMARK    5  A    between atoms: C_6  and  C_8
REMARK    6  A    between atoms: C_7  and  C_15
REMARK    7  A    between atoms: C_8  and  C_16
REMARK    8  A    between atoms: C_9  and  C_10
REMARK    9  A    between atoms: C_9  and  C_11
REMARK   10  A    between atoms: C_10  and  C_12
REMARK   11  A    between atoms: C_11  and  C_13
REMARK   12  A    between atoms: C_12  and  C_14
REMARK   13  A    between atoms: C_13  and  C_17
REMARK   14  A    between atoms: C_15  and  C_21
REMARK   15  A    between atoms: C_17  and  C_20
REMARK   16  A    between atoms: C_30  and  C_31
REMARK                            x       y       z     vdW  Elec       q    Type
REMARK                         _______ _______ _______ _____ _____    ______ ____
ROOT
ATOM      1  C   UNL     1      -0.714  -0.412   0.000  0.00  0.00    +0.000 C 
ENDROOT
BRANCH   1   3
ATOM      2  O   UNL     1       0.714   0.412   0.000  0.00  0.00    +0.000 OA
ATOM      3  N   UNL     1      -0.714   0.412   0.000  0.00  0.00    +0.000 N 
ATOM      4  C   UNL     1       0.000   0.825   0.000  0.00  0.00    +0.000 C 
ATOM      5  H   UNL     1      -1.157   0.668   0.000  0.00  0.00    +0.000 HD
BRANCH   4   6
ATOM      6  C   UNL     1       0.000   1.650   0.000  0.00  0.00    +0.000 C 
BRANCH   6   7
ATOM      7  C   UNL     1       0.714   2.062   0.000  0.00  0.00    +0.000 C 
BRANCH   7   8
ATOM      8  C   UNL     1       0.714   2.888   0.000  0.00  0.00    +0.000 C 
BRANCH   8   9
ATOM      9  C   UNL     1       1.429   3.300   0.000  0.00  0.00    +0.000 C 
BRANCH   9  10
ATOM     10  C   UNL     1       1.429   4.125   0.000  0.00  0.00    +0.000 C 
BRANCH  10  11
ATOM     11  C   UNL     1       2.143   4.537   0.000  0.00  0.00    +0.000 C 
BRANCH  11  12
ATOM     12  C   UNL     1       2.143   5.363   0.000  0.00  0.00    +0.000 A 
ATOM     13  C   UNL     1       1.429   5.775   0.000  0.00  0.00    +0.000 A 
ATOM     14  C   UNL     1       2.858   5.775   0.000  0.00  0.00    +0.000 A 
ATOM     15  C   UNL     1       1.429   6.600   0.000  0.00  0.00    +0.000 A 
ATOM     16  C   UNL     1       2.858   6.600   0.000  0.00  0.00    +0.000 A 
ATOM     17  C   UNL     1       2.143   7.013   0.000  0.00  0.00    +0.000 A 
ENDBRANCH  11  12
ENDBRANCH  10  11
ENDBRANCH   9  10
ENDBRANCH   8   9
ENDBRANCH   7   8
ENDBRANCH   6   7
ENDBRANCH   4   6
ENDBRANCH   1   3
BRANCH   1  18
ATOM     18  C   UNL     1      -1.429  -0.825   0.000  0.00  0.00    +0.000 C 
BRANCH  18  19
ATOM     19  C   UNL     1      -1.429  -1.650   0.000  0.00  0.00    +0.000 A 
ATOM     20  C   UNL     1      -0.714  -2.062   0.000  0.00  0.00    +0.000 A 
ATOM     21  C   UNL     1      -2.143  -2.062   0.000  0.00  0.00    +0.000 A 
ATOM     22  C   UNL     1      -0.714  -2.888   0.000  0.00  0.00    +0.000 A 
ATOM     23  C   UNL     1      -2.143  -2.888   0.000  0.00  0.00    +0.000 A 
ATOM     24  C   UNL     1      -1.429  -3.300   0.000  0.00  0.00    +0.000 A 
BRANCH  24  25
ATOM     25  O   UNL     1      -1.429  -4.125   0.000  0.00  0.00    +0.000 OA
BRANCH  25  26
ATOM     26  C   UNL     1      -2.143  -4.537   0.000  0.00  0.00    +0.000 C 
BRANCH  26  27
ATOM     27  C   UNL     1      -2.143  -5.363   0.000  0.00  0.00    +0.000 A 
ATOM     28  C   UNL     1      -1.429  -5.775   0.000  0.00  0.00    +0.000 A 
ATOM     29  C   UNL     1      -2.858  -5.775   0.000  0.00  0.00    +0.000 A 
ATOM     30  C   UNL     1      -1.429  -6.600   0.000  0.00  0.00    +0.000 A 
ATOM     31  C   UNL     1      -2.858  -6.600   0.000  0.00  0.00    +0.000 A 
ATOM     32  C   UNL     1      -2.143  -7.013   0.000  0.00  0.00    +0.000 A 
ENDBRANCH  26  27
ENDBRANCH  25  26
ENDBRANCH  24  25
ENDBRANCH  18  19
ENDBRANCH   1  18
BRANCH   1  33
ATOM     33  C   UNL     1       0.000  -0.825   0.000  0.00  0.00    +0.000 C 
BRANCH  33  34
ATOM     34  C   UNL     1       0.714  -0.412   0.000  0.00  0.00    +0.000 C 
BRANCH  34  37
ATOM     35  O   UNL     1       2.143  -0.412   0.000  0.00  0.00    +0.000 OA
ATOM     36  O   UNL     1       1.429  -1.650   0.000  0.00  0.00    +0.000 OA
ATOM     37  C   UNL     1       1.429  -0.825   0.000  0.00  0.00    +0.000 C 
ENDBRANCH  34  37
ENDBRANCH  33  34
ENDBRANCH   1  33
TORSDOF 16
