REMARK  Name = 
REMARK  2 active torsions:
REMARK  status: ('A' for Active; 'I' for Inactive)
REMARK    1  A    between atoms: C_4  and  C_8
REMARK    2  A    between atoms: N_9  and  N_10
REMARK                            x       y       z     vdW  Elec       q    Type
REMARK                         _______ _______ _______ _____ _____    ______ ____
ROOT
ATOM      1  C   UNL     1       1.429   0.000   0.000  0.00  0.00    +0.000 A 
ATOM      2  C   UNL     1       0.715  -0.412   0.000  0.00  0.00    +0.000 A 
ATOM      3  C   UNL     1       0.000   0.000   0.000  0.00  0.00    +0.000 A 
ATOM      4  C   UNL     1       0.000   0.825   0.000  0.00  0.00    +0.000 A 
ATOM      5  C   UNL     1       0.715   1.238   0.000  0.00  0.00    +0.000 A 
ATOM      6  C   UNL     1       1.429   0.825   0.000  0.00  0.00    +0.000 A 
ATOM      7 CL   UNL     1       0.715   2.062   0.000  0.00  0.00    +0.000 Cl
ATOM      8 CL   UNL     1      -0.715  -0.412   0.000  0.00  0.00    +0.000 Cl
ENDROOT
BRANCH   4   9
ATOM      9  C   UNL     1      -0.715   1.238   0.000  0.00  0.00    +0.000 C 
ATOM     10  N   UNL     1      -0.715   2.062   0.000  0.00  0.00    +0.000 NA
BRANCH  10  11
ATOM     11  N   UNL     1      -1.429   2.475   0.000  0.00  0.00    +0.000 NA
ATOM     12  C   UNL     1      -2.143   2.062   0.000  0.00  0.00    +0.000 C 
ATOM     13  N   UNL     1      -2.143   1.238   0.000  0.00  0.00    +0.000 NA
ATOM     14  N   UNL     1      -2.858   2.475   0.000  0.00  0.00    +0.000 NA
ATOM     15  O   UNL     1      -3.572   2.062   0.000  0.00  0.00    +0.000 OA
ENDBRANCH  10  11
ENDBRANCH   4   9
TORSDOF 2
