REMARK  Name = 
REMARK  10 active torsions:
REMARK  status: ('A' for Active; 'I' for Inactive)
REMARK    1  A    between atoms: C_2  and  C_3
REMARK    2  A    between atoms: C_7  and  C_22
REMARK    3  A    between atoms: C_7  and  C_55
REMARK    4  A    between atoms: C_27  and  O_28
REMARK    5  A    between atoms: C_37  and  C_52
REMARK    6  A    between atoms: C_41  and  O_48
REMARK    7  A    between atoms: C_42  and  C_43
REMARK    8  A    between atoms: C_43  and  O_45
REMARK    9  A    between atoms: O_48  and  C_49
REMARK   10  A    between atoms: C_55  and  O_57
REMARK                            x       y       z     vdW  Elec       q    Type
REMARK                         _______ _______ _______ _____ _____    ______ ____
ROOT
ATOM      1  C   UNL     1       3.290   0.872   0.000  0.00  0.00    +0.000 A 
ATOM      2  C   UNL     1       2.445   0.975   0.000  0.00  0.00    +0.000 A 
ATOM      3  C   UNL     1       2.274   1.877   0.000  0.00  0.00    +0.000 A 
ATOM      4  C   UNL     1       2.855   2.464   0.000  0.00  0.00    +0.000 A 
ATOM      5  C   UNL     1       3.653   2.254   0.000  0.00  0.00    +0.000 A 
ATOM      6  C   UNL     1       3.870   1.458   0.000  0.00  0.00    +0.000 A 
ATOM      7  N   UNL     1       2.477   3.197   0.000  0.00  0.00    +0.000 N 
ATOM      8  C   UNL     1       1.663   3.064   0.000  0.00  0.00    +0.000 C 
ATOM      9  C   UNL     1       1.538   2.249   0.000  0.00  0.00    +0.000 C 
ATOM     10  C   UNL     1       2.060   1.610   0.000  0.00  0.00    +0.000 C 
ATOM     11  C   UNL     1       1.614   0.916   0.000  0.00  0.00    +0.000 C 
ATOM     12  N   UNL     1       0.644   1.134   0.000  0.00  0.00    +0.000 NA
ATOM     13  C   UNL     1       0.769   1.949   0.000  0.00  0.00    +0.000 C 
ATOM     14  C   UNL     1       0.125   2.465   0.000  0.00  0.00    +0.000 C 
ATOM     15  C   UNL     1      -0.644   2.166   0.000  0.00  0.00    +0.000 C 
ATOM     16  C   UNL     1      -0.769   1.351   0.000  0.00  0.00    +0.000 C 
ATOM     17  C   UNL     1      -0.125   0.835   0.000  0.00  0.00    +0.000 C 
ATOM     18  C   UNL     1       0.250   3.281   0.000  0.00  0.00    +0.000 C 
ATOM     19  C   UNL     1       1.019   3.580   0.000  0.00  0.00    +0.000 C 
ATOM     20  O   UNL     1       1.513   4.241   0.000  0.00  0.00    +0.000 OA
ATOM     21  C   UNL     1       2.848   3.934   0.000  0.00  0.00    +0.000 C 
ENDROOT
BRANCH   1  26
ATOM     22  C   UNL     1       6.640  -0.261   0.000  0.00  0.00    +0.000 C 
ATOM     23  C   UNL     1       6.024   0.332   0.000  0.00  0.00    +0.000 C 
ATOM     24  C   UNL     1       5.164   0.167   0.000  0.00  0.00    +0.000 C 
ATOM     25  C   UNL     1       4.314   0.376   0.000  0.00  0.00    +0.000 C 
ATOM     26  C   UNL     1       3.507   0.076   0.000  0.00  0.00    +0.000 C 
ATOM     27  C   UNL     1       3.109  -0.666   0.000  0.00  0.00    +0.000 A 
ATOM     28  C   UNL     1       3.298  -1.469   0.000  0.00  0.00    +0.000 A 
ATOM     29  C   UNL     1       2.592  -1.896   0.000  0.00  0.00    +0.000 A 
ATOM     30  C   UNL     1       2.438  -2.707   0.000  0.00  0.00    +0.000 A 
ATOM     31  C   UNL     1       1.659  -2.978   0.000  0.00  0.00    +0.000 A 
ATOM     32  C   UNL     1       1.034  -2.439   0.000  0.00  0.00    +0.000 A 
ATOM     33  C   UNL     1       1.189  -1.629   0.000  0.00  0.00    +0.000 A 
ATOM     34  C   UNL     1       1.968  -1.357   0.000  0.00  0.00    +0.000 A 
ATOM     35  N   UNL     1       2.287  -0.597   0.000  0.00  0.00    +0.000 NA
ATOM     36  C   UNL     1       3.985  -1.958   0.000  0.00  0.00    +0.000 C 
ATOM     37  C   UNL     1       4.841  -1.867   0.000  0.00  0.00    +0.000 C 
ATOM     38  N   UNL     1       5.509  -1.302   0.000  0.00  0.00    +0.000 NA
ATOM     39  C   UNL     1       5.264  -0.584   0.000  0.00  0.00    +0.000 C 
ATOM     40  C   UNL     1       6.352  -1.067   0.000  0.00  0.00    +0.000 C 
BRANCH  22  42
ATOM     41  C   UNL     1       8.008  -0.674   0.000  0.00  0.00    +0.000 C 
ATOM     42  C   UNL     1       7.443  -0.072   0.000  0.00  0.00    +0.000 C 
ENDBRANCH  22  42
BRANCH  26  43
ATOM     43  C   UNL     1       2.748   0.399   0.000  0.00  0.00    +0.000 C 
ATOM     44  O   UNL     1       2.648   1.218   0.000  0.00  0.00    +0.000 OA
BRANCH  43  45
ATOM     45  O   UNL     1       2.088  -0.096   0.000  0.00  0.00    +0.000 OA
ATOM     46  C   UNL     1       1.329   0.227   0.000  0.00  0.00    +0.000 C 
ENDBRANCH  43  45
ENDBRANCH  26  43
ENDBRANCH   1  26
BRANCH   6  47
ATOM     47  O   UNL     1       4.668   1.248   0.000  0.00  0.00    +0.000 OA
ATOM     48  C   UNL     1       5.249   1.834   0.000  0.00  0.00    +0.000 C 
ENDBRANCH   6  47
BRANCH  19  49
ATOM     49  C   UNL     1       0.747   4.359   0.000  0.00  0.00    +0.000 C 
ATOM     50  O   UNL     1      -0.064   4.513   0.000  0.00  0.00    +0.000 OA
BRANCH  49  51
ATOM     51  O   UNL     1       1.285   4.984   0.000  0.00  0.00    +0.000 OA
ATOM     52  C   UNL     1       1.013   5.763   0.000  0.00  0.00    +0.000 C 
ENDBRANCH  49  51
ENDBRANCH  19  49
BRANCH  14  53
ATOM     53  C   UNL     1      -0.518   2.982   0.000  0.00  0.00    +0.000 C 
ATOM     54  C   UNL     1      -1.287   2.682   0.000  0.00  0.00    +0.000 C 
ENDBRANCH  14  53
BRANCH  18  55
ATOM     55  O   UNL     1      -0.393   3.797   0.000  0.00  0.00    +0.000 OA
BRANCH  55  56
ATOM     56  C   UNL     1      -1.162   3.498   0.000  0.00  0.00    +0.000 C 
ATOM     57  O   UNL     1      -0.967   2.541   0.000  0.00  0.00    +0.000 OA
ATOM     58  C   UNL     1      -1.806   4.014   0.000  0.00  0.00    +0.000 C 
ENDBRANCH  55  56
ENDBRANCH  18  55
TORSDOF 10
