REMARK  Name = 
REMARK  0 active torsions:
REMARK  status: ('A' for Active; 'I' for Inactive)
REMARK                            x       y       z     vdW  Elec       q    Type
REMARK                         _______ _______ _______ _____ _____    ______ ____
ROOT
ATOM      1  N   UNL     1       1.784   0.227   0.000  0.00  0.00    +0.000 NA
ATOM      2  N   UNL     1       1.227  -0.619   0.000  0.00  0.00    +0.000 NA
ATOM      3  C   UNL     1       0.402   0.454   0.000  0.00  0.00    +0.000 A 
ATOM      4  C   UNL     1       0.402  -0.454   0.000  0.00  0.00    +0.000 A 
ATOM      5  C   UNL     1       1.165   0.846   0.000  0.00  0.00    +0.000 A 
ATOM      6  C   UNL     1      -1.062   0.454   0.000  0.00  0.00    +0.000 C 
ATOM      7  C   UNL     1      -0.299  -0.846   0.000  0.00  0.00    +0.000 A 
ATOM      8  C   UNL     1      -0.299   0.846   0.000  0.00  0.00    +0.000 A 
ATOM      9  C   UNL     1      -1.062  -0.454   0.000  0.00  0.00    +0.000 A 
ATOM     10  C   UNL     1      -0.299  -1.671   0.000  0.00  0.00    +0.000 A 
ATOM     11  C   UNL     1      -1.743  -0.846   0.000  0.00  0.00    +0.000 A 
ATOM     12  C   UNL     1      -0.299   1.671   0.000  0.00  0.00    +0.000 A 
ATOM     13  C   UNL     1      -1.743  -1.671   0.000  0.00  0.00    +0.000 A 
ATOM     14  C   UNL     1       1.165   1.671   0.000  0.00  0.00    +0.000 A 
ATOM     15  C   UNL     1       0.402   2.062   0.000  0.00  0.00    +0.000 A 
ATOM     16  C   UNL     1      -1.062  -2.062   0.000  0.00  0.00    +0.000 A 
ATOM     17  O   UNL     1      -1.784   0.907   0.000  0.00  0.00    +0.000 OA
ENDROOT
TORSDOF 0
