REMARK  Name = 
REMARK  6 active torsions:
REMARK  status: ('A' for Active; 'I' for Inactive)
REMARK    1  A    between atoms: C_4  and  S_7
REMARK    2  A    between atoms: S_7  and  N_10
REMARK    3  A    between atoms: C_18  and  C_20
REMARK    4  A    between atoms: C_20  and  C_22
REMARK    5  A    between atoms: C_24  and  C_28
REMARK    6  A    between atoms: N_34  and  C_35
REMARK                            x       y       z     vdW  Elec       q    Type
REMARK                         _______ _______ _______ _____ _____    ______ ____
ROOT
ATOM      1  N   UNL     1       0.715  -1.238   0.000  0.00  0.00    +0.000 NA
ATOM      2  C   UNL     1       0.715  -0.412   0.000  0.00  0.00    +0.000 C 
ATOM      3  C   UNL     1       1.429   0.000   0.000  0.00  0.00    +0.000 C 
ATOM      4  C   UNL     1       2.143  -0.412   0.000  0.00  0.00    +0.000 C 
ATOM      5  C   UNL     1       2.858   0.000   0.000  0.00  0.00    +0.000 C 
ATOM      6  C   UNL     1       3.572  -0.412   0.000  0.00  0.00    +0.000 A 
ATOM      7  C   UNL     1       3.572  -1.238   0.000  0.00  0.00    +0.000 A 
ATOM      8  C   UNL     1       2.858  -1.650   0.000  0.00  0.00    +0.000 C 
ATOM      9  C   UNL     1       2.143  -1.238   0.000  0.00  0.00    +0.000 C 
ATOM     10  C   UNL     1       1.429  -1.650   0.000  0.00  0.00    +0.000 C 
ATOM     11  C   UNL     1       4.357  -1.492   0.000  0.00  0.00    +0.000 A 
ATOM     12  N   UNL     1       4.842  -0.825   0.000  0.00  0.00    +0.000 NA
ATOM     13  N   UNL     1       4.357  -0.158   0.000  0.00  0.00    +0.000 N 
ENDROOT
BRANCH  13  14
ATOM     14  C   UNL     1       4.612   0.627   0.000  0.00  0.00    +0.000 A 
ATOM     15  C   UNL     1       4.060   1.240   0.000  0.00  0.00    +0.000 A 
ATOM     16  C   UNL     1       4.315   2.025   0.000  0.00  0.00    +0.000 A 
ATOM     17  C   UNL     1       5.122   2.196   0.000  0.00  0.00    +0.000 A 
ATOM     18  F   UNL     1       5.377   2.981   0.000  0.00  0.00    +0.000 F 
ATOM     19  C   UNL     1       5.674   1.583   0.000  0.00  0.00    +0.000 A 
ATOM     20  C   UNL     1       5.419   0.799   0.000  0.00  0.00    +0.000 A 
ENDBRANCH  13  14
BRANCH   1  21
ATOM     21  S   UNL     1       0.000  -1.650   0.000  0.00  0.00    +0.000 S 
ATOM     22  O   UNL     1       0.412  -2.365   0.000  0.00  0.00    +0.000 OA
ATOM     23  O   UNL     1      -0.412  -0.935   0.000  0.00  0.00    +0.000 OA
BRANCH  21  27
ATOM     24  C   UNL     1      -1.943  -3.808   0.000  0.00  0.00    +0.000 C 
ATOM     25  N   UNL     1      -1.608  -3.054   0.000  0.00  0.00    +0.000 N 
ATOM     26  C   UNL     1      -0.801  -2.883   0.000  0.00  0.00    +0.000 A 
ATOM     27  C   UNL     1      -0.715  -2.062   0.000  0.00  0.00    +0.000 A 
ATOM     28  C   UNL     1      -1.468  -1.727   0.000  0.00  0.00    +0.000 A 
ATOM     29  N   UNL     1      -2.020  -2.340   0.000  0.00  0.00    +0.000 NA
ENDBRANCH  21  27
ENDBRANCH   1  21
BRANCH   9  30
ATOM     30  C   UNL     1       2.143  -2.062   0.000  0.00  0.00    +0.000 C 
ATOM     31  O   UNL     1       1.429  -2.475   0.000  0.00  0.00    +0.000 OA
BRANCH  30  32
ATOM     32  C   UNL     1       2.858  -2.475   0.000  0.00  0.00    +0.000 A 
ATOM     33  C   UNL     1       2.858  -3.300   0.000  0.00  0.00    +0.000 A 
ATOM     34  C   UNL     1       3.572  -3.712   0.000  0.00  0.00    +0.000 A 
ATOM     35  C   UNL     1       4.287  -3.300   0.000  0.00  0.00    +0.000 A 
ATOM     36  C   UNL     1       4.287  -2.475   0.000  0.00  0.00    +0.000 A 
ATOM     37  N   UNL     1       3.572  -2.062   0.000  0.00  0.00    +0.000 NA
BRANCH  34  38
ATOM     38  C   UNL     1       3.572  -4.537   0.000  0.00  0.00    +0.000 C 
ATOM     39  F   UNL     1       3.572  -5.362   0.000  0.00  0.00    +0.000 F 
ATOM     40  F   UNL     1       2.747  -4.537   0.000  0.00  0.00    +0.000 F 
ATOM     41  F   UNL     1       4.397  -4.537   0.000  0.00  0.00    +0.000 F 
ENDBRANCH  34  38
ENDBRANCH  30  32
ENDBRANCH   9  30
TORSDOF 6
