REMARK  Name = 
REMARK  5 active torsions:
REMARK  status: ('A' for Active; 'I' for Inactive)
REMARK    1  A    between atoms: C_6  and  CA_8
REMARK    2  A    between atoms: CA_8  and  C_9
REMARK    3  A    between atoms: CA_8  and  N_12
REMARK    4  A    between atoms: C_19  and  C_20
REMARK    5  A    between atoms: C_23  and  C_25
REMARK                            x       y       z     vdW  Elec       q    Type
REMARK                         _______ _______ _______ _____ _____    ______ ____
ROOT
ATOM      1  N   UNL     1      -1.155  -0.173   0.000  0.00  0.00    +0.000 NA
ATOM      2  C   UNL     1      -1.155  -0.998   0.000  0.00  0.00    +0.000 C 
ATOM      3  S   UNL     1      -0.487  -1.483   0.000  0.00  0.00    +0.000 S 
ATOM      4  C   UNL     1      -0.742  -2.268   0.000  0.00  0.00    +0.000 C 
ATOM      5  C   UNL     1      -1.567  -2.268   0.000  0.00  0.00    +0.000 C 
ATOM      6  N   UNL     1      -1.822  -1.483   0.000  0.00  0.00    +0.000 NA
ATOM      7  O   UNL     1      -2.052  -2.935   0.000  0.00  0.00    +0.000 OA
ATOM      8  C   UNL     1      -0.257  -2.935   0.000  0.00  0.00    +0.000 C 
ENDROOT
BRANCH   8   9
ATOM      9  C   UNL     1       0.563  -2.849   0.000  0.00  0.00    +0.000 A 
ATOM     10  C   UNL     1       0.976  -2.135   0.000  0.00  0.00    +0.000 A 
ATOM     11  C   UNL     1       1.783  -2.306   0.000  0.00  0.00    +0.000 A 
ATOM     12  C   UNL     1       1.869  -3.127   0.000  0.00  0.00    +0.000 A 
ATOM     13  O   UNL     1       1.115  -3.462   0.000  0.00  0.00    +0.000 OA
BRANCH  12  14
ATOM     14  C   UNL     1       2.583  -3.539   0.000  0.00  0.00    +0.000 C 
ATOM     15  C   UNL     1       3.298  -3.127   0.000  0.00  0.00    +0.000 C 
ENDBRANCH  12  14
ENDBRANCH   8   9
BRANCH   1  16
ATOM     16  CA  UNL     1      -1.869   0.239   0.000  0.00  0.00    +0.000 C 
BRANCH  16  22
ATOM     17  C   UNL     1      -2.583   1.477   0.000  0.00  0.00    +0.000 A 
ATOM     18  C   UNL     1      -2.583   2.302   0.000  0.00  0.00    +0.000 A 
ATOM     19  C   UNL     1      -1.869   2.714   0.000  0.00  0.00    +0.000 A 
ATOM     20  C   UNL     1      -1.155   2.302   0.000  0.00  0.00    +0.000 A 
ATOM     21  C   UNL     1      -1.155   1.477   0.000  0.00  0.00    +0.000 A 
ATOM     22  C   UNL     1      -1.869   1.064   0.000  0.00  0.00    +0.000 A 
ATOM     23  F   UNL     1      -1.869   3.539   0.000  0.00  0.00    +0.000 F 
ENDBRANCH  16  22
BRANCH  16  24
ATOM     24  C   UNL     1      -2.583  -0.173   0.000  0.00  0.00    +0.000 C 
ATOM     25  O   UNL     1      -2.583  -0.998   0.000  0.00  0.00    +0.000 OA
ATOM     26  OXT UNL     1      -3.298   0.239   0.000  0.00  0.00    +0.000 OA
ENDBRANCH  16  24
ENDBRANCH   1  16
TORSDOF 5
