REMARK  Name = 
REMARK  5 active torsions:
REMARK  status: ('A' for Active; 'I' for Inactive)
REMARK    1  A    between atoms: N_1  and  C_17
REMARK    2  A    between atoms: C_5  and  C_12
REMARK    3  A    between atoms: C_6  and  C_10
REMARK    4  A    between atoms: C_16  and  C_17
REMARK    5  A    between atoms: C_16  and  S_19
REMARK                            x       y       z     vdW  Elec       q    Type
REMARK                         _______ _______ _______ _____ _____    ______ ____
ROOT
ATOM      1  N   UNL     1      -0.770  -0.308   0.000  0.00  0.00    +0.000 N 
ATOM      2  C   UNL     1      -1.255   0.359   0.000  0.00  0.00    +0.000 A 
ATOM      3  C   UNL     1      -0.770   1.026   0.000  0.00  0.00    +0.000 A 
ATOM      4  C   UNL     1       0.014   0.771   0.000  0.00  0.00    +0.000 A 
ATOM      5  C   UNL     1       0.729   1.184   0.000  0.00  0.00    +0.000 A 
ATOM      6  C   UNL     1       1.443   0.771   0.000  0.00  0.00    +0.000 A 
ATOM      7  C   UNL     1       1.443  -0.054   0.000  0.00  0.00    +0.000 A 
ATOM      8  C   UNL     1       0.729  -0.466   0.000  0.00  0.00    +0.000 A 
ATOM      9  C   UNL     1       0.014  -0.054   0.000  0.00  0.00    +0.000 A 
ENDROOT
BRANCH   5  10
ATOM     10  C   UNL     1       0.729   2.009   0.000  0.00  0.00    +0.000 C 
ATOM     11  F   UNL     1       0.729   2.834   0.000  0.00  0.00    +0.000 F 
ATOM     12  F   UNL     1       0.014   2.421   0.000  0.00  0.00    +0.000 F 
ATOM     13  F   UNL     1       1.443   2.421   0.000  0.00  0.00    +0.000 F 
ENDBRANCH   5  10
BRANCH   6  14
ATOM     14  C   UNL     1       2.157   1.184   0.000  0.00  0.00    +0.000 C 
ATOM     15  N   UNL     1       2.872   1.596   0.000  0.00  0.00    +0.000 NA
ENDBRANCH   6  14
BRANCH   1  16
ATOM     16  C   UNL     1      -1.026  -1.093   0.000  0.00  0.00    +0.000 C 
ATOM     17  C   UNL     1      -0.473  -1.706   0.000  0.00  0.00    +0.000 C 
BRANCH  16  18
ATOM     18  C   UNL     1      -1.832  -1.265   0.000  0.00  0.00    +0.000 C 
BRANCH  18  19
ATOM     19  S   UNL     1      -2.087  -2.049   0.000  0.00  0.00    +0.000 S 
ATOM     20  O   UNL     1      -2.872  -1.794   0.000  0.00  0.00    +0.000 OA
ATOM     21  O   UNL     1      -1.303  -2.304   0.000  0.00  0.00    +0.000 OA
ATOM     22  C   UNL     1      -2.342  -2.834   0.000  0.00  0.00    +0.000 C 
ENDBRANCH  18  19
ENDBRANCH  16  18
ENDBRANCH   1  16
TORSDOF 5
