REMARK  Name = 
REMARK  4 active torsions:
REMARK  status: ('A' for Active; 'I' for Inactive)
REMARK    1  A    between atoms: N_4  and  C_7
REMARK    2  A    between atoms: C_7  and  C_8
REMARK    3  A    between atoms: C_8  and  C_9
REMARK    4  A    between atoms: C_9  and  N_10
REMARK                            x       y       z     vdW  Elec       q    Type
REMARK                         _______ _______ _______ _____ _____    ______ ____
ROOT
ATOM      1  C   UNL     1      -0.608   6.003   0.000  0.00  0.00    +0.000 C 
ATOM      2  O   UNL     1       0.107   5.590   0.000  0.00  0.00    +0.000 OA
ENDROOT
BRANCH   1   3
ATOM      3  C   UNL     1      -0.608   6.828   0.000  0.00  0.00    +0.000 C 
BRANCH   3   7
ATOM      4  C   UNL     1       1.536   8.065   0.000  0.00  0.00    +0.000 C 
ATOM      5  C   UNL     1       1.536   7.240   0.000  0.00  0.00    +0.000 C 
ATOM      6  C   UNL     1       0.821   6.828   0.000  0.00  0.00    +0.000 C 
ATOM      7  N   UNL     1       0.107   7.240   0.000  0.00  0.00    +0.000 NA
ATOM      8  C   UNL     1       0.107   8.065   0.000  0.00  0.00    +0.000 C 
ATOM      9  C   UNL     1       0.821   8.478   0.000  0.00  0.00    +0.000 C 
ENDBRANCH   3   7
ENDBRANCH   1   3
BRANCH   1  10
ATOM     10  C   UNL     1      -1.322   5.590   0.000  0.00  0.00    +0.000 C 
BRANCH  10  11
ATOM     11  N   UNL     1      -1.322   4.765   0.000  0.00  0.00    +0.000 N 
ATOM     12  C   UNL     1      -0.655   4.280   0.000  0.00  0.00    +0.000 A 
ATOM     13  C   UNL     1      -0.910   3.496   0.000  0.00  0.00    +0.000 A 
ATOM     14  N   UNL     1      -1.735   3.496   0.000  0.00  0.00    +0.000 NA
ATOM     15  C   UNL     1      -1.990   4.280   0.000  0.00  0.00    +0.000 A 
ATOM     16  N   UNL     1      -2.774   4.535   0.000  0.00  0.00    +0.000 N 
ATOM     17  O   UNL     1      -3.387   3.983   0.000  0.00  0.00    +0.000 OA
ATOM     18  O   UNL     1      -2.946   5.342   0.000  0.00  0.00    +0.000 OA
ENDBRANCH  10  11
ENDBRANCH   1  10
TORSDOF 4
