REMARK  Name = 
REMARK  6 active torsions:
REMARK  status: ('A' for Active; 'I' for Inactive)
REMARK    1  A    between atoms: O_1  and  C_2
REMARK    2  A    between atoms: O_1  and  C_9
REMARK    3  A    between atoms: C_2  and  C_3
REMARK    4  A    between atoms: C_2  and  C_5
REMARK    5  A    between atoms: C_8  and  N_17
REMARK    6  A    between atoms: C_11  and  C_13
REMARK                            x       y       z     vdW  Elec       q    Type
REMARK                         _______ _______ _______ _____ _____    ______ ____
ROOT
ATOM      1  C   UNL     1      -0.375   1.250   0.000  0.00  0.00    +0.000 C 
ATOM      2  C   UNL     1      -0.375   0.425   0.000  0.00  0.00    +0.000 C 
ATOM      3  C   UNL     1       0.375   0.000   0.000  0.00  0.00    +0.000 C 
ATOM      4  C   UNL     1       1.075   0.425   0.000  0.00  0.00    +0.000 C 
ATOM      5  C   UNL     1       1.075   1.250   0.000  0.00  0.00    +0.000 C 
ATOM      6  C   UNL     1       0.375   1.675   0.000  0.00  0.00    +0.000 C 
ATOM      7  N   UNL     1      -1.075   1.675   0.000  0.00  0.00    +0.000 NA
ENDROOT
BRANCH   2   8
ATOM      8  N   UNL     1      -1.075   0.000   0.000  0.00  0.00    +0.000 NA
ATOM      9  C   UNL     1      -1.825   0.425   0.000  0.00  0.00    +0.000 C 
ATOM     10  C   UNL     1      -2.525   0.000   0.000  0.00  0.00    +0.000 C 
ATOM     11  O   UNL     1      -1.825   1.250   0.000  0.00  0.00    +0.000 OA
ENDBRANCH   2   8
BRANCH   5  12
ATOM     12  C   UNL     1       1.800   1.675   0.000  0.00  0.00    +0.000 C 
ATOM     13  O   UNL     1       2.525   1.250   0.000  0.00  0.00    +0.000 OA
ATOM     14  O   UNL     1       1.800   2.500   0.000  0.00  0.00    +0.000 OA
ENDBRANCH   5  12
BRANCH   3  15
ATOM     15  O   UNL     1       0.350  -0.825   0.000  0.00  0.00    +0.000 OA
BRANCH  15  16
ATOM     16  C   UNL     1      -0.375  -1.250   0.000  0.00  0.00    +0.000 C 
BRANCH  16  17
ATOM     17  C   UNL     1      -1.075  -0.825   0.000  0.00  0.00    +0.000 C 
ATOM     18  C   UNL     1      -1.825  -1.250   0.000  0.00  0.00    +0.000 C 
ENDBRANCH  16  17
BRANCH  16  19
ATOM     19  C   UNL     1      -0.375  -2.075   0.000  0.00  0.00    +0.000 C 
ATOM     20  C   UNL     1      -1.100  -2.500   0.000  0.00  0.00    +0.000 C 
ENDBRANCH  16  19
ENDBRANCH  15  16
ENDBRANCH   3  15
TORSDOF 6
