REMARK  Name = 
REMARK  5 active torsions:
REMARK  status: ('A' for Active; 'I' for Inactive)
REMARK    1  A    between atoms: C_2  and  C_3
REMARK    2  A    between atoms: C_3  and  C_4
REMARK    3  A    between atoms: C_4  and  C_5
REMARK    4  A    between atoms: C_5  and  C_6
REMARK    5  A    between atoms: C_6  and  C_7
REMARK                            x       y       z     vdW  Elec       q    Type
REMARK                         _______ _______ _______ _____ _____    ______ ____
ROOT
ATOM      1  C   UNL     1      12.146  -5.362   0.000  0.00  0.00    +0.000 C 
ATOM      2  C   UNL     1      12.861  -4.950   0.000  0.00  0.00    +0.000 C 
ATOM      3  C   UNL     1      12.861  -4.125   0.000  0.00  0.00    +0.000 C 
ATOM      4  C   UNL     1      13.575  -3.712   0.000  0.00  0.00    +0.000 C 
ATOM      5  C   UNL     1      13.575  -2.888   0.000  0.00  0.00    +0.000 C 
ATOM      6  C   UNL     1      14.289  -2.475   0.000  0.00  0.00    +0.000 C 
ATOM      7  C   UNL     1      14.289  -1.650   0.000  0.00  0.00    +0.000 C 
ATOM      8  C   UNL     1      15.004  -1.238   0.000  0.00  0.00    +0.000 C 
ATOM      9  C   UNL     1      15.004  -0.412   0.000  0.00  0.00    +0.000 C 
ATOM     10  C   UNL     1      15.718   0.000   0.000  0.00  0.00    +0.000 C 
ATOM     11  C   UNL     1      16.433  -0.412   0.000  0.00  0.00    +0.000 C 
ATOM     12  C   UNL     1      17.147   0.000   0.000  0.00  0.00    +0.000 C 
ATOM     13  C   UNL     1      17.862  -0.412   0.000  0.00  0.00    +0.000 C 
ATOM     14  C   UNL     1      17.862  -1.238   0.000  0.00  0.00    +0.000 C 
ATOM     15  C   UNL     1      17.147  -1.650   0.000  0.00  0.00    +0.000 C 
ATOM     16  C   UNL     1      17.147  -2.475   0.000  0.00  0.00    +0.000 C 
ATOM     17  C   UNL     1      16.433  -2.888   0.000  0.00  0.00    +0.000 C 
ATOM     18  C   UNL     1      16.433  -3.712   0.000  0.00  0.00    +0.000 C 
ATOM     19  C   UNL     1      15.718  -4.125   0.000  0.00  0.00    +0.000 C 
ATOM     20  C   UNL     1      15.718  -4.950   0.000  0.00  0.00    +0.000 C 
ATOM     21  C   UNL     1      15.004  -5.362   0.000  0.00  0.00    +0.000 C 
ATOM     22  C   UNL     1      15.004  -6.188   0.000  0.00  0.00    +0.000 C 
ATOM     23  C   UNL     1      14.289  -6.600   0.000  0.00  0.00    +0.000 C 
ATOM     24  C   UNL     1      14.289  -7.425   0.000  0.00  0.00    +0.000 C 
ATOM     25  C   UNL     1      13.575  -7.838   0.000  0.00  0.00    +0.000 C 
ATOM     26  C   UNL     1      12.861  -7.425   0.000  0.00  0.00    +0.000 C 
ATOM     27  O   UNL     1      12.861  -6.600   0.000  0.00  0.00    +0.000 OA
ATOM     28  C   UNL     1      12.146  -6.188   0.000  0.00  0.00    +0.000 C 
ATOM     29  O   UNL     1      11.431  -6.600   0.000  0.00  0.00    +0.000 OA
ATOM     30  C   UNL     1      12.146  -7.838   0.000  0.00  0.00    +0.000 C 
ATOM     31  O   UNL     1      13.575  -8.662   0.000  0.00  0.00    +0.000 OA
ATOM     32  C   UNL     1      16.433  -1.238   0.000  0.00  0.00    +0.000 C 
ATOM     33  O   UNL     1      18.576  -1.650   0.000  0.00  0.00    +0.000 OA
ATOM     34  O   UNL     1      18.576   0.000   0.000  0.00  0.00    +0.000 OA
ATOM     35  O   UNL     1      17.147   0.825   0.000  0.00  0.00    +0.000 OA
ATOM     36  O   UNL     1      15.718   0.825   0.000  0.00  0.00    +0.000 OA
ATOM     37  O   UNL     1      15.718  -1.650   0.000  0.00  0.00    +0.000 OA
ATOM     38  O   UNL     1      15.004  -2.888   0.000  0.00  0.00    +0.000 OA
ATOM     39  O   UNL     1      14.289  -4.125   0.000  0.00  0.00    +0.000 OA
ATOM     40  O   UNL     1      13.575  -5.362   0.000  0.00  0.00    +0.000 OA
ENDROOT
BRANCH   1  41
ATOM     41  C   UNL     1      11.431  -4.950   0.000  0.00  0.00    +0.000 C 
ATOM     42  O   UNL     1      11.431  -4.125   0.000  0.00  0.00    +0.000 OA
BRANCH  41  43
ATOM     43  C   UNL     1      10.717  -5.362   0.000  0.00  0.00    +0.000 C 
BRANCH  43  44
ATOM     44  C   UNL     1      10.003  -4.950   0.000  0.00  0.00    +0.000 C 
BRANCH  44  45
ATOM     45  C   UNL     1       9.288  -5.362   0.000  0.00  0.00    +0.000 C 
BRANCH  45  47
ATOM     46  C   UNL     1       7.859  -5.362   0.000  0.00  0.00    +0.000 C 
ATOM     47  C   UNL     1       8.574  -4.950   0.000  0.00  0.00    +0.000 C 
ENDBRANCH  45  47
ENDBRANCH  44  45
ENDBRANCH  43  44
ENDBRANCH  41  43
ENDBRANCH   1  41
TORSDOF 5
