REMARK  Name = 
REMARK  1 active torsions:
REMARK  status: ('A' for Active; 'I' for Inactive)
REMARK    1  A    between atoms: C_3  and  C_8
REMARK                            x       y       z     vdW  Elec       q    Type
REMARK                         _______ _______ _______ _____ _____    ______ ____
ROOT
ATOM      1  C   UNL     1       0.715   0.206   0.000  0.00  0.00    +0.000 A 
ATOM      2  C   UNL     1       0.715  -0.619   0.000  0.00  0.00    +0.000 A 
ATOM      3  C   UNL     1       0.000   0.619   0.000  0.00  0.00    +0.000 A 
ATOM      4  C   UNL     1       0.000  -1.031   0.000  0.00  0.00    +0.000 A 
ATOM      5  C   UNL     1      -0.715   0.206   0.000  0.00  0.00    +0.000 A 
ATOM      6  C   UNL     1      -0.715  -0.619   0.000  0.00  0.00    +0.000 A 
ATOM      7  N   UNL     1       0.000  -1.856   0.000  0.00  0.00    +0.000 NA
ENDROOT
BRANCH   3   8
ATOM      8  C   UNL     1       0.000   1.444   0.000  0.00  0.00    +0.000 C 
ATOM      9  C   UNL     1       0.714   1.856   0.000  0.00  0.00    +0.000 C 
ATOM     10  C   UNL     1      -0.715   1.856   0.000  0.00  0.00    +0.000 C 
ENDBRANCH   3   8
TORSDOF 1
