REMARK  Name = 
REMARK  13 active torsions:
REMARK  status: ('A' for Active; 'I' for Inactive)
REMARK    1  A    between atoms: C_2  and  C_3
REMARK    2  A    between atoms: C_3  and  C_4
REMARK    3  A    between atoms: C_5  and  O_6
REMARK    4  A    between atoms: C_8  and  C_33
REMARK    5  A    between atoms: C_11  and  O_12
REMARK    6  A    between atoms: O_12  and  C_13
REMARK    7  A    between atoms: C_13  and  C_14
REMARK    8  A    between atoms: C_14  and  C_15
REMARK    9  A    between atoms: C_15  and  O_16
REMARK   10  A    between atoms: O_16  and  C_17
REMARK   11  A    between atoms: C_23  and  C_30
REMARK   12  A    between atoms: C_26  and  C_27
REMARK   13  A    between atoms: C_27  and  C_28
REMARK                            x       y       z     vdW  Elec       q    Type
REMARK                         _______ _______ _______ _____ _____    ______ ____
ROOT
ATOM      1  C   UNL     1       7.859  -2.062   0.000  0.00  0.00    +0.000 C 
ENDROOT
BRANCH   1   2
ATOM      2  O   UNL     1       8.574  -1.650   0.000  0.00  0.00    +0.000 OA
BRANCH   2   3
ATOM      3  C   UNL     1       9.288  -2.062   0.000  0.00  0.00    +0.000 A 
ATOM      4  C   UNL     1      10.003  -1.650   0.000  0.00  0.00    +0.000 A 
ATOM      5  C   UNL     1      10.717  -2.062   0.000  0.00  0.00    +0.000 A 
ATOM      6  C   UNL     1      10.717  -2.888   0.000  0.00  0.00    +0.000 A 
ATOM      7  C   UNL     1      11.431  -3.300   0.000  0.00  0.00    +0.000 C 
ATOM      8  C   UNL     1      11.431  -4.125   0.000  0.00  0.00    +0.000 C 
ATOM      9  C   UNL     1      10.717  -4.537   0.000  0.00  0.00    +0.000 C 
ATOM     10  O   UNL     1      10.003  -4.125   0.000  0.00  0.00    +0.000 OA
ATOM     11  C   UNL     1      10.003  -3.300   0.000  0.00  0.00    +0.000 A 
ATOM     12  C   UNL     1       9.288  -2.888   0.000  0.00  0.00    +0.000 A 
BRANCH   9  13
ATOM     13  C   UNL     1      10.717  -5.362   0.000  0.00  0.00    +0.000 C 
ATOM     14  O   UNL     1      11.431  -5.775   0.000  0.00  0.00    +0.000 OA
ATOM     15  O   UNL     1      10.003  -5.775   0.000  0.00  0.00    +0.000 OA
ENDBRANCH   9  13
BRANCH  12  16
ATOM     16  C   UNL     1       8.574  -3.300   0.000  0.00  0.00    +0.000 C 
BRANCH  16  17
ATOM     17  C   UNL     1       8.574  -4.125   0.000  0.00  0.00    +0.000 C 
ATOM     18  C   UNL     1       7.859  -4.537   0.000  0.00  0.00    +0.000 C 
ENDBRANCH  16  17
ENDBRANCH  12  16
ENDBRANCH   2   3
ENDBRANCH   1   2
BRANCH   1  19
ATOM     19  C   UNL     1       7.145  -1.650   0.000  0.00  0.00    +0.000 C 
BRANCH  19  20
ATOM     20  C   UNL     1       6.430  -2.062   0.000  0.00  0.00    +0.000 C 
BRANCH  20  21
ATOM     21  O   UNL     1       5.716  -1.650   0.000  0.00  0.00    +0.000 OA
BRANCH  21  27
ATOM     22  C   UNL     1       5.001  -2.888   0.000  0.00  0.00    +0.000 A 
ATOM     23  C   UNL     1       4.287  -3.300   0.000  0.00  0.00    +0.000 A 
ATOM     24  C   UNL     1       3.572  -2.888   0.000  0.00  0.00    +0.000 A 
ATOM     25  C   UNL     1       3.572  -2.062   0.000  0.00  0.00    +0.000 A 
ATOM     26  C   UNL     1       4.287  -1.650   0.000  0.00  0.00    +0.000 A 
ATOM     27  C   UNL     1       5.001  -2.062   0.000  0.00  0.00    +0.000 A 
BRANCH  24  28
ATOM     28  C   UNL     1       2.858  -3.300   0.000  0.00  0.00    +0.000 C 
ATOM     29  C   UNL     1       2.143  -2.888   0.000  0.00  0.00    +0.000 C 
ATOM     30  O   UNL     1       2.858  -4.125   0.000  0.00  0.00    +0.000 OA
ENDBRANCH  24  28
BRANCH  23  31
ATOM     31  O   UNL     1       4.287  -4.125   0.000  0.00  0.00    +0.000 OA
ATOM     32  C   UNL     1       3.572  -4.537   0.000  0.00  0.00    +0.000 C 
ENDBRANCH  23  31
BRANCH  22  33
ATOM     33  C   UNL     1       5.716  -3.300   0.000  0.00  0.00    +0.000 C 
BRANCH  33  35
ATOM     34  C   UNL     1       7.145  -3.300   0.000  0.00  0.00    +0.000 C 
ATOM     35  C   UNL     1       6.430  -2.888   0.000  0.00  0.00    +0.000 C 
ENDBRANCH  33  35
ENDBRANCH  22  33
ENDBRANCH  21  27
ENDBRANCH  20  21
ENDBRANCH  19  20
ENDBRANCH   1  19
TORSDOF 13
