REMARK  Name = 
REMARK  9 active torsions:
REMARK  status: ('A' for Active; 'I' for Inactive)
REMARK    1  A    between atoms: C_5  and  C_7
REMARK    2  A    between atoms: C_7  and  C_8
REMARK    3  A    between atoms: C_8  and  N_9
REMARK    4  A    between atoms: N_9  and  C_10
REMARK    5  A    between atoms: C_10  and  C_11
REMARK    6  A    between atoms: C_11  and  C_12
REMARK    7  A    between atoms: C_15  and  N_18
REMARK    8  A    between atoms: C_19  and  C_22
REMARK    9  A    between atoms: C_22  and  C_23
REMARK                            x       y       z     vdW  Elec       q    Type
REMARK                         _______ _______ _______ _____ _____    ______ ____
ROOT
ATOM      1  C   UNL     1      15.239 -18.676   0.000  0.00  0.00    +0.000 A 
ATOM      2  C   UNL     1      15.239 -17.847   0.000  0.00  0.00    +0.000 A 
ATOM      3  C   UNL     1      15.984 -17.433   0.000  0.00  0.00    +0.000 A 
ATOM      4  C   UNL     1      16.688 -17.847   0.000  0.00  0.00    +0.000 A 
ATOM      5  C   UNL     1      16.688 -18.676   0.000  0.00  0.00    +0.000 A 
ATOM      6  C   UNL     1      15.984 -19.090   0.000  0.00  0.00    +0.000 A 
ENDROOT
BRANCH   4   7
ATOM      7  N   UNL     1      17.392 -17.433   0.000  0.00  0.00    +0.000 NA
ATOM      8  C   UNL     1      18.096 -17.847   0.000  0.00  0.00    +0.000 C 
ATOM      9  O   UNL     1      18.096 -18.676   0.000  0.00  0.00    +0.000 OA
BRANCH   8  10
ATOM     10  C   UNL     1      18.815 -17.436   0.000  0.00  0.00    +0.000 C 
BRANCH  10  11
ATOM     11  C   UNL     1      19.518 -17.846   0.000  0.00  0.00    +0.000 A 
ATOM     12  C   UNL     1      19.767 -18.633   0.000  0.00  0.00    +0.000 A 
ATOM     13  S   UNL     1      20.595 -18.640   0.000  0.00  0.00    +0.000 S 
ATOM     14  C   UNL     1      20.857 -17.854   0.000  0.00  0.00    +0.000 A 
ATOM     15  N   UNL     1      20.191 -17.362   0.000  0.00  0.00    +0.000 NA
ATOM     16  N   UNL     1      21.661 -17.600   0.000  0.00  0.00    +0.000 NA
ENDBRANCH  10  11
ENDBRANCH   8  10
ENDBRANCH   4   7
BRANCH   1  17
ATOM     17  C   UNL     1      14.535 -19.090   0.000  0.00  0.00    +0.000 C 
BRANCH  17  18
ATOM     18  C   UNL     1      13.831 -18.676   0.000  0.00  0.00    +0.000 C 
BRANCH  18  19
ATOM     19  N   UNL     1      13.127 -19.090   0.000  0.00  0.00    +0.000 NA
BRANCH  19  20
ATOM     20  C   UNL     1      12.423 -18.676   0.000  0.00  0.00    +0.000 C 
BRANCH  20  21
ATOM     21  C   UNL     1      11.719 -19.090   0.000  0.00  0.00    +0.000 C 
ATOM     22  O   UNL     1      11.719 -19.918   0.000  0.00  0.00    +0.000 OA
BRANCH  21  27
ATOM     23  C   UNL     1       9.566 -18.676   0.000  0.00  0.00    +0.000 A 
ATOM     24  C   UNL     1       9.566 -17.847   0.000  0.00  0.00    +0.000 A 
ATOM     25  C   UNL     1      10.270 -17.433   0.000  0.00  0.00    +0.000 A 
ATOM     26  C   UNL     1      11.015 -17.847   0.000  0.00  0.00    +0.000 A 
ATOM     27  C   UNL     1      11.015 -18.676   0.000  0.00  0.00    +0.000 A 
ATOM     28  C   UNL     1      10.270 -19.090   0.000  0.00  0.00    +0.000 A 
ENDBRANCH  21  27
ENDBRANCH  20  21
ENDBRANCH  19  20
ENDBRANCH  18  19
ENDBRANCH  17  18
ENDBRANCH   1  17
TORSDOF 9
