REMARK  Name = 
REMARK  5 active torsions:
REMARK  status: ('A' for Active; 'I' for Inactive)
REMARK    1  A    between atoms: C_2  and  C_3
REMARK    2  A    between atoms: C_3  and  C_4
REMARK    3  A    between atoms: C_4  and  C_5
REMARK    4  A    between atoms: C_5  and  C_6
REMARK    5  A    between atoms: C_6  and  N_7
REMARK                            x       y       z     vdW  Elec       q    Type
REMARK                         _______ _______ _______ _____ _____    ______ ____
ROOT
ATOM      1  N   UNL     1       5.716  -4.125   0.000  0.00  0.00    +0.000 N 
ATOM      2  C   UNL     1       6.430  -3.712   0.000  0.00  0.00    +0.000 A 
ATOM      3  O   UNL     1       6.430  -2.888   0.000  0.00  0.00    +0.000 OA
ATOM      4  C   UNL     1       7.145  -4.125   0.000  0.00  0.00    +0.000 A 
ATOM      5  C   UNL     1       7.145  -4.950   0.000  0.00  0.00    +0.000 A 
ATOM      6  N   UNL     1       7.929  -5.205   0.000  0.00  0.00    +0.000 NA
ATOM      7  C   UNL     1       8.414  -4.537   0.000  0.00  0.00    +0.000 A 
ATOM      8  N   UNL     1       7.929  -3.870   0.000  0.00  0.00    +0.000 N 
ATOM      9  C   UNL     1       8.184  -3.085   0.000  0.00  0.00    +0.000 C 
ATOM     10  N   UNL     1       6.430  -5.362   0.000  0.00  0.00    +0.000 N 
ATOM     11  C   UNL     1       5.716  -4.950   0.000  0.00  0.00    +0.000 A 
ATOM     12  O   UNL     1       5.001  -5.362   0.000  0.00  0.00    +0.000 OA
ATOM     13  C   UNL     1       6.430  -6.188   0.000  0.00  0.00    +0.000 C 
ENDROOT
BRANCH   1  14
ATOM     14  C   UNL     1       5.001  -3.712   0.000  0.00  0.00    +0.000 C 
BRANCH  14  15
ATOM     15  C   UNL     1       4.287  -4.125   0.000  0.00  0.00    +0.000 C 
BRANCH  15  16
ATOM     16  C   UNL     1       3.572  -3.712   0.000  0.00  0.00    +0.000 C 
BRANCH  16  17
ATOM     17  C   UNL     1       2.858  -4.125   0.000  0.00  0.00    +0.000 C 
BRANCH  17  19
ATOM     18  C   UNL     1       1.429  -4.125   0.000  0.00  0.00    +0.000 C 
ATOM     19  C   UNL     1       2.143  -3.712   0.000  0.00  0.00    +0.000 C 
ATOM     20  O   UNL     1       2.143  -2.888   0.000  0.00  0.00    +0.000 OA
ENDBRANCH  17  19
ENDBRANCH  16  17
ENDBRANCH  15  16
ENDBRANCH  14  15
ENDBRANCH   1  14
TORSDOF 5
