REMARK  Name = 
REMARK  5 active torsions:
REMARK  status: ('A' for Active; 'I' for Inactive)
REMARK    1  A    between atoms: C_14  and  C_17
REMARK    2  A    between atoms: C_14  and  C_20
REMARK    3  A    between atoms: C_17  and  N_21
REMARK    4  A    between atoms: C_18  and  C_20
REMARK    5  A    between atoms: C_19  and  C_20
REMARK                            x       y       z     vdW  Elec       q    Type
REMARK                         _______ _______ _______ _____ _____    ______ ____
ROOT
ATOM      1  C   UNL     1       4.287   3.300   0.000  0.00  0.00    +0.000 C 
ENDROOT
BRANCH   1   7
ATOM      2  C   UNL     1       6.430   4.537   0.000  0.00  0.00    +0.000 A 
ATOM      3  C   UNL     1       5.716   4.950   0.000  0.00  0.00    +0.000 A 
ATOM      4  C   UNL     1       6.430   3.712   0.000  0.00  0.00    +0.000 A 
ATOM      5  C   UNL     1       5.001   4.537   0.000  0.00  0.00    +0.000 A 
ATOM      6  C   UNL     1       5.716   3.300   0.000  0.00  0.00    +0.000 A 
ATOM      7  C   UNL     1       5.001   3.712   0.000  0.00  0.00    +0.000 A 
ENDBRANCH   1   7
BRANCH   1  13
ATOM      8  C   UNL     1       4.287   0.825   0.000  0.00  0.00    +0.000 A 
ATOM      9  C   UNL     1       5.001   1.238   0.000  0.00  0.00    +0.000 A 
ATOM     10  C   UNL     1       3.572   1.238   0.000  0.00  0.00    +0.000 A 
ATOM     11  C   UNL     1       5.001   2.062   0.000  0.00  0.00    +0.000 A 
ATOM     12  C   UNL     1       3.572   2.062   0.000  0.00  0.00    +0.000 A 
ATOM     13  C   UNL     1       4.287   2.475   0.000  0.00  0.00    +0.000 A 
ENDBRANCH   1  13
BRANCH   1  14
ATOM     14  C   UNL     1       3.572   3.712   0.000  0.00  0.00    +0.000 C 
BRANCH  14  15
ATOM     15  C   UNL     1       2.858   3.300   0.000  0.00  0.00    +0.000 C 
BRANCH  15  21
ATOM     16  C   UNL     1       0.715   4.537   0.000  0.00  0.00    +0.000 C 
ATOM     17  C   UNL     1       0.715   3.712   0.000  0.00  0.00    +0.000 C 
ATOM     18  C   UNL     1       1.429   4.950   0.000  0.00  0.00    +0.000 C 
ATOM     19  C   UNL     1       1.429   3.300   0.000  0.00  0.00    +0.000 C 
ATOM     20  C   UNL     1       2.143   4.537   0.000  0.00  0.00    +0.000 C 
ATOM     21  N   UNL     1       2.143   3.712   0.000  0.00  0.00    +0.000 NA
ENDBRANCH  15  21
ENDBRANCH  14  15
ENDBRANCH   1  14
TORSDOF 5
