REMARK  Name = 
REMARK  11 active torsions:
REMARK  status: ('A' for Active; 'I' for Inactive)
REMARK    1  A    between atoms: C_1  and  C_2
REMARK    2  A    between atoms: C_2  and  N_3
REMARK    3  A    between atoms: N_3  and  S_4
REMARK    4  A    between atoms: S_4  and  N_6
REMARK    5  A    between atoms: N_6  and  C_9
REMARK    6  A    between atoms: C_13  and  O_15
REMARK    7  A    between atoms: C_14  and  C_28
REMARK    8  A    between atoms: O_15  and  C_16
REMARK    9  A    between atoms: C_16  and  C_17
REMARK   10  A    between atoms: C_17  and  O_18
REMARK   11  A    between atoms: O_18  and  C_20
REMARK                            x       y       z     vdW  Elec       q    Type
REMARK                         _______ _______ _______ _____ _____    ______ ____
ROOT
ATOM      1  C   UNL     1      -1.233   0.855   0.000  0.00  0.00    +0.000 A 
ATOM      2  N   UNL     1      -1.948   0.443   0.000  0.00  0.00    +0.000 NA
ATOM      3  C   UNL     1      -1.948  -0.382   0.000  0.00  0.00    +0.000 A 
ATOM      4  N   UNL     1      -1.233  -0.795   0.000  0.00  0.00    +0.000 NA
ATOM      5  C   UNL     1      -0.519  -0.382   0.000  0.00  0.00    +0.000 A 
ATOM      6  C   UNL     1      -0.519   0.443   0.000  0.00  0.00    +0.000 A 
ENDROOT
BRANCH   6   9
ATOM      7  C   UNL     1       0.910   2.093   0.000  0.00  0.00    +0.000 A 
ATOM      8  C   UNL     1       0.196   1.680   0.000  0.00  0.00    +0.000 A 
ATOM      9  C   UNL     1       0.196   0.855   0.000  0.00  0.00    +0.000 A 
ATOM     10  C   UNL     1       0.910   0.443   0.000  0.00  0.00    +0.000 A 
ATOM     11  C   UNL     1       1.625   0.855   0.000  0.00  0.00    +0.000 A 
ATOM     12  C   UNL     1       1.625   1.680   0.000  0.00  0.00    +0.000 A 
ATOM     13 BR   UNL     1       2.339   2.093   0.000  0.00  0.00    +0.000 Br
ENDBRANCH   6   9
BRANCH   1  14
ATOM     14  N   UNL     1      -1.232   1.595   0.000  0.00  0.00    +0.000 NA
BRANCH  14  15
ATOM     15  S   UNL     1      -1.830   1.863   0.000  0.00  0.00    +0.000 S 
ATOM     16  O   UNL     1      -2.319   2.419   0.000  0.00  0.00    +0.000 OA
ATOM     17  O   UNL     1      -1.341   2.528   0.000  0.00  0.00    +0.000 OA
BRANCH  15  18
ATOM     18  N   UNL     1      -2.544   1.451   0.000  0.00  0.00    +0.000 NA
BRANCH  18  19
ATOM     19  C   UNL     1      -3.259   1.863   0.000  0.00  0.00    +0.000 C 
BRANCH  19  20
ATOM     20  C   UNL     1      -3.973   1.451   0.000  0.00  0.00    +0.000 C 
ATOM     21  C   UNL     1      -4.688   1.863   0.000  0.00  0.00    +0.000 C 
ENDBRANCH  19  20
ENDBRANCH  18  19
ENDBRANCH  15  18
ENDBRANCH  14  15
ENDBRANCH   1  14
BRANCH   5  22
ATOM     22  O   UNL     1       0.196  -0.795   0.000  0.00  0.00    +0.000 OA
BRANCH  22  23
ATOM     23  C   UNL     1       0.910  -0.382   0.000  0.00  0.00    +0.000 C 
BRANCH  23  24
ATOM     24  C   UNL     1       1.625  -0.795   0.000  0.00  0.00    +0.000 C 
BRANCH  24  25
ATOM     25  O   UNL     1       2.339  -0.382   0.000  0.00  0.00    +0.000 OA
BRANCH  25  27
ATOM     26  N   UNL     1       3.768  -0.382   0.000  0.00  0.00    +0.000 NA
ATOM     27  C   UNL     1       3.054  -0.795   0.000  0.00  0.00    +0.000 A 
ATOM     28  N   UNL     1       3.054  -1.620   0.000  0.00  0.00    +0.000 NA
ATOM     29  C   UNL     1       3.768  -2.032   0.000  0.00  0.00    +0.000 A 
ATOM     30  C   UNL     1       4.482  -1.620   0.000  0.00  0.00    +0.000 A 
ATOM     31  C   UNL     1       4.482  -0.795   0.000  0.00  0.00    +0.000 A 
ATOM     32 BR   UNL     1       5.236  -1.955   0.000  0.00  0.00    +0.000 Br
ENDBRANCH  25  27
ENDBRANCH  24  25
ENDBRANCH  23  24
ENDBRANCH  22  23
ENDBRANCH   5  22
TORSDOF 11
