REMARK  Name = 
REMARK  3 active torsions:
REMARK  status: ('A' for Active; 'I' for Inactive)
REMARK    1  A    between atoms: N_8  and  C_14
REMARK    2  A    between atoms: C_13  and  C_15
REMARK    3  A    between atoms: C_17  and  C_18
REMARK                            x       y       z     vdW  Elec       q    Type
REMARK                         _______ _______ _______ _____ _____    ______ ____
ROOT
ATOM      1  O   UNL     1       1.072  -0.412   0.000  0.00  0.00    +0.000 OA
ATOM      2  O   UNL     1       1.786   0.825   0.000  0.00  0.00    +0.000 OA
ATOM      3  N   UNL     1      -0.357  -0.412   0.000  0.00  0.00    +0.000 N 
ATOM      4  N   UNL     1       0.357   0.825   0.000  0.00  0.00    +0.000 N 
ATOM      5  C   UNL     1       0.357   0.000   0.000  0.00  0.00    +0.000 C 
ATOM      6  C   UNL     1       1.072   1.238   0.000  0.00  0.00    +0.000 C 
ATOM      7  H   UNL     1      -0.800  -0.157   0.000  0.00  0.00    +0.000 HD
ATOM      8  H   UNL     1      -0.086   1.081   0.000  0.00  0.00    +0.000 HD
ENDROOT
BRANCH   3  17
ATOM      9  O   UNL     1       0.357  -1.650   0.000  0.00  0.00    +0.000 OA
ATOM     10  O   UNL     1      -1.786  -2.888   0.000  0.00  0.00    +0.000 OA
ATOM     11  O   UNL     1      -0.357  -3.712   0.000  0.00  0.00    +0.000 OA
ATOM     12  O   UNL     1      -1.786  -1.238   0.000  0.00  0.00    +0.000 OA
ATOM     13  C   UNL     1      -1.072  -2.475   0.000  0.00  0.00    +0.000 C 
ATOM     14  C   UNL     1      -0.357  -2.888   0.000  0.00  0.00    +0.000 C 
ATOM     15  C   UNL     1      -1.072  -1.650   0.000  0.00  0.00    +0.000 C 
ATOM     16  C   UNL     1       0.357  -2.475   0.000  0.00  0.00    +0.000 C 
ATOM     17  C   UNL     1      -0.357  -1.238   0.000  0.00  0.00    +0.000 C 
BRANCH  16  19
ATOM     18  O   UNL     1       1.786  -2.475   0.000  0.00  0.00    +0.000 OA
ATOM     19  C   UNL     1       1.072  -2.888   0.000  0.00  0.00    +0.000 C 
ENDBRANCH  16  19
ENDBRANCH   3  17
BRANCH   6  20
ATOM     20  C   UNL     1       1.072   2.062   0.000  0.00  0.00    +0.000 A 
ATOM     21  C   UNL     1       0.357   2.475   0.000  0.00  0.00    +0.000 A 
ATOM     22  C   UNL     1       1.786   2.475   0.000  0.00  0.00    +0.000 A 
ATOM     23  C   UNL     1       0.357   3.300   0.000  0.00  0.00    +0.000 A 
ATOM     24  C   UNL     1       1.786   3.300   0.000  0.00  0.00    +0.000 A 
ATOM     25  C   UNL     1       1.072   3.712   0.000  0.00  0.00    +0.000 A 
ENDBRANCH   6  20
TORSDOF 3
