REMARK  Name = 
REMARK  7 active torsions:
REMARK  status: ('A' for Active; 'I' for Inactive)
REMARK    1  A    between atoms: O_7  and  N_10
REMARK    2  A    between atoms: N_9  and  CA_16
REMARK    3  A    between atoms: CA_14  and  C_19
REMARK    4  A    between atoms: C_15  and  CA_16
REMARK    5  A    between atoms: CA_16  and  C_20
REMARK    6  A    between atoms: C_21  and  C_22
REMARK    7  A    between atoms: C_22  and  C_23
REMARK                            x       y       z     vdW  Elec       q    Type
REMARK                         _______ _______ _______ _____ _____    ______ ____
ROOT
ATOM      1  O   UNL     1       0.680  -1.189   0.000  0.00  0.00    +0.000 OA
ATOM      2  N   UNL     1      -0.276  -0.127   0.000  0.00  0.00    +0.000 N 
ATOM      3  C   UNL     1       0.509  -0.382   0.000  0.00  0.00    +0.000 C 
ATOM      4  H   UNL     1      -0.382   0.373   0.000  0.00  0.00    +0.000 HD
ENDROOT
BRANCH   3   6
ATOM      5  N   UNL     1       0.950   0.977   0.000  0.00  0.00    +0.000 NA
ATOM      6  C   UNL     1       1.122   0.170   0.000  0.00  0.00    +0.000 C 
BRANCH   6  10
ATOM      7  S   UNL     1       2.986  -0.870   0.000  0.00  0.00    +0.000 S 
ATOM      8  N   UNL     1       2.574   0.400   0.000  0.00  0.00    +0.000 NA
ATOM      9  N   UNL     1       4.026   0.170   0.000  0.00  0.00    +0.000 N 
ATOM     10  C   UNL     1       1.906  -0.085   0.000  0.00  0.00    +0.000 A 
ATOM     11  C   UNL     1       2.161  -0.870   0.000  0.00  0.00    +0.000 A 
ATOM     12  C   UNL     1       3.241  -0.085   0.000  0.00  0.00    +0.000 A 
ATOM     13  H   UNL     1       4.132   0.670   0.000  0.00  0.00    +0.000 HD
ATOM     14  H   UNL     1       4.406  -0.173   0.000  0.00  0.00    +0.000 HD
ENDBRANCH   6  10
BRANCH   5  15
ATOM     15  O   UNL     1       0.166   1.232   0.000  0.00  0.00    +0.000 OA
ATOM     16  C   UNL     1      -0.006   2.038   0.000  0.00  0.00    +0.000 C 
ENDBRANCH   5  15
ENDBRANCH   3   6
BRANCH   2  17
ATOM     17  CA  UNL     1      -0.889  -0.679   0.000  0.00  0.00    +0.000 C 
BRANCH  17  22
ATOM     18  S   UNL     1      -1.929   0.360   0.000  0.00  0.00    +0.000 S 
ATOM     19  N   UNL     1      -2.341  -0.909   0.000  0.00  0.00    +0.000 NA
ATOM     20  C   UNL     1      -2.753   0.360   0.000  0.00  0.00    +0.000 C 
ATOM     21  CA  UNL     1      -3.008  -0.424   0.000  0.00  0.00    +0.000 C 
ATOM     22  C   UNL     1      -1.673  -0.424   0.000  0.00  0.00    +0.000 C 
ATOM     23  C   UNL     1      -3.538   0.615   0.000  0.00  0.00    +0.000 C 
ATOM     24  C   UNL     1      -2.753   1.185   0.000  0.00  0.00    +0.000 C 
ATOM     25  H   UNL     1      -2.341  -1.421   0.000  0.00  0.00    +0.000 HD
BRANCH  21  28
ATOM     26  O   UNL     1      -3.965  -1.486   0.000  0.00  0.00    +0.000 OA
ATOM     27  OXT UNL     1      -4.406  -0.127   0.000  0.00  0.00    +0.000 OA
ATOM     28  C   UNL     1      -3.793  -0.679   0.000  0.00  0.00    +0.000 C 
ENDBRANCH  21  28
ENDBRANCH  17  22
BRANCH  17  30
ATOM     29  O   UNL     1      -1.330  -2.038   0.000  0.00  0.00    +0.000 OA
ATOM     30  C   UNL     1      -0.717  -1.486   0.000  0.00  0.00    +0.000 C 
ENDBRANCH  17  30
ENDBRANCH   2  17
TORSDOF 7
