REMARK  Name = 
REMARK  6 active torsions:
REMARK  status: ('A' for Active; 'I' for Inactive)
REMARK    1  A    between atoms: C_15  and  C_16
REMARK    2  A    between atoms: C_15  and  C_17
REMARK    3  A    between atoms: C_15  and  O_18
REMARK    4  A    between atoms: O_18  and  C_23
REMARK    5  A    between atoms: C_23  and  C_28
REMARK    6  A    between atoms: C_28  and  N_31
REMARK                            x       y       z     vdW  Elec       q    Type
REMARK                         _______ _______ _______ _____ _____    ______ ____
ROOT
ATOM      1  C   UNL     1       2.937   0.487   0.000  0.00  0.00    +0.000 A 
ATOM      2  C   UNL     1       2.937  -0.452   0.000  0.00  0.00    +0.000 A 
ATOM      3  C   UNL     1       2.205   0.904   0.000  0.00  0.00    +0.000 A 
ATOM      4  N   UNL     1       3.676   0.749   0.000  0.00  0.00    +0.000 NA
ATOM      5  N   UNL     1       2.192  -0.897   0.000  0.00  0.00    +0.000 N 
ATOM      6  N   UNL     1       3.689  -0.711   0.000  0.00  0.00    +0.000 NA
ATOM      7  N   UNL     1       1.415   0.449   0.000  0.00  0.00    +0.000 N 
ATOM      8  O   UNL     1       2.205   1.750   0.000  0.00  0.00    +0.000 OA
ATOM      9  C   UNL     1       4.207   0.048   0.000  0.00  0.00    +0.000 A 
ATOM     10  C   UNL     1       1.415  -0.452   0.000  0.00  0.00    +0.000 A 
ATOM     11  C   UNL     1       2.205  -1.736   0.000  0.00  0.00    +0.000 C 
ATOM     12  C   UNL     1       0.687   0.852   0.000  0.00  0.00    +0.000 C 
ATOM     13 CL   UNL     1       5.053   0.052   0.000  0.00  0.00    +0.000 Cl
ATOM     14  O   UNL     1       0.690  -0.890   0.000  0.00  0.00    +0.000 OA
ENDROOT
TORSDOF 0
REMARK  Name = 
REMARK  6 active torsions:
REMARK  status: ('A' for Active; 'I' for Inactive)
REMARK    1  A    between atoms: C_15  and  C_16
REMARK    2  A    between atoms: C_15  and  C_17
REMARK    3  A    between atoms: C_15  and  O_18
REMARK    4  A    between atoms: O_18  and  C_23
REMARK    5  A    between atoms: C_23  and  C_28
REMARK    6  A    between atoms: C_28  and  N_31
REMARK                            x       y       z     vdW  Elec       q    Type
REMARK                         _______ _______ _______ _____ _____    ______ ____
ROOT
ATOM      1  C   UNL     1      -2.913  -0.828   0.000  0.00  0.00    +0.000 C 
ENDROOT
BRANCH   1   2
ATOM      2  C   UNL     1      -2.188  -1.229   0.000  0.00  0.00    +0.000 A 
ATOM      3  C   UNL     1      -2.212  -2.050   0.000  0.00  0.00    +0.000 A 
ATOM      4  C   UNL     1      -1.467  -0.828   0.000  0.00  0.00    +0.000 A 
ATOM      5  C   UNL     1      -1.488  -2.464   0.000  0.00  0.00    +0.000 A 
ATOM      6  C   UNL     1      -0.766  -1.249   0.000  0.00  0.00    +0.000 A 
ATOM      7  C   UNL     1      -0.766  -2.064   0.000  0.00  0.00    +0.000 A 
ENDBRANCH   1   2
BRANCH   1   8
ATOM      8  C   UNL     1      -3.631  -1.249   0.000  0.00  0.00    +0.000 A 
ATOM      9  C   UNL     1      -3.631  -2.091   0.000  0.00  0.00    +0.000 A 
ATOM     10  C   UNL     1      -4.331  -0.849   0.000  0.00  0.00    +0.000 A 
ATOM     11  C   UNL     1      -4.331  -2.492   0.000  0.00  0.00    +0.000 A 
ATOM     12  C   UNL     1      -5.053  -1.249   0.000  0.00  0.00    +0.000 A 
ATOM     13  C   UNL     1      -5.053  -2.091   0.000  0.00  0.00    +0.000 A 
ENDBRANCH   1   8
BRANCH   1  14
ATOM     14  O   UNL     1      -2.913   0.010   0.000  0.00  0.00    +0.000 OA
BRANCH  14  15
ATOM     15  C   UNL     1      -3.631   0.438   0.000  0.00  0.00    +0.000 C 
BRANCH  15  16
ATOM     16  C   UNL     1      -3.631   1.253   0.000  0.00  0.00    +0.000 C 
BRANCH  16  17
ATOM     17  N   UNL     1      -4.331   1.674   0.000  0.00  0.00    +0.000 NA
ATOM     18  C   UNL     1      -4.331   2.492   0.000  0.00  0.00    +0.000 C 
ATOM     19  C   UNL     1      -5.053   1.253   0.000  0.00  0.00    +0.000 C 
ENDBRANCH  16  17
ENDBRANCH  15  16
ENDBRANCH  14  15
ENDBRANCH   1  14
TORSDOF 6
