REMARK  Name = 
REMARK  8 active torsions:
REMARK  status: ('A' for Active; 'I' for Inactive)
REMARK    1  A    between atoms: N_5  and  C_6
REMARK    2  A    between atoms: C_9  and  C_11
REMARK    3  A    between atoms: C_11  and  O_12
REMARK    4  A    between atoms: O_12  and  P_13
REMARK    5  A    between atoms: P_13  and  O_16
REMARK    6  A    between atoms: O_16  and  C_17
REMARK    7  A    between atoms: C_19  and  N_24
REMARK    8  A    between atoms: C_21  and  C_22
REMARK                            x       y       z     vdW  Elec       q    Type
REMARK                         _______ _______ _______ _____ _____    ______ ____
ROOT
ATOM      1  O   UNK     1      -0.696   3.487   0.000  0.00  0.00    +0.000 OA
ENDROOT
BRANCH   1   2
ATOM      2  P   UNK     1      -0.441   4.271   0.000  0.00  0.00    +0.000 P 
ATOM      3  O   UNK     1      -1.225   4.526   0.000  0.00  0.00    +0.000 OA
ATOM      4  O   UNK     1       0.344   4.016   0.000  0.00  0.00    +0.000 OA
BRANCH   2   5
ATOM      5  O   UNK     1      -0.186   5.056   0.000  0.00  0.00    +0.000 OA
BRANCH   5   6
ATOM      6  C   UNK     1      -0.738   5.669   0.000  0.00  0.00    +0.000 C 
ATOM      7  C   UNK     1      -1.558   5.583   0.000  0.00  0.00    +0.000 C 
ATOM      8  C   UNK     1      -1.894   6.337   0.000  0.00  0.00    +0.000 C 
ATOM      9  O   UNK     1      -1.281   6.888   0.000  0.00  0.00    +0.000 OA
ATOM     10  C   UNK     1      -0.566   6.476   0.000  0.00  0.00    +0.000 C 
BRANCH   8  11
ATOM     11  N   UNK     1      -2.701   6.508   0.000  0.00  0.00    +0.000 N 
ATOM     12  C   UNK     1      -3.253   5.895   0.000  0.00  0.00    +0.000 A 
ATOM     13  N   UNK     1      -4.060   6.066   0.000  0.00  0.00    +0.000 NA
ATOM     14  C   UNK     1      -4.315   6.851   0.000  0.00  0.00    +0.000 A 
ATOM     15  N   UNK     1      -3.763   7.464   0.000  0.00  0.00    +0.000 NA
ATOM     16  C   UNK     1      -2.956   7.293   0.000  0.00  0.00    +0.000 A 
ATOM     17  O   UNK     1      -2.404   7.906   0.000  0.00  0.00    +0.000 OA
ATOM     18  N   UNK     1      -5.122   7.023   0.000  0.00  0.00    +0.000 NA
ENDBRANCH   8  11
BRANCH  10  19
ATOM     19  C   UNK     1       0.188   6.812   0.000  0.00  0.00    +0.000 C 
ATOM     20  O   UNK     1       0.855   6.327   0.000  0.00  0.00    +0.000 OA
ENDBRANCH  10  19
ENDBRANCH   5   6
ENDBRANCH   2   5
ENDBRANCH   1   2
BRANCH   1  21
ATOM     21  C   UNK     1      -0.143   2.874   0.000  0.00  0.00    +0.000 C 
BRANCH  21  25
ATOM     22  C   UNK     1      -0.398   0.754   0.000  0.00  0.00    +0.000 C 
ATOM     23  C   UNK     1      -1.183   1.009   0.000  0.00  0.00    +0.000 C 
ATOM     24  C   UNK     1      -1.183   1.834   0.000  0.00  0.00    +0.000 C 
ATOM     25  C   UNK     1      -0.398   2.089   0.000  0.00  0.00    +0.000 C 
ATOM     26  O   UNK     1       0.086   1.422   0.000  0.00  0.00    +0.000 OA
ATOM     27  O   UNK     1      -1.851   2.319   0.000  0.00  0.00    +0.000 OA
BRANCH  22  32
ATOM     28  C   UNK     1      -0.628  -0.698   0.000  0.00  0.00    +0.000 A 
ATOM     29  N   UNK     1      -0.143  -1.365   0.000  0.00  0.00    +0.000 NA
ATOM     30  C   UNK     1       0.641  -1.110   0.000  0.00  0.00    +0.000 A 
ATOM     31  C   UNK     1       0.641  -0.285   0.000  0.00  0.00    +0.000 A 
ATOM     32  N   UNK     1      -0.143  -0.030   0.000  0.00  0.00    +0.000 N 
ATOM     33  N   UNK     1       1.356   0.127   0.000  0.00  0.00    +0.000 NA
ATOM     34  C   UNK     1       2.070  -0.285   0.000  0.00  0.00    +0.000 A 
ATOM     35  N   UNK     1       2.070  -1.110   0.000  0.00  0.00    +0.000 NA
ATOM     36  C   UNK     1       1.356  -1.523   0.000  0.00  0.00    +0.000 A 
ATOM     37  O   UNK     1       1.356  -2.348   0.000  0.00  0.00    +0.000 OA
ATOM     38  N   UNK     1       2.784   0.127   0.000  0.00  0.00    +0.000 NA
ENDBRANCH  22  32
ENDBRANCH  21  25
ENDBRANCH   1  21
TORSDOF 8
