REMARK  Name = 
REMARK  21 active torsions:
REMARK  status: ('A' for Active; 'I' for Inactive)
REMARK    1  A    between atoms: C_1  and  C_2
REMARK    2  A    between atoms: C_2  and  C_3
REMARK    3  A    between atoms: C_2  and  O_24
REMARK    4  A    between atoms: C_3  and  C_4
REMARK    5  A    between atoms: C_4  and  C_5
REMARK    6  A    between atoms: C_5  and  C_6
REMARK    7  A    between atoms: C_5  and  O_8
REMARK    8  A    between atoms: O_8  and  C_9
REMARK    9  A    between atoms: C_9  and  C_10
REMARK   10  A    between atoms: C_17  and  C_18
REMARK   11  A    between atoms: C_17  and  O_24
REMARK   12  A    between atoms: N_26  and  C_28
REMARK   13  A    between atoms: C_28  and  C_29
REMARK   14  A    between atoms: C_28  and  C_32
REMARK   15  A    between atoms: N_34  and  C_43
REMARK   16  A    between atoms: N_35  and  C_36
REMARK   17  A    between atoms: C_36  and  C_37
REMARK   18  A    between atoms: C_36  and  C_40
REMARK   19  A    between atoms: N_42  and  C_50
REMARK   20  A    between atoms: C_43  and  C_44
REMARK   21  A    between atoms: C_50  and  C_51
REMARK                            x       y       z     vdW  Elec       q    Type
REMARK                         _______ _______ _______ _____ _____    ______ ____
ROOT
ATOM      1  C   UNL     1      -0.360   0.210   0.000  0.00  0.00    +0.000 C 
ATOM      2  O   UNL     1      -0.360   1.035   0.000  0.00  0.00    +0.000 OA
ENDROOT
BRANCH   1   3
ATOM      3  C   UNL     1       0.360  -0.210   0.000  0.00  0.00    +0.000 C 
ATOM      4  O   UNL     1       0.360  -1.035   0.000  0.00  0.00    +0.000 OA
BRANCH   3   5
ATOM      5  C   UNL     1       1.065   0.210   0.000  0.00  0.00    +0.000 C 
BRANCH   5   6
ATOM      6  C   UNL     1       1.785  -0.210   0.000  0.00  0.00    +0.000 C 
ATOM      7  O   UNL     1       1.785  -1.035   0.000  0.00  0.00    +0.000 OA
ATOM      8  N   UNL     1       2.505   0.210   0.000  0.00  0.00    +0.000 NA
BRANCH   8   9
ATOM      9  C   UNL     1       3.210  -0.210   0.000  0.00  0.00    +0.000 C 
BRANCH   9  10
ATOM     10  C   UNL     1       3.930   0.210   0.000  0.00  0.00    +0.000 C 
ATOM     11  O   UNL     1       3.930   1.035   0.000  0.00  0.00    +0.000 OA
ATOM     12  N   UNL     1       4.649  -0.210   0.000  0.00  0.00    +0.000 NA
BRANCH  12  13
ATOM     13  C   UNL     1       5.354   0.210   0.000  0.00  0.00    +0.000 C 
BRANCH  13  14
ATOM     14  C   UNL     1       6.074  -0.210   0.000  0.00  0.00    +0.000 A 
ATOM     15  C   UNL     1       6.074  -1.035   0.000  0.00  0.00    +0.000 A 
ATOM     16  C   UNL     1       6.779  -1.440   0.000  0.00  0.00    +0.000 A 
ATOM     17  C   UNL     1       7.499  -1.035   0.000  0.00  0.00    +0.000 A 
ATOM     18  C   UNL     1       7.499  -0.210   0.000  0.00  0.00    +0.000 A 
ATOM     19  N   UNL     1       6.779   0.210   0.000  0.00  0.00    +0.000 NA
ENDBRANCH  13  14
ENDBRANCH  12  13
ENDBRANCH   9  10
BRANCH   9  20
ATOM     20  C   UNL     1       3.210  -1.035   0.000  0.00  0.00    +0.000 C 
ATOM     21  C   UNL     1       2.505  -1.440   0.000  0.00  0.00    +0.000 C 
ATOM     22  C   UNL     1       3.930  -1.440   0.000  0.00  0.00    +0.000 C 
ENDBRANCH   9  20
ENDBRANCH   8   9
ENDBRANCH   5   6
BRANCH   5  23
ATOM     23  O   UNL     1       1.065   1.035   0.000  0.00  0.00    +0.000 OA
BRANCH  23  24
ATOM     24  C   UNL     1       1.785   1.440   0.000  0.00  0.00    +0.000 C 
BRANCH  24  25
ATOM     25  C   UNL     1       1.785   2.265   0.000  0.00  0.00    +0.000 A 
ATOM     26  C   UNL     1       1.785   3.915   0.000  0.00  0.00    +0.000 A 
ATOM     27  C   UNL     1       1.065   3.510   0.000  0.00  0.00    +0.000 A 
ATOM     28  C   UNL     1       1.065   2.685   0.000  0.00  0.00    +0.000 A 
ATOM     29  C   UNL     1       2.505   2.685   0.000  0.00  0.00    +0.000 A 
ATOM     30  C   UNL     1       2.505   3.510   0.000  0.00  0.00    +0.000 A 
ENDBRANCH  24  25
ENDBRANCH  23  24
ENDBRANCH   5  23
ENDBRANCH   3   5
ENDBRANCH   1   3
BRANCH   1  31
ATOM     31  C   UNL     1      -1.065  -0.210   0.000  0.00  0.00    +0.000 C 
BRANCH  31  32
ATOM     32  C   UNL     1      -1.785   0.210   0.000  0.00  0.00    +0.000 C 
ATOM     33  O   UNL     1      -1.785   1.035   0.000  0.00  0.00    +0.000 OA
ATOM     34  N   UNL     1      -2.505  -0.210   0.000  0.00  0.00    +0.000 NA
BRANCH  34  35
ATOM     35  C   UNL     1      -3.210   0.210   0.000  0.00  0.00    +0.000 C 
BRANCH  35  36
ATOM     36  C   UNL     1      -3.930  -0.210   0.000  0.00  0.00    +0.000 C 
ATOM     37  O   UNL     1      -3.930  -1.035   0.000  0.00  0.00    +0.000 OA
ATOM     38  N   UNL     1      -4.649   0.210   0.000  0.00  0.00    +0.000 NA
BRANCH  38  39
ATOM     39  C   UNL     1      -5.354  -0.210   0.000  0.00  0.00    +0.000 C 
BRANCH  39  40
ATOM     40  C   UNL     1      -6.074   0.210   0.000  0.00  0.00    +0.000 A 
ATOM     41  C   UNL     1      -6.779   1.440   0.000  0.00  0.00    +0.000 A 
ATOM     42  C   UNL     1      -7.499   1.035   0.000  0.00  0.00    +0.000 A 
ATOM     43  C   UNL     1      -7.499   0.210   0.000  0.00  0.00    +0.000 A 
ATOM     44  C   UNL     1      -6.074   1.035   0.000  0.00  0.00    +0.000 A 
ATOM     45  N   UNL     1      -6.779  -0.210   0.000  0.00  0.00    +0.000 NA
ENDBRANCH  39  40
ENDBRANCH  38  39
ENDBRANCH  35  36
BRANCH  35  46
ATOM     46  C   UNL     1      -3.210   1.035   0.000  0.00  0.00    +0.000 C 
ATOM     47  C   UNL     1      -2.505   1.440   0.000  0.00  0.00    +0.000 C 
ATOM     48  C   UNL     1      -3.930   1.440   0.000  0.00  0.00    +0.000 C 
ENDBRANCH  35  46
ENDBRANCH  34  35
ENDBRANCH  31  32
BRANCH  31  49
ATOM     49  O   UNL     1      -1.065  -1.035   0.000  0.00  0.00    +0.000 OA
BRANCH  49  50
ATOM     50  C   UNL     1      -1.785  -1.440   0.000  0.00  0.00    +0.000 C 
BRANCH  50  51
ATOM     51  C   UNL     1      -1.785  -2.265   0.000  0.00  0.00    +0.000 A 
ATOM     52  C   UNL     1      -2.505  -2.685   0.000  0.00  0.00    +0.000 A 
ATOM     53  C   UNL     1      -2.505  -3.510   0.000  0.00  0.00    +0.000 A 
ATOM     54  C   UNL     1      -1.785  -3.915   0.000  0.00  0.00    +0.000 A 
ATOM     55  C   UNL     1      -1.065  -3.510   0.000  0.00  0.00    +0.000 A 
ATOM     56  C   UNL     1      -1.065  -2.685   0.000  0.00  0.00    +0.000 A 
ENDBRANCH  50  51
ENDBRANCH  49  50
ENDBRANCH  31  49
ENDBRANCH   1  31
TORSDOF 21
