REMARK  Name = 
REMARK  12 active torsions:
REMARK  status: ('A' for Active; 'I' for Inactive)
REMARK    1  A    between atoms: C_1  and  C_2
REMARK    2  A    between atoms: C_2  and  C_5
REMARK    3  A    between atoms: C_3  and  C_6
REMARK    4  A    between atoms: C_5  and  C_7
REMARK    5  A    between atoms: C_6  and  C_8
REMARK    6  A    between atoms: C_8  and  C_10
REMARK    7  A    between atoms: C_9  and  C_11
REMARK    8  A    between atoms: C_11  and  C_15
REMARK    9  A    between atoms: C_13  and  C_16
REMARK   10  A    between atoms: C_15  and  C_17
REMARK   11  A    between atoms: C_16  and  C_18
REMARK   12  A    between atoms: C_18  and  C_20
REMARK                            x       y       z     vdW  Elec       q    Type
REMARK                         _______ _______ _______ _____ _____    ______ ____
ROOT
ATOM      1  C   UNL     1      -0.007  -0.221   0.000  0.00  0.00    +0.000 C 
ATOM      2  C   UNL     1       0.695  -0.609   0.000  0.00  0.00    +0.000 C 
ATOM      3  C   UNL     1      -0.004   0.609   0.000  0.00  0.00    +0.000 C 
ENDROOT
BRANCH   1   4
ATOM      4  C   UNL     1      -0.698  -0.583   0.000  0.00  0.00    +0.000 C 
BRANCH   4   5
ATOM      5  C   UNL     1      -1.400  -0.177   0.000  0.00  0.00    +0.000 C 
BRANCH   5   6
ATOM      6  C   UNL     1      -2.153  -0.591   0.000  0.00  0.00    +0.000 C 
ATOM      7  C   UNL     1      -2.885  -0.155   0.000  0.00  0.00    +0.000 C 
ATOM      8  C   UNL     1      -2.885   0.674   0.000  0.00  0.00    +0.000 C 
BRANCH   7   9
ATOM      9  C   UNL     1      -3.605  -0.557   0.000  0.00  0.00    +0.000 C 
BRANCH   9  10
ATOM     10  C   UNL     1      -4.343  -0.115   0.000  0.00  0.00    +0.000 C 
BRANCH  10  11
ATOM     11  C   UNL     1      -5.056  -0.517   0.000  0.00  0.00    +0.000 C 
ATOM     12  C   UNL     1      -5.769  -0.115   0.000  0.00  0.00    +0.000 C 
ATOM     13  C   UNL     1      -6.508  -0.495   0.000  0.00  0.00    +0.000 C 
ATOM     14  C   UNL     1      -5.780   0.707   0.000  0.00  0.00    +0.000 C 
ENDBRANCH  10  11
ENDBRANCH   9  10
ENDBRANCH   7   9
ENDBRANCH   5   6
ENDBRANCH   4   5
ENDBRANCH   1   4
BRANCH   2  15
ATOM     15  C   UNL     1       1.422  -0.221   0.000  0.00  0.00    +0.000 C 
BRANCH  15  16
ATOM     16  C   UNL     1       2.113  -0.623   0.000  0.00  0.00    +0.000 C 
BRANCH  16  17
ATOM     17  C   UNL     1       2.844  -0.251   0.000  0.00  0.00    +0.000 C 
ATOM     18  C   UNL     1       3.590  -0.674   0.000  0.00  0.00    +0.000 C 
ATOM     19  C   UNL     1       2.844   0.546   0.000  0.00  0.00    +0.000 C 
BRANCH  18  20
ATOM     20  C   UNL     1       4.340  -0.251   0.000  0.00  0.00    +0.000 C 
BRANCH  20  21
ATOM     21  C   UNL     1       5.001  -0.707   0.000  0.00  0.00    +0.000 C 
BRANCH  21  22
ATOM     22  C   UNL     1       5.732  -0.316   0.000  0.00  0.00    +0.000 C 
ATOM     23  C   UNL     1       6.508  -0.674   0.000  0.00  0.00    +0.000 C 
ATOM     24  O   UNL     1       5.740   0.539   0.000  0.00  0.00    +0.000 OA
ENDBRANCH  21  22
ENDBRANCH  20  21
ENDBRANCH  18  20
ENDBRANCH  16  17
ENDBRANCH  15  16
ENDBRANCH   2  15
TORSDOF 12
