REMARK  Name = 
REMARK  6 active torsions:
REMARK  status: ('A' for Active; 'I' for Inactive)
REMARK    1  A    between atoms: C_2  and  O_3
REMARK    2  A    between atoms: O_3  and  C_4
REMARK    3  A    between atoms: C_4  and  C_6
REMARK    4  A    between atoms: C_6  and  C_17
REMARK    5  A    between atoms: C_7  and  C_8
REMARK    6  A    between atoms: C_11  and  N_14
REMARK                            x       y       z     vdW  Elec       q    Type
REMARK                         _______ _______ _______ _____ _____    ______ ____
ROOT
ATOM      1  C   UNL     1       1.282   2.352   0.000  0.00  0.00    +0.000 C 
ATOM      2  C   UNL     1       0.568   1.939   0.000  0.00  0.00    +0.000 C 
ENDROOT
BRANCH   2   3
ATOM      3  C   UNL     1       0.568   1.114   0.000  0.00  0.00    +0.000 A 
ATOM      4  N   UNL     1       1.235   0.629   0.000  0.00  0.00    +0.000 NA
ATOM      5  C   UNL     1       0.980  -0.155   0.000  0.00  0.00    +0.000 A 
ATOM      6  C   UNL     1       0.155  -0.155   0.000  0.00  0.00    +0.000 A 
ATOM      7  N   UNL     1      -0.100   0.629   0.000  0.00  0.00    +0.000 N 
ATOM      8  C   UNL     1      -0.884   0.884   0.000  0.00  0.00    +0.000 C 
BRANCH   6   9
ATOM      9  N   UNL     1      -0.330  -0.823   0.000  0.00  0.00    +0.000 N 
ATOM     10  O   UNL     1       0.006  -1.576   0.000  0.00  0.00    +0.000 OA
ATOM     11  O   UNL     1      -1.150  -0.737   0.000  0.00  0.00    +0.000 OA
ENDBRANCH   6   9
ENDBRANCH   2   3
BRANCH   1  12
ATOM     12  C   UNL     1       1.997   1.939   0.000  0.00  0.00    +0.000 C 
ATOM     13  O   UNL     1       1.997   1.114   0.000  0.00  0.00    +0.000 OA
ATOM     14  C   UNL     1       2.711   2.352   0.000  0.00  0.00    +0.000 C 
ENDBRANCH   1  12
BRANCH   1  15
ATOM     15  C   UNL     1       1.282   3.177   0.000  0.00  0.00    +0.000 C 
ATOM     16  O   UNL     1       0.568   3.589   0.000  0.00  0.00    +0.000 OA
BRANCH  15  17
ATOM     17  O   UNL     1       1.997   3.589   0.000  0.00  0.00    +0.000 OA
BRANCH  17  19
ATOM     18  C   UNL     1       2.711   4.827   0.000  0.00  0.00    +0.000 C 
ATOM     19  C   UNL     1       1.997   4.414   0.000  0.00  0.00    +0.000 C 
ENDBRANCH  17  19
ENDBRANCH  15  17
ENDBRANCH   1  15
TORSDOF 6
