REMARK  Name = 
REMARK  4 active torsions:
REMARK  status: ('A' for Active; 'I' for Inactive)
REMARK    1  A    between atoms: P_1  and  O_2
REMARK    2  A    between atoms: O_2  and  C_14
REMARK    3  A    between atoms: C_7  and  C_8
REMARK    4  A    between atoms: C_8  and  C_15
REMARK                            x       y       z     vdW  Elec       q    Type
REMARK                         _______ _______ _______ _____ _____    ______ ____
ROOT
ATOM      1  C   UNL     1      -0.357   0.000   0.000  0.00  0.00    +0.000 C 
ATOM      2  C   UNL     1       0.357   0.412   0.000  0.00  0.00    +0.000 C 
ENDROOT
BRANCH   1   3
ATOM      3  C   UNL     1      -0.357  -0.825   0.000  0.00  0.00    +0.000 A 
ATOM      4  C   UNL     1       0.357  -1.238   0.000  0.00  0.00    +0.000 A 
ATOM      5  C   UNL     1      -1.072  -1.238   0.000  0.00  0.00    +0.000 A 
ATOM      6  C   UNL     1       0.357  -2.062   0.000  0.00  0.00    +0.000 A 
ATOM      7  C   UNL     1      -1.072  -2.062   0.000  0.00  0.00    +0.000 A 
ATOM      8  C   UNL     1      -0.357  -2.475   0.000  0.00  0.00    +0.000 A 
ENDBRANCH   1   3
BRANCH   1  11
ATOM      9  O   UNL     1      -1.072   1.238   0.000  0.00  0.00    +0.000 OA
ATOM     10  O   UNL     1      -1.786   0.000   0.000  0.00  0.00    +0.000 OA
ATOM     11  C   UNL     1      -1.072   0.412   0.000  0.00  0.00    +0.000 C 
ENDBRANCH   1  11
BRANCH   2  12
ATOM     12  O   UNL     1       0.357   1.238   0.000  0.00  0.00    +0.000 OA
BRANCH  12  13
ATOM     13  P   UNL     1       1.072   1.650   0.000  0.00  0.00    +0.000 P 
ATOM     14  O   UNL     1       1.072   2.475   0.000  0.00  0.00    +0.000 OA
ATOM     15  O   UNL     1       1.786   1.238   0.000  0.00  0.00    +0.000 OA
ENDBRANCH  12  13
ENDBRANCH   2  12
TORSDOF 4
