REMARK  Name = 
REMARK  11 active torsions:
REMARK  status: ('A' for Active; 'I' for Inactive)
REMARK    1  A    between atoms: C_4  and  O_9
REMARK    2  A    between atoms: C_5  and  C_7
REMARK    3  A    between atoms: O_9  and  C_10
REMARK    4  A    between atoms: C_10  and  C_11
REMARK    5  A    between atoms: C_11  and  C_12
REMARK    6  A    between atoms: C_12  and  N_13
REMARK    7  A    between atoms: N_13  and  C_14
REMARK    8  A    between atoms: C_14  and  C_15
REMARK    9  A    between atoms: C_15  and  N_16
REMARK   10  A    between atoms: C_17  and  C_19
REMARK   11  A    between atoms: C_19  and  C_20
REMARK                            x       y       z     vdW  Elec       q    Type
REMARK                         _______ _______ _______ _____ _____    ______ ____
ROOT
ATOM      1  N   UNL     1       5.716  -6.600   0.000  0.00  0.00    +0.000 NA
ENDROOT
BRANCH   1   2
ATOM      2  C   UNL     1       5.001  -6.188   0.000  0.00  0.00    +0.000 C 
BRANCH   2   3
ATOM      3  C   UNL     1       4.287  -6.600   0.000  0.00  0.00    +0.000 C 
ATOM      4  O   UNL     1       4.287  -7.425   0.000  0.00  0.00    +0.000 OA
BRANCH   3   5
ATOM      5  C   UNL     1       3.572  -6.188   0.000  0.00  0.00    +0.000 C 
BRANCH   5   6
ATOM      6  O   UNL     1       2.858  -6.600   0.000  0.00  0.00    +0.000 OA
BRANCH   6  10
ATOM      7  C   UNL     1       0.715  -5.362   0.000  0.00  0.00    +0.000 A 
ATOM      8  C   UNL     1       1.429  -4.950   0.000  0.00  0.00    +0.000 A 
ATOM      9  C   UNL     1       2.143  -5.362   0.000  0.00  0.00    +0.000 A 
ATOM     10  C   UNL     1       2.143  -6.188   0.000  0.00  0.00    +0.000 A 
ATOM     11  C   UNL     1       1.429  -6.600   0.000  0.00  0.00    +0.000 A 
ATOM     12  C   UNL     1       0.715  -6.188   0.000  0.00  0.00    +0.000 A 
BRANCH  11  13
ATOM     13  C   UNL     1       1.429  -7.425   0.000  0.00  0.00    +0.000 C 
ATOM     14  N   UNL     1       1.429  -8.250   0.000  0.00  0.00    +0.000 NA
ENDBRANCH  11  13
ENDBRANCH   6  10
ENDBRANCH   5   6
ENDBRANCH   3   5
ENDBRANCH   2   3
ENDBRANCH   1   2
BRANCH   1  15
ATOM     15  C   UNL     1       6.430  -6.188   0.000  0.00  0.00    +0.000 C 
BRANCH  15  16
ATOM     16  C   UNL     1       7.145  -6.600   0.000  0.00  0.00    +0.000 C 
BRANCH  16  17
ATOM     17  N   UNL     1       7.859  -6.188   0.000  0.00  0.00    +0.000 NA
ATOM     18  C   UNL     1       8.574  -6.600   0.000  0.00  0.00    +0.000 C 
ATOM     19  O   UNL     1       8.574  -7.425   0.000  0.00  0.00    +0.000 OA
BRANCH  18  20
ATOM     20  C   UNL     1       9.288  -6.188   0.000  0.00  0.00    +0.000 C 
BRANCH  20  21
ATOM     21  C   UNL     1      10.003  -6.600   0.000  0.00  0.00    +0.000 A 
ATOM     22  C   UNL     1      10.717  -6.188   0.000  0.00  0.00    +0.000 A 
ATOM     23  C   UNL     1      11.431  -6.600   0.000  0.00  0.00    +0.000 A 
ATOM     24  C   UNL     1      11.431  -7.425   0.000  0.00  0.00    +0.000 A 
ATOM     25  C   UNL     1      10.717  -7.838   0.000  0.00  0.00    +0.000 A 
ATOM     26  C   UNL     1      10.003  -7.425   0.000  0.00  0.00    +0.000 A 
ATOM     27  O   UNL     1      12.146  -7.838   0.000  0.00  0.00    +0.000 OA
ENDBRANCH  20  21
ENDBRANCH  18  20
ENDBRANCH  16  17
ENDBRANCH  15  16
ENDBRANCH   1  15
TORSDOF 11
