REMARK  Name = 
REMARK  3 active torsions:
REMARK  status: ('A' for Active; 'I' for Inactive)
REMARK    1  A    between atoms: C_6  and  C_8
REMARK    2  A    between atoms: C_9  and  C_16
REMARK    3  A    between atoms: C_23  and  C_26
REMARK                            x       y       z     vdW  Elec       q    Type
REMARK                         _______ _______ _______ _____ _____    ______ ____
ROOT
ATOM      1  C   UNL     1      -0.667   1.310   0.000  0.00  0.00    +0.000 A 
ATOM      2  C   UNL     1       0.000   0.825   0.000  0.00  0.00    +0.000 A 
ATOM      3  C   UNL     1       0.667   1.310   0.000  0.00  0.00    +0.000 A 
ATOM      4  N   UNL     1       0.412   2.095   0.000  0.00  0.00    +0.000 N 
ATOM      5  N   UNL     1      -0.412   2.095   0.000  0.00  0.00    +0.000 NA
ATOM      6  C   UNL     1       1.080   2.579   0.000  0.00  0.00    +0.000 C 
ATOM      7  C   UNL     1       1.747   2.095   0.000  0.00  0.00    +0.000 C 
ATOM      8  C   UNL     1       1.492   1.310   0.000  0.00  0.00    +0.000 C 
ENDROOT
BRANCH   2   9
ATOM      9  C   UNL     1       0.000   0.000   0.000  0.00  0.00    +0.000 A 
ATOM     10  C   UNL     1      -0.715  -0.412   0.000  0.00  0.00    +0.000 A 
ATOM     11  C   UNL     1      -0.715  -1.238   0.000  0.00  0.00    +0.000 A 
ATOM     12  N   UNL     1       0.000  -1.650   0.000  0.00  0.00    +0.000 NA
ATOM     13  C   UNL     1       0.715  -1.238   0.000  0.00  0.00    +0.000 A 
ATOM     14  C   UNL     1       0.715  -0.412   0.000  0.00  0.00    +0.000 A 
ATOM     15  C   UNL     1       1.429   0.000   0.000  0.00  0.00    +0.000 A 
ATOM     16  C   UNL     1       2.143  -0.412   0.000  0.00  0.00    +0.000 A 
ATOM     17  C   UNL     1       2.143  -1.238   0.000  0.00  0.00    +0.000 A 
ATOM     18  C   UNL     1       1.429  -1.650   0.000  0.00  0.00    +0.000 A 
BRANCH  16  19
ATOM     19  C   UNL     1       2.858   0.000   0.000  0.00  0.00    +0.000 C 
ATOM     20  O   UNL     1       2.858   0.825   0.000  0.00  0.00    +0.000 OA
ATOM     21  N   UNL     1       3.572  -0.412   0.000  0.00  0.00    +0.000 NA
ENDBRANCH  16  19
ENDBRANCH   2   9
BRANCH   1  27
ATOM     22  C   UNL     1      -2.580  -0.814   0.000  0.00  0.00    +0.000 C 
ATOM     23  C   UNL     1      -2.408  -0.007   0.000  0.00  0.00    +0.000 A 
ATOM     24  C   UNL     1      -3.021   0.545   0.000  0.00  0.00    +0.000 A 
ATOM     25  C   UNL     1      -2.850   1.352   0.000  0.00  0.00    +0.000 A 
ATOM     26  C   UNL     1      -2.065   1.607   0.000  0.00  0.00    +0.000 A 
ATOM     27  C   UNL     1      -1.452   1.055   0.000  0.00  0.00    +0.000 A 
ATOM     28  N   UNL     1      -1.624   0.248   0.000  0.00  0.00    +0.000 NA
ENDBRANCH   1  27
TORSDOF 3
