REMARK  Name = 
REMARK  13 active torsions:
REMARK  status: ('A' for Active; 'I' for Inactive)
REMARK    1  A    between atoms: C_4  and  C_5
REMARK    2  A    between atoms: C_8  and  O_9
REMARK    3  A    between atoms: O_9  and  C_10
REMARK    4  A    between atoms: C_10  and  C_11
REMARK    5  A    between atoms: C_14  and  C_15
REMARK    6  A    between atoms: C_15  and  N_16
REMARK    7  A    between atoms: C_29  and  C_31
REMARK    8  A    between atoms: C_29  and  C_35
REMARK    9  A    between atoms: C_31  and  C_32
REMARK   10  A    between atoms: C_32  and  C_33
REMARK   11  A    between atoms: C_35  and  C_36
REMARK   12  A    between atoms: C_36  and  C_37
REMARK   13  A    between atoms: C_41  and  N_42
REMARK                            x       y       z     vdW  Elec       q    Type
REMARK                         _______ _______ _______ _____ _____    ______ ____
ROOT
ATOM      1  S   UNL     1       0.955   2.461   0.000  0.00  0.00    +0.000 S 
ATOM      2  C   UNL     1       0.303   1.946   0.000  0.00  0.00    +0.000 A 
ATOM      3  C   UNL     1       0.303   1.121   0.000  0.00  0.00    +0.000 A 
ATOM      4  C   UNL     1       0.950   0.605   0.000  0.00  0.00    +0.000 C 
ATOM      5  C   UNL     1       1.761   0.788   0.000  0.00  0.00    +0.000 C 
ATOM      6  C   UNL     1       2.122   1.533   0.000  0.00  0.00    +0.000 C 
ATOM      7  C   UNL     1       1.761   2.283   0.000  0.00  0.00    +0.000 C 
ATOM      8  O   UNL     1       2.342   0.202   0.000  0.00  0.00    +0.000 OA
ATOM      9  C   UNL     1      -0.409   0.708   0.000  0.00  0.00    +0.000 A 
ATOM     10  C   UNL     1      -1.122   1.121   0.000  0.00  0.00    +0.000 A 
ATOM     11  C   UNL     1      -1.122   1.946   0.000  0.00  0.00    +0.000 A 
ATOM     12  C   UNL     1      -0.400   2.358   0.000  0.00  0.00    +0.000 A 
ATOM     13  O   UNL     1       0.425   3.094   0.000  0.00  0.00    +0.000 OA
ATOM     14  O   UNL     1       1.154   3.262   0.000  0.00  0.00    +0.000 OA
ENDROOT
BRANCH   4  15
ATOM     15  C   UNL     1       0.950  -0.276   0.000  0.00  0.00    +0.000 A 
ATOM     16  C   UNL     1       0.247  -0.670   0.000  0.00  0.00    +0.000 A 
ATOM     17  C   UNL     1       0.247  -1.495   0.000  0.00  0.00    +0.000 A 
ATOM     18  C   UNL     1       0.950  -1.916   0.000  0.00  0.00    +0.000 A 
ATOM     19  C   UNL     1       1.653  -1.513   0.000  0.00  0.00    +0.000 A 
ATOM     20  C   UNL     1       1.653  -0.698   0.000  0.00  0.00    +0.000 A 
BRANCH  18  21
ATOM     21  O   UNL     1       0.950  -2.797   0.000  0.00  0.00    +0.000 OA
BRANCH  21  22
ATOM     22  C   UNL     1       0.191  -3.238   0.000  0.00  0.00    +0.000 C 
BRANCH  22  23
ATOM     23  C   UNL     1      -0.578  -2.797   0.000  0.00  0.00    +0.000 A 
ATOM     24  C   UNL     1      -0.578  -1.968   0.000  0.00  0.00    +0.000 A 
ATOM     25  C   UNL     1      -1.267  -1.574   0.000  0.00  0.00    +0.000 A 
ATOM     26  C   UNL     1      -1.923  -2.015   0.000  0.00  0.00    +0.000 A 
ATOM     27  C   UNL     1      -1.923  -2.830   0.000  0.00  0.00    +0.000 A 
ATOM     28  C   UNL     1      -1.234  -3.224   0.000  0.00  0.00    +0.000 A 
BRANCH  26  29
ATOM     29  C   UNL     1      -2.622  -1.612   0.000  0.00  0.00    +0.000 C 
BRANCH  29  30
ATOM     30  N   UNL     1      -3.336  -2.024   0.000  0.00  0.00    +0.000 N 
ATOM     31  C   UNL     1      -3.336  -2.849   0.000  0.00  0.00    +0.000 C 
ATOM     32  C   UNL     1      -4.051  -3.262   0.000  0.00  0.00    +0.000 C 
ATOM     33  N   UNL     1      -4.765  -2.849   0.000  0.00  0.00    +0.000 NA
ATOM     34  C   UNL     1      -4.765  -2.024   0.000  0.00  0.00    +0.000 C 
ATOM     35  C   UNL     1      -4.051  -1.612   0.000  0.00  0.00    +0.000 C 
ATOM     36  C   UNL     1      -4.245  -2.362   0.000  0.00  0.00    +0.000 C 
ATOM     37  C   UNL     1      -3.667  -2.444   0.000  0.00  0.00    +0.000 C 
ENDBRANCH  29  30
ENDBRANCH  26  29
ENDBRANCH  22  23
ENDBRANCH  21  22
ENDBRANCH  18  21
ENDBRANCH   4  15
BRANCH  10  38
ATOM     38  N   UNL     1      -1.837   0.709   0.000  0.00  0.00    +0.000 N 
ATOM     39  C   UNL     1      -2.551   1.121   0.000  0.00  0.00    +0.000 C 
ATOM     40  C   UNL     1      -1.837  -0.116   0.000  0.00  0.00    +0.000 C 
ENDBRANCH  10  38
BRANCH   6  41
ATOM     41  C   UNL     1       3.003   1.533   0.000  0.00  0.00    +0.000 C 
BRANCH  41  42
ATOM     42  C   UNL     1       3.443   0.764   0.000  0.00  0.00    +0.000 C 
BRANCH  42  43
ATOM     43  C   UNL     1       4.324   0.764   0.000  0.00  0.00    +0.000 C 
ATOM     44  C   UNL     1       4.765   0.005   0.000  0.00  0.00    +0.000 C 
ENDBRANCH  42  43
ENDBRANCH  41  42
ENDBRANCH   6  41
BRANCH   6  45
ATOM     45  C   UNL     1       2.562   2.302   0.000  0.00  0.00    +0.000 C 
BRANCH  45  46
ATOM     46  C   UNL     1       3.443   2.302   0.000  0.00  0.00    +0.000 C 
BRANCH  46  47
ATOM     47  C   UNL     1       3.884   3.057   0.000  0.00  0.00    +0.000 C 
ATOM     48  C   UNL     1       4.765   3.057   0.000  0.00  0.00    +0.000 C 
ENDBRANCH  46  47
ENDBRANCH  45  46
ENDBRANCH   6  45
TORSDOF 13
