REMARK  Name = 
REMARK  2 active torsions:
REMARK  status: ('A' for Active; 'I' for Inactive)
REMARK    1  A    between atoms: C_4  and  C_5
REMARK    2  A    between atoms: C_18  and  C_22
REMARK                            x       y       z     vdW  Elec       q    Type
REMARK                         _______ _______ _______ _____ _____    ______ ____
ROOT
ATOM      1  C   UNL     1      -1.429  -4.125   0.000  0.00  0.00    +0.000 C 
ATOM      2  N   UNL     1      -0.715  -3.712   0.000  0.00  0.00    +0.000 NA
ATOM      3  C   UNL     1      -0.715  -2.888   0.000  0.00  0.00    +0.000 C 
ATOM      4  C   UNL     1       0.000  -2.475   0.000  0.00  0.00    +0.000 C 
ATOM      5  C   UNL     1       0.715  -2.888   0.000  0.00  0.00    +0.000 A 
ATOM      6  C   UNL     1       1.429  -2.475   0.000  0.00  0.00    +0.000 A 
ATOM      7  C   UNL     1       2.143  -2.888   0.000  0.00  0.00    +0.000 A 
ATOM      8  C   UNL     1       2.143  -3.712   0.000  0.00  0.00    +0.000 A 
ATOM      9  C   UNL     1       1.429  -4.125   0.000  0.00  0.00    +0.000 A 
ATOM     10  C   UNL     1       0.715  -3.712   0.000  0.00  0.00    +0.000 A 
ATOM     11  C   UNL     1       0.000  -4.125   0.000  0.00  0.00    +0.000 C 
ENDROOT
BRANCH   4  12
ATOM     12  C   UNL     1       0.000  -1.650   0.000  0.00  0.00    +0.000 A 
ATOM     13  C   UNL     1       0.715  -1.238   0.000  0.00  0.00    +0.000 A 
ATOM     14  C   UNL     1       0.715  -0.412   0.000  0.00  0.00    +0.000 A 
ATOM     15  C   UNL     1       0.000   0.000   0.000  0.00  0.00    +0.000 A 
ATOM     16  C   UNL     1       0.000   0.825   0.000  0.00  0.00    +0.000 A 
ATOM     17  C   UNL     1       0.715   1.238   0.000  0.00  0.00    +0.000 A 
ATOM     18  C   UNL     1       1.429   0.825   0.000  0.00  0.00    +0.000 A 
ATOM     19  C   UNL     1       1.429   0.000   0.000  0.00  0.00    +0.000 A 
ATOM     20  C   UNL     1      -0.715  -0.412   0.000  0.00  0.00    +0.000 A 
ATOM     21  C   UNL     1      -0.715  -1.238   0.000  0.00  0.00    +0.000 A 
ENDBRANCH   4  12
BRANCH   8  22
ATOM     22  C   UNL     1       2.858  -4.125   0.000  0.00  0.00    +0.000 A 
ATOM     23  N   UNL     1       3.572  -3.712   0.000  0.00  0.00    +0.000 NA
ATOM     24  N   UNL     1       4.287  -4.125   0.000  0.00  0.00    +0.000 NA
ATOM     25  C   UNL     1       4.287  -4.950   0.000  0.00  0.00    +0.000 A 
ATOM     26  N   UNL     1       5.001  -5.362   0.000  0.00  0.00    +0.000 NA
ATOM     27  C   UNL     1       3.572  -5.362   0.000  0.00  0.00    +0.000 A 
ATOM     28  C   UNL     1       2.858  -4.950   0.000  0.00  0.00    +0.000 A 
ENDBRANCH   8  22
TORSDOF 2
