REMARK  Name = 
REMARK  7 active torsions:
REMARK  status: ('A' for Active; 'I' for Inactive)
REMARK    1  A    between atoms: C_1  and  C_9
REMARK    2  A    between atoms: C_2  and  C_4
REMARK    3  A    between atoms: C_4  and  O_7
REMARK    4  A    between atoms: O_7  and  C_12
REMARK    5  A    between atoms: C_12  and  C_13
REMARK    6  A    between atoms: C_17  and  O_18
REMARK    7  A    between atoms: O_18  and  C_19
REMARK                            x       y       z     vdW  Elec       q    Type
REMARK                         _______ _______ _______ _____ _____    ______ ____
ROOT
ATOM      1  C   UNL     1       0.055   0.508   0.000  0.00  0.00    +0.000 C 
ENDROOT
BRANCH   1   2
ATOM      2  C   UNL     1       0.770   0.096   0.000  0.00  0.00    +0.000 A 
ATOM      3  C   UNL     1       1.484   0.508   0.000  0.00  0.00    +0.000 A 
ATOM      4  C   UNL     1       0.770  -0.729   0.000  0.00  0.00    +0.000 A 
ATOM      5  C   UNL     1       1.484  -1.142   0.000  0.00  0.00    +0.000 A 
ATOM      6  C   UNL     1       2.199   0.096   0.000  0.00  0.00    +0.000 A 
ATOM      7  C   UNL     1       2.199  -0.729   0.000  0.00  0.00    +0.000 A 
BRANCH   6   8
ATOM      8  O   UNL     1       2.913   0.508   0.000  0.00  0.00    +0.000 OA
BRANCH   8   9
ATOM      9  C   UNL     1       3.628   0.096   0.000  0.00  0.00    +0.000 A 
ATOM     10  C   UNL     1       4.342   0.508   0.000  0.00  0.00    +0.000 A 
ATOM     11  C   UNL     1       3.628  -0.729   0.000  0.00  0.00    +0.000 A 
ATOM     12  C   UNL     1       4.342  -1.142   0.000  0.00  0.00    +0.000 A 
ATOM     13  C   UNL     1       5.057  -0.729   0.000  0.00  0.00    +0.000 A 
ATOM     14  C   UNL     1       5.057   0.096   0.000  0.00  0.00    +0.000 A 
ENDBRANCH   8   9
ENDBRANCH   6   8
ENDBRANCH   1   2
BRANCH   1  15
ATOM     15  O   UNL     1      -0.659   0.096   0.000  0.00  0.00    +0.000 OA
BRANCH  15  16
ATOM     16  C   UNL     1      -1.374   0.508   0.000  0.00  0.00    +0.000 C 
ATOM     17  O   UNL     1      -1.374   1.333   0.000  0.00  0.00    +0.000 OA
BRANCH  16  19
ATOM     18  C   UNL     1      -2.913   0.096   0.000  0.00  0.00    +0.000 C 
ATOM     19  C   UNL     1      -2.088   0.096   0.000  0.00  0.00    +0.000 C 
ATOM     20  C   UNL     1      -2.501  -0.619   0.000  0.00  0.00    +0.000 C 
ATOM     21  C   UNL     1      -2.088  -1.333   0.000  0.00  0.00    +0.000 C 
ATOM     22  C   UNL     1      -2.913  -1.333   0.000  0.00  0.00    +0.000 C 
BRANCH  18  23
ATOM     23  C   UNL     1      -3.628   0.508   0.000  0.00  0.00    +0.000 C 
ATOM     24  C   UNL     1      -4.342   0.096   0.000  0.00  0.00    +0.000 C 
ATOM     25 CL   UNL     1      -4.342  -0.729   0.000  0.00  0.00    +0.000 Cl
ATOM     26 CL   UNL     1      -5.057   0.508   0.000  0.00  0.00    +0.000 Cl
ENDBRANCH  18  23
ENDBRANCH  16  19
ENDBRANCH  15  16
ENDBRANCH   1  15
TORSDOF 7
