REMARK  Name = 
REMARK  3 active torsions:
REMARK  status: ('A' for Active; 'I' for Inactive)
REMARK    1  A    between atoms: C_3  and  C_15
REMARK    2  A    between atoms: C_13  and  N_20
REMARK    3  A    between atoms: N_21  and  C_28
REMARK                            x       y       z     vdW  Elec       q    Type
REMARK                         _______ _______ _______ _____ _____    ______ ____
ROOT
ATOM      1  C   UNL     1       0.342   0.605   0.000  0.00  0.00    +0.000 C 
ATOM      2  C   UNL     1      -1.078   0.605   0.000  0.00  0.00    +0.000 C 
ATOM      3  C   UNL     1       1.788   0.605   0.000  0.00  0.00    +0.000 C 
ATOM      4  C   UNL     1      -0.368   1.025   0.000  0.00  0.00    +0.000 C 
ATOM      5  C   UNL     1       1.051   1.025   0.000  0.00  0.00    +0.000 C 
ATOM      6  C   UNL     1      -1.814   1.025   0.000  0.00  0.00    +0.000 C 
ATOM      7  C   UNL     1       0.342  -0.210   0.000  0.00  0.00    +0.000 C 
ATOM      8  C   UNL     1      -2.523  -0.210   0.000  0.00  0.00    +0.000 A 
ATOM      9  C   UNL     1      -2.523   0.605   0.000  0.00  0.00    +0.000 A 
ATOM     10  C   UNL     1       1.788  -0.210   0.000  0.00  0.00    +0.000 C 
ATOM     11  C   UNL     1      -1.814  -0.631   0.000  0.00  0.00    +0.000 C 
ATOM     12  C   UNL     1      -1.078  -0.210   0.000  0.00  0.00    +0.000 C 
ATOM     13  C   UNL     1       1.051  -0.631   0.000  0.00  0.00    +0.000 C 
ATOM     14  C   UNL     1      -0.368  -0.631   0.000  0.00  0.00    +0.000 C 
ATOM     15  C   UNL     1      -3.233  -0.631   0.000  0.00  0.00    +0.000 A 
ATOM     16  C   UNL     1      -3.233   1.025   0.000  0.00  0.00    +0.000 A 
ATOM     17  O   UNL     1       1.051   1.840   0.000  0.00  0.00    +0.000 OA
ATOM     18  O   UNL     1      -1.814   1.840   0.000  0.00  0.00    +0.000 OA
ATOM     19  O   UNL     1       0.342   1.341   0.000  0.00  0.00    +0.000 OA
ATOM     20  O   UNL     1      -0.368   1.840   0.000  0.00  0.00    +0.000 OA
ATOM     21  O   UNL     1       2.497  -0.631   0.000  0.00  0.00    +0.000 OA
ATOM     22  C   UNL     1      -3.943  -0.210   0.000  0.00  0.00    +0.000 A 
ATOM     23  C   UNL     1      -3.943   0.605   0.000  0.00  0.00    +0.000 A 
ATOM     24 CL   UNL     1      -3.233  -1.446   0.000  0.00  0.00    +0.000 Cl
ATOM     25  O   UNL     1      -3.233   1.840   0.000  0.00  0.00    +0.000 OA
ATOM     26  C   UNL     1      -2.216  -1.342   0.000  0.00  0.00    +0.000 C 
ATOM     27  O   UNL     1      -1.401  -1.342   0.000  0.00  0.00    +0.000 OA
ENDROOT
BRANCH   3  28
ATOM     28  C   UNL     1       2.497   1.025   0.000  0.00  0.00    +0.000 C 
ATOM     29  N   UNL     1       3.207   0.631   0.000  0.00  0.00    +0.000 NA
ATOM     30  O   UNL     1       2.497   1.866   0.000  0.00  0.00    +0.000 OA
BRANCH  29  31
ATOM     31  C   UNL     1       3.207  -0.210   0.000  0.00  0.00    +0.000 C 
ATOM     32  O   UNL     1       3.943  -0.631   0.000  0.00  0.00    +0.000 OA
ENDBRANCH  29  31
ENDBRANCH   3  28
BRANCH  13  33
ATOM     33  N   UNL     1       1.051  -1.446   0.000  0.00  0.00    +0.000 NA
ATOM     34  C   UNL     1       1.788  -1.866   0.000  0.00  0.00    +0.000 C 
ATOM     35  C   UNL     1       0.342  -1.866   0.000  0.00  0.00    +0.000 C 
ENDBRANCH  13  33
TORSDOF 3
