REMARK  Name = 
REMARK  2 active torsions:
REMARK  status: ('A' for Active; 'I' for Inactive)
REMARK    1  A    between atoms: N_6  and  C_10
REMARK    2  A    between atoms: C_7  and  C_12
REMARK                            x       y       z     vdW  Elec       q    Type
REMARK                         _______ _______ _______ _____ _____    ______ ____
ROOT
ATOM      1  O   UNL     1       0.000  -1.856   0.000  0.00  0.00    +0.000 OA
ATOM      2  O   UNL     1       1.429  -1.031   0.000  0.00  0.00    +0.000 OA
ATOM      3  N   UNL     1       0.000   0.619   0.000  0.00  0.00    +0.000 NA
ATOM      4  C   UNL     1      -0.715  -0.619   0.000  0.00  0.00    +0.000 C 
ATOM      5  C   UNL     1       0.000  -1.031   0.000  0.00  0.00    +0.000 C 
ATOM      6  C   UNL     1       0.715  -0.619   0.000  0.00  0.00    +0.000 C 
ATOM      7  C   UNL     1       0.715   0.206   0.000  0.00  0.00    +0.000 C 
ATOM      8  C   UNL     1      -0.715   0.206   0.000  0.00  0.00    +0.000 C 
ATOM      9  H   UNL     1       0.000   1.130   0.000  0.00  0.00    +0.000 HD
ENDROOT
BRANCH   7  11
ATOM     10  O   UNL     1       0.715   1.856   0.000  0.00  0.00    +0.000 OA
ATOM     11  N   UNL     1       1.429   0.619   0.000  0.00  0.00    +0.000 N 
ATOM     12  C   UNL     1       1.429   1.444   0.000  0.00  0.00    +0.000 C 
ATOM     13  C   UNL     1       2.144   1.856   0.000  0.00  0.00    +0.000 C 
ATOM     14  H   UNL     1       1.872   0.363   0.000  0.00  0.00    +0.000 HD
ENDBRANCH   7  11
BRANCH   4  16
ATOM     15  O   UNL     1      -2.144  -0.619   0.000  0.00  0.00    +0.000 OA
ATOM     16  C   UNL     1      -1.429  -1.031   0.000  0.00  0.00    +0.000 C 
ENDBRANCH   4  16
TORSDOF 2
