REMARK  Name = 
REMARK  4 active torsions:
REMARK  status: ('A' for Active; 'I' for Inactive)
REMARK    1  A    between atoms: C_1  and  C_4
REMARK    2  A    between atoms: C_1  and  C_21
REMARK    3  A    between atoms: C_11  and  C_13
REMARK    4  A    between atoms: N_15  and  C_18
REMARK                            x       y       z     vdW  Elec       q    Type
REMARK                         _______ _______ _______ _____ _____    ______ ____
ROOT
ATOM      1  C   UNL     1       0.305  -1.579   0.000  0.00  0.00    +0.000 A 
ATOM      2  N   UNL     1       1.058  -1.243   0.000  0.00  0.00    +0.000 N 
ATOM      3  C   UNL     1       1.610  -1.856   0.000  0.00  0.00    +0.000 A 
ATOM      4  N   UNL     1       1.198  -2.571   0.000  0.00  0.00    +0.000 NA
ATOM      5  N   UNL     1       0.391  -2.399   0.000  0.00  0.00    +0.000 NA
ATOM      6  C   UNL     1       2.417  -1.685   0.000  0.00  0.00    +0.000 A 
ATOM      7  C   UNL     1       2.672  -0.900   0.000  0.00  0.00    +0.000 A 
ATOM      8  C   UNL     1       2.120  -0.287   0.000  0.00  0.00    +0.000 A 
ATOM      9  N   UNL     1       1.313  -0.459   0.000  0.00  0.00    +0.000 NA
ENDROOT
BRANCH   8  10
ATOM     10  C   UNL     1       2.375   0.497   0.000  0.00  0.00    +0.000 A 
ATOM     11  C   UNL     1       3.160   0.752   0.000  0.00  0.00    +0.000 A 
ATOM     12  N   UNL     1       3.160   1.577   0.000  0.00  0.00    +0.000 N 
ATOM     13  N   UNL     1       2.375   1.833   0.000  0.00  0.00    +0.000 NA
ATOM     14  C   UNL     1       1.890   1.165   0.000  0.00  0.00    +0.000 A 
BRANCH  12  15
ATOM     15  C   UNL     1       3.827   2.062   0.000  0.00  0.00    +0.000 C 
ATOM     16  C   UNL     1       4.163   2.816   0.000  0.00  0.00    +0.000 C 
ATOM     17  C   UNL     1       4.648   2.149   0.000  0.00  0.00    +0.000 C 
ENDBRANCH  12  15
ENDBRANCH   8  10
BRANCH   1  18
ATOM     18  C   UNL     1      -0.410  -1.166   0.000  0.00  0.00    +0.000 C 
ATOM     19  F   UNL     1      -0.822  -0.452   0.000  0.00  0.00    +0.000 F 
ATOM     20  F   UNL     1       0.003  -0.452   0.000  0.00  0.00    +0.000 F 
BRANCH  18  21
ATOM     21  C   UNL     1      -1.124  -1.579   0.000  0.00  0.00    +0.000 A 
ATOM     22  C   UNL     1      -1.839  -1.166   0.000  0.00  0.00    +0.000 A 
ATOM     23  C   UNL     1      -2.553  -1.579   0.000  0.00  0.00    +0.000 A 
ATOM     24  C   UNL     1      -2.553  -2.404   0.000  0.00  0.00    +0.000 A 
ATOM     25  C   UNL     1      -1.839  -2.816   0.000  0.00  0.00    +0.000 A 
ATOM     26  C   UNL     1      -1.124  -2.404   0.000  0.00  0.00    +0.000 A 
ATOM     27  F   UNL     1      -0.410  -2.816   0.000  0.00  0.00    +0.000 F 
ATOM     28  N   UNL     1      -3.338  -2.659   0.000  0.00  0.00    +0.000 NA
ATOM     29  N   UNL     1      -3.823  -1.991   0.000  0.00  0.00    +0.000 N 
ATOM     30  C   UNL     1      -3.338  -1.324   0.000  0.00  0.00    +0.000 A 
ATOM     31  C   UNL     1      -4.648  -1.991   0.000  0.00  0.00    +0.000 C 
ENDBRANCH  18  21
ENDBRANCH   1  18
TORSDOF 4
