REMARK  Name = 
REMARK  4 active torsions:
REMARK  status: ('A' for Active; 'I' for Inactive)
REMARK    1  A    between atoms: C_10  and  C_11
REMARK    2  A    between atoms: C_11  and  N_12
REMARK    3  A    between atoms: C_14  and  C_16
REMARK    4  A    between atoms: C_17  and  C_18
REMARK                            x       y       z     vdW  Elec       q    Type
REMARK                         _______ _______ _______ _____ _____    ______ ____
ROOT
ATOM      1  N   UNL     1      -3.572  -1.238   0.000  0.00  0.00    +0.000 N 
ATOM      2  C   UNL     1      -3.572  -0.412   0.000  0.00  0.00    +0.000 C 
ATOM      3  C   UNL     1      -2.858  -1.650   0.000  0.00  0.00    +0.000 C 
ATOM      4  O   UNL     1      -2.858  -2.475   0.000  0.00  0.00    +0.000 OA
ENDROOT
BRANCH   3   5
ATOM      5  C   UNL     1      -2.143  -1.238   0.000  0.00  0.00    +0.000 C 
ATOM      6  C   UNL     1      -1.429  -1.650   0.000  0.00  0.00    +0.000 C 
BRANCH   6   7
ATOM      7  C   UNL     1      -0.715  -1.238   0.000  0.00  0.00    +0.000 A 
ATOM      8  C   UNL     1       0.000  -1.650   0.000  0.00  0.00    +0.000 A 
ATOM      9  C   UNL     1       0.715  -1.238   0.000  0.00  0.00    +0.000 A 
ATOM     10  C   UNL     1       0.715  -0.412   0.000  0.00  0.00    +0.000 A 
ATOM     11  N   UNL     1       0.000   0.000   0.000  0.00  0.00    +0.000 NA
ATOM     12  C   UNL     1      -0.715  -0.412   0.000  0.00  0.00    +0.000 A 
ATOM     13  N   UNL     1       1.429   0.000   0.000  0.00  0.00    +0.000 NA
ATOM     14  C   UNL     1       2.143  -0.412   0.000  0.00  0.00    +0.000 C 
ATOM     15  O   UNL     1       2.858   0.000   0.000  0.00  0.00    +0.000 OA
ATOM     16  C   UNL     1       2.143  -1.238   0.000  0.00  0.00    +0.000 C 
ATOM     17  C   UNL     1       1.429  -1.650   0.000  0.00  0.00    +0.000 C 
ENDBRANCH   6   7
ENDBRANCH   3   5
BRANCH   1  18
ATOM     18  C   UNL     1      -4.287  -1.650   0.000  0.00  0.00    +0.000 C 
BRANCH  18  28
ATOM     19  C   UNL     1      -5.926  -2.380   0.000  0.00  0.00    +0.000 C 
ATOM     20  C   UNL     1      -5.755  -1.573   0.000  0.00  0.00    +0.000 A 
ATOM     21  C   UNL     1      -6.307  -0.960   0.000  0.00  0.00    +0.000 A 
ATOM     22  C   UNL     1      -7.132  -0.960   0.000  0.00  0.00    +0.000 A 
ATOM     23  C   UNL     1      -7.545  -0.245   0.000  0.00  0.00    +0.000 A 
ATOM     24  C   UNL     1      -7.132   0.469   0.000  0.00  0.00    +0.000 A 
ATOM     25  C   UNL     1      -6.307   0.469   0.000  0.00  0.00    +0.000 A 
ATOM     26  C   UNL     1      -5.894  -0.245   0.000  0.00  0.00    +0.000 A 
ATOM     27  O   UNL     1      -5.088  -0.417   0.000  0.00  0.00    +0.000 OA
ATOM     28  C   UNL     1      -5.001  -1.238   0.000  0.00  0.00    +0.000 A 
ENDBRANCH  18  28
ENDBRANCH   1  18
TORSDOF 4
