REMARK  Name = 
REMARK  2 active torsions:
REMARK  status: ('A' for Active; 'I' for Inactive)
REMARK    1  A    between atoms: C_1  and  C_2
REMARK    2  A    between atoms: C_1  and  O_8
REMARK                            x       y       z     vdW  Elec       q    Type
REMARK                         _______ _______ _______ _____ _____    ______ ____
ROOT
ATOM      1  C   UNL     1       0.167  -0.001   0.000  0.00  0.00    +0.000 A 
ATOM      2  O   UNL     1      -2.299   0.236   0.000  0.00  0.00    +0.000 OA
ATOM      3  C   UNL     1      -0.304  -0.671   0.000  0.00  0.00    +0.000 A 
ATOM      4  C   UNL     1      -0.164   0.748   0.000  0.00  0.00    +0.000 A 
ATOM      5  C   UNL     1      -1.470   0.157   0.000  0.00  0.00    +0.000 A 
ATOM      6  C   UNL     1      -0.985   0.829   0.000  0.00  0.00    +0.000 A 
ATOM      7  C   UNL     1      -1.125  -0.589   0.000  0.00  0.00    +0.000 A 
ENDROOT
BRANCH   1   8
ATOM      8  C   UNL     1       0.993  -0.080   0.000  0.00  0.00    +0.000 C 
ATOM      9  O   UNL     1       1.333  -0.829   0.000  0.00  0.00    +0.000 OA
BRANCH   8  10
ATOM     10  O   UNL     1       1.475   0.589   0.000  0.00  0.00    +0.000 OA
ATOM     11  C   UNL     1       2.299   0.510   0.000  0.00  0.00    +0.000 C 
ENDBRANCH   8  10
ENDBRANCH   1   8
TORSDOF 2
