REMARK  Name = 
REMARK  10 active torsions:
REMARK  status: ('A' for Active; 'I' for Inactive)
REMARK    1  A    between atoms: C_4  and  C_15
REMARK    2  A    between atoms: C_6  and  C_7
REMARK    3  A    between atoms: C_7  and  C_8
REMARK    4  A    between atoms: C_8  and  C_9
REMARK    5  A    between atoms: C_9  and  N_10
REMARK    6  A    between atoms: N_10  and  C_11
REMARK    7  A    between atoms: C_11  and  C_12
REMARK    8  A    between atoms: C_12  and  C_13
REMARK    9  A    between atoms: N_17  and  C_18
REMARK   10  A    between atoms: C_18  and  C_19
REMARK                            x       y       z     vdW  Elec       q    Type
REMARK                         _______ _______ _______ _____ _____    ______ ____
ROOT
ATOM      1  C   UNL     1      -2.006  -4.959   0.000  0.00  0.00    +0.000 A 
ATOM      2  C   UNL     1      -2.006  -4.134   0.000  0.00  0.00    +0.000 A 
ATOM      3  C   UNL     1      -1.292  -3.721   0.000  0.00  0.00    +0.000 A 
ATOM      4  C   UNL     1      -0.577  -4.134   0.000  0.00  0.00    +0.000 A 
ATOM      5  C   UNL     1      -0.577  -4.959   0.000  0.00  0.00    +0.000 A 
ATOM      6  C   UNL     1      -1.292  -5.371   0.000  0.00  0.00    +0.000 A 
ATOM      7 CL   UNL     1      -1.292  -2.896   0.000  0.00  0.00    +0.000 Cl
ENDROOT
BRANCH   4   8
ATOM      8  C   UNL     1       0.137  -3.721   0.000  0.00  0.00    +0.000 C 
ATOM      9  O   UNL     1       0.852  -4.133   0.000  0.00  0.00    +0.000 OA
ATOM     10  N   UNL     1       0.137  -2.896   0.000  0.00  0.00    +0.000 NA
BRANCH  10  11
ATOM     11  C   UNL     1       0.852  -2.483   0.000  0.00  0.00    +0.000 C 
BRANCH  11  12
ATOM     12  C   UNL     1       0.852  -1.659   0.000  0.00  0.00    +0.000 C 
ATOM     13  C   UNL     1       0.116  -2.032   0.000  0.00  0.00    +0.000 C 
ATOM     14  C   UNL     1       0.566  -1.242   0.000  0.00  0.00    +0.000 C 
ATOM     15  C   UNL     1       0.566  -0.494   0.000  0.00  0.00    +0.000 C 
ATOM     16  C   UNL     1       1.301  -0.121   0.000  0.00  0.00    +0.000 C 
ATOM     17  C   UNL     1       0.852  -0.911   0.000  0.00  0.00    +0.000 C 
ATOM     18  C   UNL     1       2.037  -0.494   0.000  0.00  0.00    +0.000 C 
ATOM     19  C   UNL     1       2.037  -1.242   0.000  0.00  0.00    +0.000 C 
ATOM     20  C   UNL     1       1.301  -1.616   0.000  0.00  0.00    +0.000 C 
ATOM     21  C   UNL     1       1.587  -2.032   0.000  0.00  0.00    +0.000 C 
ENDBRANCH  11  12
ENDBRANCH  10  11
ENDBRANCH   4   8
BRANCH   6  22
ATOM     22  C   UNL     1      -1.292  -6.196   0.000  0.00  0.00    +0.000 C 
BRANCH  22  23
ATOM     23  C   UNL     1      -2.006  -6.609   0.000  0.00  0.00    +0.000 C 
BRANCH  23  24
ATOM     24  C   UNL     1      -2.006  -7.434   0.000  0.00  0.00    +0.000 C 
BRANCH  24  25
ATOM     25  N   UNL     1      -2.720  -7.846   0.000  0.00  0.00    +0.000 NA
BRANCH  25  26
ATOM     26  C   UNL     1      -2.720  -8.671   0.000  0.00  0.00    +0.000 C 
BRANCH  26  27
ATOM     27  C   UNL     1      -3.435  -9.084   0.000  0.00  0.00    +0.000 C 
BRANCH  27  28
ATOM     28  C   UNL     1      -3.435  -9.909   0.000  0.00  0.00    +0.000 C 
ATOM     29  O   UNL     1      -4.149 -10.321   0.000  0.00  0.00    +0.000 OA
ENDBRANCH  27  28
ENDBRANCH  26  27
ENDBRANCH  25  26
ENDBRANCH  24  25
ENDBRANCH  23  24
ENDBRANCH  22  23
ENDBRANCH   6  22
TORSDOF 10
