REMARK  Name = 
REMARK  7 active torsions:
REMARK  status: ('A' for Active; 'I' for Inactive)
REMARK    1  A    between atoms: C_2  and  C_4
REMARK    2  A    between atoms: C_4  and  C_5
REMARK    3  A    between atoms: C_5  and  O_6
REMARK    4  A    between atoms: O_6  and  C_7
REMARK    5  A    between atoms: C_7  and  C_9
REMARK    6  A    between atoms: C_10  and  C_11
REMARK    7  A    between atoms: C_14  and  O_17
REMARK                            x       y       z     vdW  Elec       q    Type
REMARK                         _______ _______ _______ _____ _____    ______ ____
ROOT
ATOM      1  C   UNL     1       6.430  -5.362   0.000  0.00  0.00    +0.000 C 
ATOM      2  C   UNL     1       7.145  -4.950   0.000  0.00  0.00    +0.000 C 
ENDROOT
BRANCH   2   3
ATOM      3  C   UNL     1       7.859  -5.362   0.000  0.00  0.00    +0.000 A 
ATOM      4  C   UNL     1       8.574  -4.950   0.000  0.00  0.00    +0.000 A 
ATOM      5  C   UNL     1       9.288  -5.362   0.000  0.00  0.00    +0.000 A 
ATOM      6  C   UNL     1       9.288  -6.188   0.000  0.00  0.00    +0.000 A 
ATOM      7  C   UNL     1       8.574  -6.600   0.000  0.00  0.00    +0.000 A 
ATOM      8  C   UNL     1       7.859  -6.188   0.000  0.00  0.00    +0.000 A 
BRANCH   6   9
ATOM      9  O   UNL     1      10.003  -6.600   0.000  0.00  0.00    +0.000 OA
ATOM     10  C   UNL     1      10.717  -6.188   0.000  0.00  0.00    +0.000 C 
ENDBRANCH   6   9
ENDBRANCH   2   3
BRANCH   1  11
ATOM     11  C   UNL     1       5.716  -4.950   0.000  0.00  0.00    +0.000 C 
ATOM     12  O   UNL     1       5.716  -4.125   0.000  0.00  0.00    +0.000 OA
BRANCH  11  13
ATOM     13  O   UNL     1       5.001  -5.362   0.000  0.00  0.00    +0.000 OA
BRANCH  13  14
ATOM     14  C   UNL     1       4.287  -4.950   0.000  0.00  0.00    +0.000 C 
BRANCH  14  15
ATOM     15  C   UNL     1       3.572  -5.362   0.000  0.00  0.00    +0.000 C 
BRANCH  15  17
ATOM     16  C   UNL     1       2.143  -5.362   0.000  0.00  0.00    +0.000 C 
ATOM     17  C   UNL     1       2.858  -4.950   0.000  0.00  0.00    +0.000 C 
ATOM     18  C   UNL     1       2.858  -4.125   0.000  0.00  0.00    +0.000 C 
ENDBRANCH  15  17
ENDBRANCH  14  15
ENDBRANCH  13  14
ENDBRANCH  11  13
ENDBRANCH   1  11
TORSDOF 7
