REMARK  Name = 
REMARK  8 active torsions:
REMARK  status: ('A' for Active; 'I' for Inactive)
REMARK    1  A    between atoms: C_2  and  O_3
REMARK    2  A    between atoms: C_2  and  C_31
REMARK    3  A    between atoms: O_3  and  C_4
REMARK    4  A    between atoms: N_6  and  C_7
REMARK    5  A    between atoms: C_8  and  C_13
REMARK    6  A    between atoms: C_16  and  C_19
REMARK    7  A    between atoms: C_22  and  C_25
REMARK    8  A    between atoms: C_25  and  C_28
REMARK                            x       y       z     vdW  Elec       q    Type
REMARK                         _______ _______ _______ _____ _____    ______ ____
ROOT
ATOM      1  C   UNL     1      -8.885  -2.434   0.000  0.00  0.00    +0.000 A 
ATOM      2  C   UNL     1      -8.942  -3.257   0.000  0.00  0.00    +0.000 A 
ATOM      3  O   UNL     1      -9.743  -3.457   0.000  0.00  0.00    +0.000 OA
ATOM      4  N   UNL     1     -10.180  -2.757   0.000  0.00  0.00    +0.000 NA
ATOM      5  C   UNL     1      -9.650  -2.125   0.000  0.00  0.00    +0.000 A 
ATOM      6  C   UNL     1      -9.849  -1.325   0.000  0.00  0.00    +0.000 C 
ENDROOT
BRANCH   2   7
ATOM      7  C   UNL     1      -8.310  -3.787   0.000  0.00  0.00    +0.000 A 
ATOM      8  C   UNL     1      -7.535  -3.505   0.000  0.00  0.00    +0.000 A 
ATOM      9  C   UNL     1      -6.903  -4.035   0.000  0.00  0.00    +0.000 A 
ATOM     10  C   UNL     1      -7.046  -4.848   0.000  0.00  0.00    +0.000 A 
ATOM     11  C   UNL     1      -7.822  -5.130   0.000  0.00  0.00    +0.000 A 
ATOM     12  C   UNL     1      -8.454  -4.600   0.000  0.00  0.00    +0.000 A 
BRANCH  10  13
ATOM     13  C   UNL     1      -6.414  -5.378   0.000  0.00  0.00    +0.000 A 
ATOM     14  C   UNL     1      -5.639  -5.096   0.000  0.00  0.00    +0.000 A 
ATOM     15  C   UNL     1      -5.007  -5.626   0.000  0.00  0.00    +0.000 A 
ATOM     16  C   UNL     1      -5.150  -6.439   0.000  0.00  0.00    +0.000 A 
ATOM     17  C   UNL     1      -5.926  -6.721   0.000  0.00  0.00    +0.000 A 
ATOM     18  C   UNL     1      -6.558  -6.191   0.000  0.00  0.00    +0.000 A 
BRANCH  16  19
ATOM     19  C   UNL     1      -4.518  -6.969   0.000  0.00  0.00    +0.000 C 
ATOM     20  C   UNL     1      -4.106  -7.684   0.000  0.00  0.00    +0.000 C 
ATOM     21  C   UNL     1      -4.931  -7.684   0.000  0.00  0.00    +0.000 C 
BRANCH  19  22
ATOM     22  C   UNL     1      -3.886  -6.439   0.000  0.00  0.00    +0.000 C 
ATOM     23  O   UNL     1      -3.111  -6.721   0.000  0.00  0.00    +0.000 OA
ATOM     24  O   UNL     1      -4.030  -5.626   0.000  0.00  0.00    +0.000 OA
ENDBRANCH  19  22
ENDBRANCH  16  19
ENDBRANCH  10  13
ENDBRANCH   2   7
BRANCH   1  27
ATOM     25  C   UNL     1      -8.214  -1.172   0.000  0.00  0.00    +0.000 C 
ATOM     26  O   UNL     1      -8.942  -0.785   0.000  0.00  0.00    +0.000 OA
ATOM     27  N   UNL     1      -8.185  -1.997   0.000  0.00  0.00    +0.000 NA
BRANCH  25  28
ATOM     28  O   UNL     1      -7.514  -0.735   0.000  0.00  0.00    +0.000 OA
BRANCH  28  30
ATOM     29  C   UNL     1      -6.843   0.526   0.000  0.00  0.00    +0.000 C 
ATOM     30  C   UNL     1      -7.543   0.089   0.000  0.00  0.00    +0.000 C 
BRANCH  30  31
ATOM     31  C   UNL     1      -8.271   0.477   0.000  0.00  0.00    +0.000 A 
ATOM     32  C   UNL     1      -8.971   0.039   0.000  0.00  0.00    +0.000 A 
ATOM     33  C   UNL     1      -9.700   0.427   0.000  0.00  0.00    +0.000 A 
ATOM     34  C   UNL     1      -9.728   1.251   0.000  0.00  0.00    +0.000 A 
ATOM     35  C   UNL     1      -9.029   1.688   0.000  0.00  0.00    +0.000 A 
ATOM     36  C   UNL     1      -8.300   1.301   0.000  0.00  0.00    +0.000 A 
ENDBRANCH  30  31
ENDBRANCH  28  30
ENDBRANCH  25  28
ENDBRANCH   1  27
TORSDOF 8
