REMARK  Name = 
REMARK  3 active torsions:
REMARK  status: ('A' for Active; 'I' for Inactive)
REMARK    1  A    between atoms: C_3  and  C_8
REMARK    2  A    between atoms: C_3  and  C_9
REMARK    3  A    between atoms: C_9  and  C_16
REMARK                            x       y       z     vdW  Elec       q    Type
REMARK                         _______ _______ _______ _____ _____    ______ ____
ROOT
ATOM      1  C   UNL     1      -0.348   0.817   0.000  0.00  0.00    +0.000 C 
ATOM      2  C   UNL     1      -0.348  -0.008   0.000  0.00  0.00    +0.000 C 
ATOM      3  C   UNL     1       0.363  -0.416   0.000  0.00  0.00    +0.000 C 
ATOM      4  C   UNL     1       1.075  -0.008   0.000  0.00  0.00    +0.000 C 
ATOM      5  C   UNL     1       1.075   0.817   0.000  0.00  0.00    +0.000 C 
ATOM      6  N   UNL     1       0.363   1.233   0.000  0.00  0.00    +0.000 NA
ATOM      7  C   UNL     1       0.363   2.058   0.000  0.00  0.00    +0.000 C 
ENDROOT
BRANCH   3   8
ATOM      8  C   UNL     1      -0.357  -0.825   0.000  0.00  0.00    +0.000 A 
ATOM      9  C   UNL     1      -1.070  -0.402   0.000  0.00  0.00    +0.000 A 
ATOM     10  C   UNL     1      -1.790  -0.810   0.000  0.00  0.00    +0.000 A 
ATOM     11  C   UNL     1      -1.797  -1.639   0.000  0.00  0.00    +0.000 A 
ATOM     12  C   UNL     1      -1.078  -2.058   0.000  0.00  0.00    +0.000 A 
ATOM     13  C   UNL     1      -0.361  -1.648   0.000  0.00  0.00    +0.000 A 
ATOM     14  O   UNL     1      -2.501  -0.392   0.000  0.00  0.00    +0.000 OA
ENDBRANCH   3   8
BRANCH   3  15
ATOM     15  C   UNL     1       1.072  -0.829   0.000  0.00  0.00    +0.000 C 
ATOM     16  O   UNL     1       1.072  -1.648   0.000  0.00  0.00    +0.000 OA
BRANCH  15  17
ATOM     17  C   UNL     1       1.788  -0.418   0.000  0.00  0.00    +0.000 C 
ATOM     18  C   UNL     1       2.501  -0.832   0.000  0.00  0.00    +0.000 C 
ENDBRANCH  15  17
ENDBRANCH   3  15
TORSDOF 3
