REMARK  Name = 
REMARK  5 active torsions:
REMARK  status: ('A' for Active; 'I' for Inactive)
REMARK    1  A    between atoms: C_5  and  O_7
REMARK    2  A    between atoms: O_7  and  C_8
REMARK    3  A    between atoms: C_8  and  C_9
REMARK    4  A    between atoms: N_10  and  N_11
REMARK    5  A    between atoms: N_11  and  C_12
REMARK                            x       y       z     vdW  Elec       q    Type
REMARK                         _______ _______ _______ _____ _____    ______ ____
ROOT
ATOM      1  O   UNL     1      -0.707   0.412   0.000  0.00  0.00    +0.000 OA
ENDROOT
BRANCH   1   6
ATOM      2  C   UNL     1      -2.865   0.000   0.000  0.00  0.00    +0.000 A 
ATOM      3  C   UNL     1      -2.865  -0.825   0.000  0.00  0.00    +0.000 A 
ATOM      4  C   UNL     1      -2.151  -1.238   0.000  0.00  0.00    +0.000 A 
ATOM      5  C   UNL     1      -1.436  -0.825   0.000  0.00  0.00    +0.000 A 
ATOM      6  C   UNL     1      -1.436   0.000   0.000  0.00  0.00    +0.000 A 
ATOM      7  C   UNL     1      -2.151   0.412   0.000  0.00  0.00    +0.000 A 
ATOM      8 CL   UNL     1      -3.580  -1.238   0.000  0.00  0.00    +0.000 Cl
ENDBRANCH   1   6
BRANCH   1   9
ATOM      9  C   UNL     1       0.007   0.000   0.000  0.00  0.00    +0.000 C 
BRANCH   9  10
ATOM     10  C   UNL     1       0.722   0.412   0.000  0.00  0.00    +0.000 C 
ATOM     11  N   UNL     1       1.436   0.000   0.000  0.00  0.00    +0.000 NA
ATOM     12  O   UNL     1       0.722   1.238   0.000  0.00  0.00    +0.000 OA
BRANCH  11  13
ATOM     13  N   UNL     1       2.151   0.412   0.000  0.00  0.00    +0.000 NA
BRANCH  13  14
ATOM     14  C   UNL     1       2.865   0.000   0.000  0.00  0.00    +0.000 C 
ATOM     15  C   UNL     1       3.580   0.412   0.000  0.00  0.00    +0.000 C 
ATOM     16  C   UNL     1       2.865  -0.825   0.000  0.00  0.00    +0.000 C 
ENDBRANCH  13  14
ENDBRANCH  11  13
ENDBRANCH   9  10
ENDBRANCH   1   9
TORSDOF 5
