REMARK  Name = 
REMARK  3 active torsions:
REMARK  status: ('A' for Active; 'I' for Inactive)
REMARK    1  A    between atoms: C_2  and  O_25
REMARK    2  A    between atoms: C_17  and  C_22
REMARK    3  A    between atoms: O_25  and  C_27
REMARK                            x       y       z     vdW  Elec       q    Type
REMARK                         _______ _______ _______ _____ _____    ______ ____
ROOT
ATOM      1  C   UNL     1      -1.396  -0.826   0.000  0.00  0.00    +0.000 C 
ATOM      2  C   UNL     1      -1.396  -1.651   0.000  0.00  0.00    +0.000 C 
ATOM      3  C   UNL     1      -0.682  -2.063   0.000  0.00  0.00    +0.000 C 
ATOM      4  C   UNL     1       0.033  -1.651   0.000  0.00  0.00    +0.000 C 
ATOM      5  C   UNL     1       0.033  -0.826   0.000  0.00  0.00    +0.000 C 
ATOM      6  C   UNL     1      -0.682  -0.413   0.000  0.00  0.00    +0.000 C 
ATOM      7  C   UNL     1       0.747  -2.063   0.000  0.00  0.00    +0.000 C 
ATOM      8  C   UNL     1       1.462  -1.651   0.000  0.00  0.00    +0.000 C 
ATOM      9  C   UNL     1       1.462  -0.826   0.000  0.00  0.00    +0.000 C 
ATOM     10  C   UNL     1       0.747  -0.413   0.000  0.00  0.00    +0.000 C 
ATOM     11  C   UNL     1       2.176  -0.413   0.000  0.00  0.00    +0.000 C 
ATOM     12  C   UNL     1       2.176   0.411   0.000  0.00  0.00    +0.000 C 
ATOM     13  C   UNL     1       1.462   0.824   0.000  0.00  0.00    +0.000 C 
ATOM     14  C   UNL     1       0.747   0.411   0.000  0.00  0.00    +0.000 C 
ATOM     15  C   UNL     1       3.605  -0.413   0.000  0.00  0.00    +0.000 C 
ATOM     16  C   UNL     1       3.605   0.411   0.000  0.00  0.00    +0.000 C 
ATOM     17  C   UNL     1       2.890   0.824   0.000  0.00  0.00    +0.000 C 
ATOM     18  C   UNL     1       2.192   1.236   0.000  0.00  0.00    +0.000 C 
ATOM     19  C   UNL     1       0.031   0.023   0.000  0.00  0.00    +0.000 C 
ENDROOT
BRANCH  17  20
ATOM     20  C   UNL     1       2.893   1.649   0.000  0.00  0.00    +0.000 C 
ATOM     21  C   UNL     1       3.611   2.059   0.000  0.00  0.00    +0.000 C 
ATOM     22  O   UNL     1       2.167   2.072   0.000  0.00  0.00    +0.000 OA
ENDBRANCH  17  20
BRANCH   2  23
ATOM     23  O   UNL     1      -2.126  -2.072   0.000  0.00  0.00    +0.000 OA
BRANCH  23  24
ATOM     24  C   UNL     1      -2.870  -1.642   0.000  0.00  0.00    +0.000 C 
ATOM     25  C   UNL     1      -3.611  -2.070   0.000  0.00  0.00    +0.000 C 
ATOM     26  O   UNL     1      -2.869  -0.813   0.000  0.00  0.00    +0.000 OA
ENDBRANCH  23  24
ENDBRANCH   2  23
TORSDOF 3
