REMARK  Name = 
REMARK  9 active torsions:
REMARK  status: ('A' for Active; 'I' for Inactive)
REMARK    1  A    between atoms: CA_6  and  CB_18
REMARK    2  A    between atoms: CA_9  and  CB_25
REMARK    3  A    between atoms: CA_12  and  CB_29
REMARK    4  A    between atoms: CB_18  and  CG_19
REMARK    5  A    between atoms: CG_19  and  CD_20
REMARK    6  A    between atoms: CD_20  and  NE_21
REMARK    7  A    between atoms: CB_29  and  CG_30
REMARK    8  A    between atoms: CA_36  and  CB_39
REMARK    9  A    between atoms: CB_39  and  CG_40
REMARK                            x       y       z     vdW  Elec       q    Type
REMARK                         _______ _______ _______ _____ _____    ______ ____
ROOT
ATOM      1  CA  GLY A   1      -0.131   1.380   0.000  0.00  0.00    +0.000 C 
ATOM      2  N   GLY A   1      -0.131   0.555   0.000  0.00  0.00    +0.000 NA
ATOM      3  N   ASP A   2       1.298   1.380   0.000  0.00  0.00    +0.000 NA
ATOM      4  C   GLY A   1       0.584   1.793   0.000  0.00  0.00    +0.000 C 
ATOM      5  C   ARG A   5      -0.845   0.142   0.000  0.00  0.00    +0.000 C 
ATOM      6  CA  ARG A   5      -0.845  -0.683   0.000  0.00  0.00    +0.000 C 
ATOM      7  N   ARG A   5      -0.131  -1.095   0.000  0.00  0.00    +0.000 NA
ATOM      8  C   VAL A   4      -0.131  -1.920   0.000  0.00  0.00    +0.000 C 
ATOM      9  CA  VAL A   4       0.584  -2.333   0.000  0.00  0.00    +0.000 C 
ATOM     10  N   VAL A   4       1.298  -1.920   0.000  0.00  0.00    +0.000 N 
ATOM     11  C   PHE A   3       1.298  -1.095   0.000  0.00  0.00    +0.000 C 
ATOM     12  CA  PHE A   3       2.024  -0.676   0.000  0.00  0.00    +0.000 C 
ATOM     13  N   PHE A   3       2.024   0.142   0.000  0.00  0.00    +0.000 NA
ATOM     14  O   GLY A   1       0.584   2.618   0.000  0.00  0.00    +0.000 OA
ATOM     15  O   ARG A   5      -1.550   0.549   0.000  0.00  0.00    +0.000 OA
ATOM     16  O   VAL A   4      -0.845  -2.333   0.000  0.00  0.00    +0.000 OA
ATOM     17  O   PHE A   3       0.595  -0.689   0.000  0.00  0.00    +0.000 OA
ATOM     18  C   ACE A   0       2.024  -2.340   0.000  0.00  0.00    +0.000 C 
ATOM     19  CA  ASP A   2       2.024   1.799   0.000  0.00  0.00    +0.000 C 
ATOM     20  C   ASP A   2       2.731   0.551   0.000  0.00  0.00    +0.000 C 
ATOM     21  O   ASP A   2       3.512   0.339   0.000  0.00  0.00    +0.000 OA
ENDROOT
BRANCH   9  22
ATOM     22  CB  VAL A   4       0.584  -3.158   0.000  0.00  0.00    +0.000 C 
ATOM     23  CG1 VAL A   4      -0.141  -3.576   0.000  0.00  0.00    +0.000 C 
ATOM     24  CG2 VAL A   4       1.288  -3.565   0.000  0.00  0.00    +0.000 C 
ENDBRANCH   9  22
BRANCH  12  25
ATOM     25  CB  PHE A   3       2.941  -1.292   0.000  0.00  0.00    +0.000 C 
BRANCH  25  26
ATOM     26  CG  PHE A   3       3.638  -0.890   0.000  0.00  0.00    +0.000 A 
ATOM     27  CD1 PHE A   3       4.341  -1.296   0.000  0.00  0.00    +0.000 A 
ATOM     28  CE1 PHE A   3       5.056  -0.884   0.000  0.00  0.00    +0.000 A 
ATOM     29  CZ  PHE A   3       5.056  -0.059   0.000  0.00  0.00    +0.000 A 
ATOM     30  CE2 PHE A   3       4.352   0.348   0.000  0.00  0.00    +0.000 A 
ATOM     31  CD2 PHE A   3       3.638  -0.065   0.000  0.00  0.00    +0.000 A 
ENDBRANCH  25  26
ENDBRANCH  12  25
BRANCH   6  32
ATOM     32  CB  ARG A   5      -1.550  -1.090   0.000  0.00  0.00    +0.000 C 
BRANCH  32  33
ATOM     33  CG  ARG A   5      -2.250  -0.686   0.000  0.00  0.00    +0.000 C 
BRANCH  33  34
ATOM     34  CD  ARG A   5      -2.952  -1.091   0.000  0.00  0.00    +0.000 C 
BRANCH  34  35
ATOM     35  NE  ARG A   5      -3.653  -0.686   0.000  0.00  0.00    +0.000 NA
ATOM     36  CZ  ARG A   5      -4.354  -1.091   0.000  0.00  0.00    +0.000 C 
ATOM     37  NH1 ARG A   5      -5.056  -0.686   0.000  0.00  0.00    +0.000 NA
ATOM     38  NH2 ARG A   5      -4.354  -1.920   0.000  0.00  0.00    +0.000 NA
ENDBRANCH  34  35
ENDBRANCH  33  34
ENDBRANCH  32  33
ENDBRANCH   6  32
BRANCH  19  39
ATOM     39  CB  ASP A   2       2.238   2.587   0.000  0.00  0.00    +0.000 C 
BRANCH  39  40
ATOM     40  CG  ASP A   2       3.017   2.792   0.000  0.00  0.00    +0.000 C 
ATOM     41  OD1 ASP A   2       3.597   2.208   0.000  0.00  0.00    +0.000 OA
ATOM     42  OD2 ASP A   2       3.231   3.576   0.000  0.00  0.00    +0.000 OA
ENDBRANCH  39  40
ENDBRANCH  19  39
TORSDOF 9
