REMARK  Name = 
REMARK  2 active torsions:
REMARK  status: ('A' for Active; 'I' for Inactive)
REMARK    1  A    between atoms: C_3  and  C_14
REMARK    2  A    between atoms: N_15  and  C_16
REMARK                            x       y       z     vdW  Elec       q    Type
REMARK                         _______ _______ _______ _____ _____    ______ ____
ROOT
ATOM      1  C   UNL     1      -1.429   1.843   0.000  0.00  0.00    +0.000 A 
ATOM      2  C   UNL     1      -1.430   1.016   0.000  0.00  0.00    +0.000 A 
ATOM      3  C   UNL     1      -0.717   0.605   0.000  0.00  0.00    +0.000 A 
ATOM      4  C   UNL     1      -0.719   2.258   0.000  0.00  0.00    +0.000 A 
ATOM      5  C   UNL     1      -0.001   1.847   0.000  0.00  0.00    +0.000 A 
ATOM      6  C   UNL     1      -0.002   1.018   0.000  0.00  0.00    +0.000 A 
ATOM      7  O   UNL     1       0.710   0.608   0.000  0.00  0.00    +0.000 OA
ATOM      8  C   UNL     1       1.431   1.016   0.000  0.00  0.00    +0.000 C 
ATOM      9  C   UNL     1       1.432   1.845   0.000  0.00  0.00    +0.000 C 
ATOM     10  N   UNL     1       0.712   2.265   0.000  0.00  0.00    +0.000 N 
ATOM     11 CL   UNL     1      -2.147   2.258   0.000  0.00  0.00    +0.000 Cl
ATOM     12  O   UNL     1       2.147   2.258   0.000  0.00  0.00    +0.000 OA
ATOM     13  C   UNL     1       0.712   3.090   0.000  0.00  0.00    +0.000 C 
ENDROOT
BRANCH   3  14
ATOM     14  C   UNL     1      -0.721  -0.213   0.000  0.00  0.00    +0.000 C 
ATOM     15  N   UNL     1      -0.005  -0.628   0.000  0.00  0.00    +0.000 NA
ATOM     16  O   UNL     1      -1.435  -0.625   0.000  0.00  0.00    +0.000 OA
BRANCH  15  17
ATOM     17  C   UNL     1      -0.005  -1.449   0.000  0.00  0.00    +0.000 C 
ATOM     18  C   UNL     1      -0.721  -1.860   0.000  0.00  0.00    +0.000 C 
ATOM     19  N   UNL     1      -0.723  -2.677   0.000  0.00  0.00    +0.000 NA
ATOM     20  C   UNL     1      -0.011  -3.090   0.000  0.00  0.00    +0.000 C 
ATOM     21  C   UNL     1       0.701  -2.682   0.000  0.00  0.00    +0.000 C 
ATOM     22  C   UNL     1      -0.083  -2.501   0.000  0.00  0.00    +0.000 C 
ATOM     23  C   UNL     1      -0.083  -1.973   0.000  0.00  0.00    +0.000 C 
ATOM     24  C   UNL     1       0.702  -1.855   0.000  0.00  0.00    +0.000 C 
ENDBRANCH  15  17
ENDBRANCH   3  14
TORSDOF 2
