REMARK  Name = 
REMARK  15 active torsions:
REMARK  status: ('A' for Active; 'I' for Inactive)
REMARK    1  A    between atoms: C_2  and  C_3
REMARK    2  A    between atoms: N_10  and  C_83
REMARK    3  A    between atoms: CA_11  and  CB_80
REMARK    4  A    between atoms: CA_15  and  CB_77
REMARK    5  A    between atoms: CA_19  and  CB_72
REMARK    6  A    between atoms: CA_31  and  CB_65
REMARK    7  A    between atoms: CA_35  and  CB_60
REMARK    8  A    between atoms: CA_39  and  CB_56
REMARK    9  A    between atoms: C_43  and  C_47
REMARK   10  A    between atoms: C_47  and  C_48
REMARK   11  A    between atoms: C_48  and  C_50
REMARK   12  A    between atoms: C_50  and  C_51
REMARK   13  A    between atoms: CB_60  and  CG_61
REMARK   14  A    between atoms: CB_65  and  CG_66
REMARK   15  A    between atoms: CB_72  and  CG_73
REMARK                            x       y       z     vdW  Elec       q    Type
REMARK                         _______ _______ _______ _____ _____    ______ ____
ROOT
ATOM      1  C   UNK A  11       2.665  -0.782   0.000  0.00  0.00    +0.000 C 
ATOM      2  C   UNK A  11       1.971  -0.336   0.000  0.00  0.00    +0.000 C 
ATOM      3  O   UNK A  11       2.255   0.466   0.000  0.00  0.00    +0.000 OA
ATOM      4  N   ALA A   1       1.238  -0.715   0.000  0.00  0.00    +0.000 N 
ATOM      5  CA  ALA A   1       0.825   0.000   0.000  0.00  0.00    +0.000 C 
ATOM      6  C   ALA A   1       0.000   0.000   0.000  0.00  0.00    +0.000 C 
ATOM      7  O   ALA A   1      -0.451   0.828   0.000  0.00  0.00    +0.000 OA
ATOM      8  N   VAL A   2      -0.412  -0.715   0.000  0.00  0.00    +0.000 N 
ATOM      9  CA  VAL A   2      -1.146  -0.336   0.000  0.00  0.00    +0.000 C 
ATOM     10  C   VAL A   2      -1.840  -0.782   0.000  0.00  0.00    +0.000 C 
ATOM     11  O   VAL A   2      -2.686  -0.587   0.000  0.00  0.00    +0.000 OA
ATOM     12  N   VAL A   3      -1.801  -1.607   0.000  0.00  0.00    +0.000 NA
ATOM     13  CA  VAL A   3      -2.622  -1.685   0.000  0.00  0.00    +0.000 C 
ATOM     14  C   VAL A   3      -2.965  -2.435   0.000  0.00  0.00    +0.000 C 
ATOM     15  O   VAL A   3      -3.783  -2.634   0.000  0.00  0.00    +0.000 OA
ATOM     16  N   LEU A   4      -2.486  -3.107   0.000  0.00  0.00    +0.000 N 
ATOM     17  CA  LEU A   4      -3.135  -3.617   0.000  0.00  0.00    +0.000 C 
ATOM     18  C   LEU A   4      -3.017  -4.434   0.000  0.00  0.00    +0.000 C 
ATOM     19  O   LEU A   4      -3.803  -4.773   0.000  0.00  0.00    +0.000 OA
ATOM     20  N   ALA A   5      -2.251  -4.741   0.000  0.00  0.00    +0.000 NA
ATOM     21  CA  ALA A   5      -2.521  -5.520   0.000  0.00  0.00    +0.000 C 
ATOM     22  C   ALA A   5      -1.981  -6.144   0.000  0.00  0.00    +0.000 C 
ATOM     23  O   ALA A   5      -2.484  -6.838   0.000  0.00  0.00    +0.000 OA
ATOM     24  N   ALA A   6      -1.171  -5.988   0.000  0.00  0.00    +0.000 NA
ATOM     25  CA  ALA A   6      -0.976  -6.789   0.000  0.00  0.00    +0.000 C 
ATOM     26  C   ALA A   6      -0.185  -7.022   0.000  0.00  0.00    +0.000 C 
ATOM     27  O   ALA A   6       0.054  -7.825   0.000  0.00  0.00    +0.000 OA
ATOM     28  N   LEU A   7       0.412  -6.452   0.000  0.00  0.00    +0.000 N 
ATOM     29  CA  LEU A   7       1.010  -7.022   0.000  0.00  0.00    +0.000 C 
ATOM     30  C   LEU A   7       1.801  -6.789   0.000  0.00  0.00    +0.000 C 
ATOM     31  O   LEU A   7       2.426  -7.336   0.000  0.00  0.00    +0.000 OA
ATOM     32  N   LEU A   8       1.996  -5.988   0.000  0.00  0.00    +0.000 N 
ATOM     33  CA  LEU A   8       2.806  -6.144   0.000  0.00  0.00    +0.000 C 
ATOM     34  C   LEU A   8       3.346  -5.520   0.000  0.00  0.00    +0.000 C 
ATOM     35  O   LEU A   8       4.178  -5.579   0.000  0.00  0.00    +0.000 OA
ATOM     36  N   VAL A   9       3.076  -4.741   0.000  0.00  0.00    +0.000 N 
ATOM     37  CA  VAL A   9       3.842  -4.434   0.000  0.00  0.00    +0.000 C 
ATOM     38  C   VAL A   9       3.959  -3.617   0.000  0.00  0.00    +0.000 C 
ATOM     39  O   VAL A   9       4.824  -3.385   0.000  0.00  0.00    +0.000 OA
ATOM     40  N   UNK A  10       3.311  -3.107   0.000  0.00  0.00    +0.000 N 
ATOM     41  C   UNK A  10       3.790  -2.435   0.000  0.00  0.00    +0.000 C 
ATOM     42  C   UNK A  10       3.447  -1.685   0.000  0.00  0.00    +0.000 C 
ATOM     43  O   UNK A  10       3.855  -0.952   0.000  0.00  0.00    +0.000 OA
ATOM     44  N   UNK A  11       2.626  -1.607   0.000  0.00  0.00    +0.000 NA
ATOM     45  C   UNK A   0       2.451  -3.124   0.000  0.00  0.00    +0.000 C 
ATOM     46  C   UNK A   0       2.312  -4.360   0.000  0.00  0.00    +0.000 C 
ATOM     47  C   UNK A   0       1.508  -5.288   0.000  0.00  0.00    +0.000 C 
ATOM     48  C   UNK A   0       0.280  -5.596   0.000  0.00  0.00    +0.000 C 
ATOM     49  CB  ALA A   6      -1.397  -7.570   0.000  0.00  0.00    +0.000 C 
ATOM     50  CB  ALA A   5      -3.294  -5.953   0.000  0.00  0.00    +0.000 C 
ATOM     51  C   UNK A   0      -1.619  -3.197   0.000  0.00  0.00    +0.000 C 
ATOM     52  CB  ALA A   1       1.183   0.819   0.000  0.00  0.00    +0.000 C 
ATOM     53  C   UNK A   0       0.850  -1.498   0.000  0.00  0.00    +0.000 C 
ENDROOT
BRANCH   9  54
ATOM     54  CB  VAL A   2      -1.132   0.728   0.000  0.00  0.00    +0.000 C 
ATOM     55  CG1 VAL A   2      -1.840   1.331   0.000  0.00  0.00    +0.000 C 
ATOM     56  CG2 VAL A   2      -0.456   1.474   0.000  0.00  0.00    +0.000 C 
ENDBRANCH   9  54
BRANCH  13  57
ATOM     57  CB  VAL A   3      -3.299  -1.045   0.000  0.00  0.00    +0.000 C 
ATOM     58  CG1 VAL A   3      -4.182  -1.135   0.000  0.00  0.00    +0.000 C 
ATOM     59  CG2 VAL A   3      -3.253  -0.086   0.000  0.00  0.00    +0.000 C 
ENDBRANCH  13  57
BRANCH  37  60
ATOM     60  CB  VAL A   9       4.608  -5.002   0.000  0.00  0.00    +0.000 C 
ATOM     61  CG1 VAL A   9       5.471  -4.812   0.000  0.00  0.00    +0.000 C 
ATOM     62  CG2 VAL A   9       4.675  -5.983   0.000  0.00  0.00    +0.000 C 
ENDBRANCH  37  60
BRANCH   1  64
ATOM     63  C   UNK A  11       3.585   0.531   0.000  0.00  0.00    +0.000 C 
ATOM     64  C   UNK A  11       3.466  -0.335   0.000  0.00  0.00    +0.000 C 
ENDBRANCH   1  64
BRANCH   8  65
ATOM     65  C   UNK A   0      -0.662   0.124   0.000  0.00  0.00    +0.000 C 
ATOM     66  C   UNK A   0      -1.574   0.197   0.000  0.00  0.00    +0.000 C 
ENDBRANCH   8  65
BRANCH  41  67
ATOM     67  C   UNK A  10       4.616  -2.163   0.000  0.00  0.00    +0.000 C 
ATOM     68  O   UNK A  10       5.257  -2.745   0.000  0.00  0.00    +0.000 OA
BRANCH  67  69
ATOM     69  C   UNK A  10       5.377  -1.793   0.000  0.00  0.00    +0.000 C 
ATOM     70  C   UNK A  10       6.061  -2.255   0.000  0.00  0.00    +0.000 C 
BRANCH  69  71
ATOM     71  C   UNK A  10       5.436  -0.970   0.000  0.00  0.00    +0.000 C 
BRANCH  71  72
ATOM     72  C   UNK A  10       6.178  -0.609   0.000  0.00  0.00    +0.000 C 
ATOM     73  C   UNK A  10       6.861  -1.071   0.000  0.00  0.00    +0.000 C 
ATOM     74  C   UNK A  10       7.603  -0.711   0.000  0.00  0.00    +0.000 C 
ENDBRANCH  71  72
ENDBRANCH  69  71
ENDBRANCH  67  69
ENDBRANCH  41  67
BRANCH  29  75
ATOM     75  CB  LEU A   7       0.769  -7.923   0.000  0.00  0.00    +0.000 C 
BRANCH  75  76
ATOM     76  CG  LEU A   7       1.389  -8.554   0.000  0.00  0.00    +0.000 C 
ATOM     77  CD1 LEU A   7       2.188  -8.348   0.000  0.00  0.00    +0.000 C 
ATOM     78  CD2 LEU A   7       1.168  -9.349   0.000  0.00  0.00    +0.000 C 
ENDBRANCH  75  76
ENDBRANCH  29  75
BRANCH  17  79
ATOM     79  CB  LEU A   4      -4.009  -3.321   0.000  0.00  0.00    +0.000 C 
BRANCH  79  80
ATOM     80  CG  LEU A   4      -4.728  -3.839   0.000  0.00  0.00    +0.000 C 
ATOM     81  CD1 LEU A   4      -4.645  -4.660   0.000  0.00  0.00    +0.000 C 
ATOM     82  CD2 LEU A   4      -5.480  -3.500   0.000  0.00  0.00    +0.000 C 
ENDBRANCH  79  80
ENDBRANCH  17  79
BRANCH  33  83
ATOM     83  CB  LEU A   8       3.065  -7.044   0.000  0.00  0.00    +0.000 C 
BRANCH  83  84
ATOM     84  CG  LEU A   8       3.881  -7.378   0.000  0.00  0.00    +0.000 C 
ATOM     85  CD1 LEU A   8       4.534  -6.873   0.000  0.00  0.00    +0.000 C 
ATOM     86  CD2 LEU A   8       3.993  -8.195   0.000  0.00  0.00    +0.000 C 
ENDBRANCH  83  84
ENDBRANCH  33  83
TORSDOF 15
