REMARK  Name = 
REMARK  4 active torsions:
REMARK  status: ('A' for Active; 'I' for Inactive)
REMARK    1  A    between atoms: C_4  and  C_6
REMARK    2  A    between atoms: C_4  and  C_19
REMARK    3  A    between atoms: N_18  and  C_19
REMARK    4  A    between atoms: C_19  and  C_20
REMARK                            x       y       z     vdW  Elec       q    Type
REMARK                         _______ _______ _______ _____ _____    ______ ____
ROOT
ATOM      1  C   UNL     1       0.908  -0.009   0.000  0.00  0.00    +0.000 C 
ENDROOT
BRANCH   1  11
ATOM      2  C   UNL     1      -1.567  -1.438   0.000  0.00  0.00    +0.000 A 
ATOM      3  C   UNL     1      -1.844  -2.743   0.000  0.00  0.00    +0.000 A 
ATOM      4  C   UNL     1      -0.329  -0.723   0.000  0.00  0.00    +0.000 C 
ATOM      5  S   UNL     1      -1.231  -2.191   0.000  0.00  0.00    +0.000 S 
ATOM      6  N   UNL     1      -2.387  -1.524   0.000  0.00  0.00    +0.000 NA
ATOM      7  N   UNL     1      -2.558  -2.331   0.000  0.00  0.00    +0.000 NA
ATOM      8  N   UNL     1      -1.154  -0.723   0.000  0.00  0.00    +0.000 NA
ATOM      9  S   UNL     1      -1.758  -3.564   0.000  0.00  0.00    +0.000 S 
ATOM     10  O   UNL     1       0.084  -1.438   0.000  0.00  0.00    +0.000 OA
ATOM     11  N   UNL     1       0.084  -0.009   0.000  0.00  0.00    +0.000 NA
ENDBRANCH   1  11
BRANCH   1  13
ATOM     12  C   UNL     1       2.558  -1.438   0.000  0.00  0.00    +0.000 C 
ATOM     13  C   UNL     1       1.321  -0.723   0.000  0.00  0.00    +0.000 C 
ATOM     14  O   UNL     1       0.908  -1.438   0.000  0.00  0.00    +0.000 OA
ATOM     15  N   UNL     1       2.146  -0.723   0.000  0.00  0.00    +0.000 NA
ENDBRANCH   1  13
BRANCH   1  16
ATOM     16  C   UNL     1       1.321   0.706   0.000  0.00  0.00    +0.000 C 
BRANCH  16  18
ATOM     17  C   UNL     1       1.321   2.135   0.000  0.00  0.00    +0.000 A 
ATOM     18  C   UNL     1       0.908   1.420   0.000  0.00  0.00    +0.000 A 
ATOM     19  C   UNL     1       0.084   1.420   0.000  0.00  0.00    +0.000 A 
ATOM     20  C   UNL     1      -0.329   2.135   0.000  0.00  0.00    +0.000 A 
ATOM     21  C   UNL     1       0.084   2.849   0.000  0.00  0.00    +0.000 A 
ATOM     22  C   UNL     1       0.908   2.849   0.000  0.00  0.00    +0.000 A 
ATOM     23  F   UNL     1      -0.329   0.706   0.000  0.00  0.00    +0.000 F 
ATOM     24  F   UNL     1      -1.154   2.135   0.000  0.00  0.00    +0.000 F 
ATOM     25  F   UNL     1      -0.329   3.564   0.000  0.00  0.00    +0.000 F 
ATOM     26  F   UNL     1       1.321   3.564   0.000  0.00  0.00    +0.000 F 
ATOM     27  F   UNL     1       2.146   2.135   0.000  0.00  0.00    +0.000 F 
ENDBRANCH  16  18
ENDBRANCH   1  16
TORSDOF 4
