REMARK  Name = 
REMARK  12 active torsions:
REMARK  status: ('A' for Active; 'I' for Inactive)
REMARK    1  A    between atoms: C_2  and  C_3
REMARK    2  A    between atoms: C_3  and  C_4
REMARK    3  A    between atoms: C_3  and  N_17
REMARK    4  A    between atoms: C_4  and  C_5
REMARK    5  A    between atoms: N_8  and  C_9
REMARK    6  A    between atoms: C_9  and  C_10
REMARK    7  A    between atoms: C_21  and  C_22
REMARK    8  A    between atoms: C_24  and  C_28
REMARK    9  A    between atoms: C_34  and  O_36
REMARK   10  A    between atoms: O_36  and  C_37
REMARK   11  A    between atoms: C_37  and  C_38
REMARK   12  A    between atoms: C_42  and  C_43
REMARK                            x       y       z     vdW  Elec       q    Type
REMARK                         _______ _______ _______ _____ _____    ______ ____
ROOT
ATOM      1  C   UNL     1      -0.347  -0.972   0.000  0.00  0.00    +0.000 A 
ATOM      2  C   UNL     1       0.438  -0.717   0.000  0.00  0.00    +0.000 A 
ATOM      3  C   UNL     1       0.923  -1.384   0.000  0.00  0.00    +0.000 A 
ATOM      4  N   UNL     1       0.438  -2.052   0.000  0.00  0.00    +0.000 NA
ATOM      5  N   UNL     1      -0.347  -1.797   0.000  0.00  0.00    +0.000 N 
ATOM      6  C   UNL     1      -1.014  -2.281   0.000  0.00  0.00    +0.000 C 
ENDROOT
BRANCH   3   7
ATOM      7  C   UNL     1       1.748  -1.384   0.000  0.00  0.00    +0.000 A 
ATOM      8  C   UNL     1       2.160  -0.670   0.000  0.00  0.00    +0.000 A 
ATOM      9  C   UNL     1       2.160  -2.099   0.000  0.00  0.00    +0.000 A 
ATOM     10 CL   UNL     1       1.748  -2.813   0.000  0.00  0.00    +0.000 Cl
ATOM     11  C   UNL     1       2.985  -2.099   0.000  0.00  0.00    +0.000 A 
ATOM     12 CL   UNL     1       3.398  -2.813   0.000  0.00  0.00    +0.000 Cl
ATOM     13  C   UNL     1       3.398  -1.384   0.000  0.00  0.00    +0.000 A 
ATOM     14  C   UNL     1       2.985  -0.670   0.000  0.00  0.00    +0.000 A 
BRANCH  13  15
ATOM     15  O   UNL     1       4.223  -1.384   0.000  0.00  0.00    +0.000 OA
BRANCH  15  16
ATOM     16  C   UNL     1       4.635  -0.670   0.000  0.00  0.00    +0.000 C 
BRANCH  16  17
ATOM     17  C   UNL     1       5.460  -0.670   0.000  0.00  0.00    +0.000 A 
ATOM     18  C   UNL     1       5.945  -1.337   0.000  0.00  0.00    +0.000 A 
ATOM     19  O   UNL     1       5.945  -0.002   0.000  0.00  0.00    +0.000 OA
ATOM     20  C   UNL     1       6.730  -1.082   0.000  0.00  0.00    +0.000 A 
ATOM     21  C   UNL     1       6.730  -0.257   0.000  0.00  0.00    +0.000 A 
BRANCH  21  22
ATOM     22  C   UNL     1       7.444   0.155   0.000  0.00  0.00    +0.000 C 
ATOM     23  O   UNL     1       7.444   0.980   0.000  0.00  0.00    +0.000 OA
ATOM     24  O   UNL     1       8.159  -0.257   0.000  0.00  0.00    +0.000 OA
ENDBRANCH  21  22
ENDBRANCH  16  17
ENDBRANCH  15  16
ENDBRANCH  13  15
ENDBRANCH   3   7
BRANCH   1  32
ATOM     25  C   UNL     1      -3.157   0.751   0.000  0.00  0.00    +0.000 C 
ATOM     26  O   UNL     1      -3.157   1.576   0.000  0.00  0.00    +0.000 OA
ATOM     27  N   UNL     1      -2.443   0.338   0.000  0.00  0.00    +0.000 N 
ATOM     28  C   UNL     1      -2.443  -0.487   0.000  0.00  0.00    +0.000 C 
ATOM     29  C   UNL     1      -1.729  -0.899   0.000  0.00  0.00    +0.000 C 
ATOM     30  C   UNL     1      -1.014   0.338   0.000  0.00  0.00    +0.000 C 
ATOM     31  C   UNL     1      -1.729   0.751   0.000  0.00  0.00    +0.000 C 
ATOM     32  C   UNL     1      -1.014  -0.487   0.000  0.00  0.00    +0.000 C 
BRANCH  25  33
ATOM     33  C   UNL     1      -3.872   0.338   0.000  0.00  0.00    +0.000 C 
BRANCH  33  36
ATOM     34  O   UNL     1      -5.301  -0.487   0.000  0.00  0.00    +0.000 OA
ATOM     35  C   UNL     1      -5.301   0.338   0.000  0.00  0.00    +0.000 C 
ATOM     36  N   UNL     1      -4.587   0.751   0.000  0.00  0.00    +0.000 NA
BRANCH  35  37
ATOM     37  C   UNL     1      -6.015   0.751   0.000  0.00  0.00    +0.000 C 
BRANCH  37  38
ATOM     38  N   UNL     1      -6.730   0.338   0.000  0.00  0.00    +0.000 NA
ATOM     39  C   UNL     1      -7.444   0.751   0.000  0.00  0.00    +0.000 C 
ATOM     40  N   UNL     1      -8.159   0.338   0.000  0.00  0.00    +0.000 NA
ATOM     41  N   UNL     1      -7.444   1.576   0.000  0.00  0.00    +0.000 NA
ENDBRANCH  37  38
BRANCH  37  42
ATOM     42  C   UNL     1      -6.015   1.576   0.000  0.00  0.00    +0.000 C 
BRANCH  42  43
ATOM     43  C   UNL     1      -5.301   1.988   0.000  0.00  0.00    +0.000 C 
ATOM     44  C   UNL     1      -4.587   1.576   0.000  0.00  0.00    +0.000 C 
ATOM     45  C   UNL     1      -5.301   2.813   0.000  0.00  0.00    +0.000 C 
ENDBRANCH  42  43
ENDBRANCH  37  42
ENDBRANCH  35  37
ENDBRANCH  33  36
ENDBRANCH  25  33
ENDBRANCH   1  32
TORSDOF 12
