REMARK  Name = 
REMARK  4 active torsions:
REMARK  status: ('A' for Active; 'I' for Inactive)
REMARK    1  A    between atoms: C_1  and  C_2
REMARK    2  A    between atoms: C_5  and  C_10
REMARK    3  A    between atoms: C_11  and  C_12
REMARK    4  A    between atoms: C_12  and  C_14
REMARK                            x       y       z     vdW  Elec       q    Type
REMARK                         _______ _______ _______ _____ _____    ______ ____
ROOT
ATOM      1  C   UNL     1       1.380  -0.025   0.000  0.00  0.00    +0.000 A 
ATOM      2  C   UNL     1       1.380   0.800   0.000  0.00  0.00    +0.000 A 
ATOM      3  C   UNL     1       2.095   1.213   0.000  0.00  0.00    +0.000 A 
ATOM      4  C   UNL     1       2.809   0.800   0.000  0.00  0.00    +0.000 A 
ATOM      5  C   UNL     1       2.809  -0.025   0.000  0.00  0.00    +0.000 A 
ATOM      6  C   UNL     1       3.523  -0.437   0.000  0.00  0.00    +0.000 C 
ATOM      7  C   UNL     1       3.523  -1.262   0.000  0.00  0.00    +0.000 C 
ATOM      8  C   UNL     1       2.809  -1.675   0.000  0.00  0.00    +0.000 C 
ATOM      9  C   UNL     1       2.095  -1.262   0.000  0.00  0.00    +0.000 C 
ATOM     10  C   UNL     1       2.095  -0.437   0.000  0.00  0.00    +0.000 A 
ATOM     11  C   UNL     1       1.812  -2.038   0.000  0.00  0.00    +0.000 C 
ATOM     12  C   UNL     1       1.282  -1.119   0.000  0.00  0.00    +0.000 C 
ATOM     13  C   UNL     1       3.806   0.338   0.000  0.00  0.00    +0.000 C 
ATOM     14  C   UNL     1       4.336  -0.581   0.000  0.00  0.00    +0.000 C 
ENDROOT
BRANCH   2  15
ATOM     15  C   UNL     1       0.665   1.213   0.000  0.00  0.00    +0.000 C 
ATOM     16  O   UNL     1       0.665   2.038   0.000  0.00  0.00    +0.000 OA
BRANCH  15  18
ATOM     17  C   UNL     1      -0.763   1.213   0.000  0.00  0.00    +0.000 C 
ATOM     18  C   UNL     1      -0.049   0.800   0.000  0.00  0.00    +0.000 C 
BRANCH  17  22
ATOM     19  C   UNL     1      -2.907  -0.025   0.000  0.00  0.00    +0.000 A 
ATOM     20  C   UNL     1      -2.907   0.800   0.000  0.00  0.00    +0.000 A 
ATOM     21  C   UNL     1      -2.192   1.213   0.000  0.00  0.00    +0.000 A 
ATOM     22  C   UNL     1      -1.478   0.800   0.000  0.00  0.00    +0.000 A 
ATOM     23  C   UNL     1      -1.478  -0.025   0.000  0.00  0.00    +0.000 A 
ATOM     24  C   UNL     1      -2.192  -0.437   0.000  0.00  0.00    +0.000 A 
BRANCH  19  25
ATOM     25  C   UNL     1      -3.622  -0.437   0.000  0.00  0.00    +0.000 C 
ATOM     26  O   UNL     1      -3.622  -1.262   0.000  0.00  0.00    +0.000 OA
ATOM     27  O   UNL     1      -4.336  -0.025   0.000  0.00  0.00    +0.000 OA
ENDBRANCH  19  25
ENDBRANCH  17  22
ENDBRANCH  15  18
ENDBRANCH   2  15
TORSDOF 4
