REMARK  Name = 
REMARK  6 active torsions:
REMARK  status: ('A' for Active; 'I' for Inactive)
REMARK    1  A    between atoms: C_2  and  S_3
REMARK    2  A    between atoms: S_3  and  N_6
REMARK    3  A    between atoms: C_8  and  C_10
REMARK    4  A    between atoms: C_8  and  N_13
REMARK    5  A    between atoms: C_10  and  C_11
REMARK    6  A    between atoms: C_15  and  C_18
REMARK                            x       y       z     vdW  Elec       q    Type
REMARK                         _______ _______ _______ _____ _____    ______ ____
ROOT
ATOM      1  N   UNL     1       0.302  -2.507   0.000  0.00  0.00    +0.000 N 
ATOM      2  C   UNL     1       0.047  -1.722   0.000  0.00  0.00    +0.000 A 
ATOM      3  C   UNL     1       0.715  -1.238   0.000  0.00  0.00    +0.000 A 
ATOM      4  C   UNL     1       1.382  -1.722   0.000  0.00  0.00    +0.000 A 
ATOM      5  N   UNL     1       1.127  -2.507   0.000  0.00  0.00    +0.000 NA
ENDROOT
BRANCH   3   6
ATOM      6  C   UNL     1       0.715  -0.412   0.000  0.00  0.00    +0.000 A 
ATOM      7  C   UNL     1       0.000   0.000   0.000  0.00  0.00    +0.000 A 
ATOM      8  C   UNL     1      -0.785  -0.255   0.000  0.00  0.00    +0.000 A 
ATOM      9  C   UNL     1      -1.270   0.412   0.000  0.00  0.00    +0.000 A 
ATOM     10  N   UNL     1      -0.785   1.080   0.000  0.00  0.00    +0.000 NA
ATOM     11  C   UNL     1       0.000   0.825   0.000  0.00  0.00    +0.000 A 
ATOM     12  N   UNL     1       0.715   1.238   0.000  0.00  0.00    +0.000 NA
ATOM     13  C   UNL     1       1.429   0.825   0.000  0.00  0.00    +0.000 A 
ATOM     14  N   UNL     1       1.429   0.000   0.000  0.00  0.00    +0.000 NA
ENDBRANCH   3   6
BRANCH   1  17
ATOM     15  N   UNL     1      -0.275  -4.338   0.000  0.00  0.00    +0.000 NA
ATOM     16  C   UNL     1      -0.810  -3.710   0.000  0.00  0.00    +0.000 C 
ATOM     17  C   UNL     1      -0.183  -3.175   0.000  0.00  0.00    +0.000 C 
ATOM     18  C   UNL     1       0.353  -3.802   0.000  0.00  0.00    +0.000 C 
BRANCH  15  19
ATOM     19  S   UNL     1      -0.339  -5.160   0.000  0.00  0.00    +0.000 S 
ATOM     20  O   UNL     1       0.483  -5.225   0.000  0.00  0.00    +0.000 OA
ATOM     21  O   UNL     1      -1.162  -5.095   0.000  0.00  0.00    +0.000 OA
BRANCH  19  23
ATOM     22  C   UNL     1       0.276  -6.450   0.000  0.00  0.00    +0.000 C 
ATOM     23  C   UNL     1      -0.404  -5.982   0.000  0.00  0.00    +0.000 C 
ENDBRANCH  19  23
ENDBRANCH  15  19
BRANCH  17  24
ATOM     24  C   UNL     1      -0.557  -2.439   0.000  0.00  0.00    +0.000 C 
BRANCH  24  25
ATOM     25  C   UNL     1      -1.381  -2.396   0.000  0.00  0.00    +0.000 C 
ATOM     26  N   UNL     1      -2.205  -2.353   0.000  0.00  0.00    +0.000 NA
ENDBRANCH  24  25
ENDBRANCH  17  24
ENDBRANCH   1  17
TORSDOF 6
