REMARK  Name = 
REMARK  4 active torsions:
REMARK  status: ('A' for Active; 'I' for Inactive)
REMARK    1  A    between atoms: N_4  and  C_6
REMARK    2  A    between atoms: C_10  and  C_12
REMARK    3  A    between atoms: C_20  and  C_21
REMARK    4  A    between atoms: C_21  and  C_23
REMARK                            x       y       z     vdW  Elec       q    Type
REMARK                         _______ _______ _______ _____ _____    ______ ____
ROOT
ATOM      1  C   UNL     1       3.279   1.238   0.000  0.00  0.00    +0.000 A 
ATOM      2  C   UNL     1       3.993   0.825   0.000  0.00  0.00    +0.000 A 
ATOM      3  C   UNL     1       3.993   0.000   0.000  0.00  0.00    +0.000 A 
ATOM      4  N   UNL     1       3.279  -0.412   0.000  0.00  0.00    +0.000 NA
ATOM      5  C   UNL     1       2.564   0.000   0.000  0.00  0.00    +0.000 A 
ATOM      6  N   UNL     1       2.564   0.825   0.000  0.00  0.00    +0.000 N 
ATOM      7  N   UNL     1       1.780   1.080   0.000  0.00  0.00    +0.000 NA
ATOM      8  C   UNL     1       1.295   0.412   0.000  0.00  0.00    +0.000 A 
ATOM      9  C   UNL     1       1.780  -0.255   0.000  0.00  0.00    +0.000 A 
ENDROOT
BRANCH   1  14
ATOM     10  C   UNL     1       2.564   3.300   0.000  0.00  0.00    +0.000 A 
ATOM     11  C   UNL     1       3.279   3.712   0.000  0.00  0.00    +0.000 A 
ATOM     12  C   UNL     1       3.993   3.300   0.000  0.00  0.00    +0.000 A 
ATOM     13  C   UNL     1       3.993   2.475   0.000  0.00  0.00    +0.000 A 
ATOM     14  C   UNL     1       3.279   2.062   0.000  0.00  0.00    +0.000 A 
ATOM     15  C   UNL     1       2.564   2.475   0.000  0.00  0.00    +0.000 A 
BRANCH  10  19
ATOM     16  C   UNL     1       1.135   4.950   0.000  0.00  0.00    +0.000 C 
ATOM     17  C   UNL     1       1.850   4.537   0.000  0.00  0.00    +0.000 C 
ATOM     18  O   UNL     1       2.564   4.950   0.000  0.00  0.00    +0.000 OA
ATOM     19  N   UNL     1       1.850   3.712   0.000  0.00  0.00    +0.000 N 
ATOM     20  C   UNL     1       1.135   3.300   0.000  0.00  0.00    +0.000 C 
ENDBRANCH  10  19
ENDBRANCH   1  14
BRANCH   9  21
ATOM     21  C   UNL     1       1.525  -1.040   0.000  0.00  0.00    +0.000 C 
ATOM     22  O   UNL     1       2.077  -1.653   0.000  0.00  0.00    +0.000 OA
BRANCH  21  23
ATOM     23  C   UNL     1       0.718  -1.211   0.000  0.00  0.00    +0.000 A 
ATOM     24  C   UNL     1       0.382  -1.965   0.000  0.00  0.00    +0.000 A 
ATOM     25  C   UNL     1      -0.438  -1.879   0.000  0.00  0.00    +0.000 A 
ATOM     26  C   UNL     1      -0.610  -1.072   0.000  0.00  0.00    +0.000 A 
ATOM     27  S   UNL     1       0.105  -0.659   0.000  0.00  0.00    +0.000 S 
ENDBRANCH  21  23
ENDBRANCH   9  21
TORSDOF 4
