REMARK  Name = 
REMARK  2 active torsions:
REMARK  status: ('A' for Active; 'I' for Inactive)
REMARK    1  A    between atoms: N_1  and  C_11
REMARK    2  A    between atoms: C_30  and  N_33
REMARK                            x       y       z     vdW  Elec       q    Type
REMARK                         _______ _______ _______ _____ _____    ______ ____
ROOT
ATOM      1  C   UNL     1       2.053  -1.371   0.000  0.00  0.00    +0.000 C 
ATOM      2  O   UNL     1       2.364  -0.608   0.000  0.00  0.00    +0.000 OA
ATOM      3  C   UNL     1       1.703  -0.116   0.000  0.00  0.00    +0.000 C 
ATOM      4  C   UNL     1       1.957   0.665   0.000  0.00  0.00    +0.000 C 
ATOM      5  O   UNL     1       1.753   1.464   0.000  0.00  0.00    +0.000 OA
ATOM      6  P   UNL     1       1.145   2.023   0.000  0.00  0.00    +0.000 P 
ATOM      7  O   UNL     1       0.332   2.168   0.000  0.00  0.00    +0.000 OA
ATOM      8  C   UNL     1      -0.430   1.845   0.000  0.00  0.00    +0.000 C 
ATOM      9  C   UNL     1      -0.897   1.166   0.000  0.00  0.00    +0.000 C 
ATOM     10  C   UNL     1      -0.897   0.343   0.000  0.00  0.00    +0.000 C 
ATOM     11  O   UNL     1      -0.497  -0.366   0.000  0.00  0.00    +0.000 OA
ATOM     12  P   UNL     1      -0.454  -0.972   0.000  0.00  0.00    +0.000 P 
ATOM     13  S   UNL     1       0.157  -0.435   0.000  0.00  0.00    +0.000 S 
ATOM     14  O   UNL     1       0.333  -1.550   0.000  0.00  0.00    +0.000 OA
ATOM     15  C   UNL     1       1.158  -1.457   0.000  0.00  0.00    +0.000 C 
ATOM     16  C   UNL     1       1.060  -0.637   0.000  0.00  0.00    +0.000 C 
ATOM     17  O   UNL     1       0.366   0.351   0.000  0.00  0.00    +0.000 OA
ATOM     18  O   UNL     1      -1.097  -1.449   0.000  0.00  0.00    +0.000 OA
ATOM     19  O   UNL     1      -1.710   1.403   0.000  0.00  0.00    +0.000 OA
ATOM     20  C   UNL     1      -1.710   2.226   0.000  0.00  0.00    +0.000 C 
ATOM     21  C   UNL     1      -0.930   2.502   0.000  0.00  0.00    +0.000 C 
ATOM     22  O   UNL     1      -0.698   3.294   0.000  0.00  0.00    +0.000 OA
ATOM     23  S   UNL     1       1.871   2.413   0.000  0.00  0.00    +0.000 S 
ATOM     24  O   UNL     1       1.013   2.839   0.000  0.00  0.00    +0.000 OA
ENDROOT
BRANCH   1  25
ATOM     25  N   UNL     1       2.546  -2.025   0.000  0.00  0.00    +0.000 N 
ATOM     26  C   UNL     1       2.300  -2.821   0.000  0.00  0.00    +0.000 A 
ATOM     27  N   UNL     1       2.971  -3.300   0.000  0.00  0.00    +0.000 NA
ATOM     28  C   UNL     1       3.635  -2.807   0.000  0.00  0.00    +0.000 A 
ATOM     29  C   UNL     1       4.442  -2.970   0.000  0.00  0.00    +0.000 A 
ATOM     30  N   UNL     1       4.989  -2.352   0.000  0.00  0.00    +0.000 NA
ATOM     31  C   UNL     1       4.723  -1.570   0.000  0.00  0.00    +0.000 A 
ATOM     32  N   UNL     1       3.916  -1.406   0.000  0.00  0.00    +0.000 NA
ATOM     33  C   UNL     1       3.370  -2.025   0.000  0.00  0.00    +0.000 A 
ATOM     34  N   UNL     1       4.708  -3.753   0.000  0.00  0.00    +0.000 NA
ENDBRANCH   1  25
BRANCH  20  35
ATOM     35  N   UNL     1      -2.389   2.693   0.000  0.00  0.00    +0.000 N 
ATOM     36  C   UNL     1      -2.389   3.516   0.000  0.00  0.00    +0.000 A 
ATOM     37  N   UNL     1      -3.203   3.753   0.000  0.00  0.00    +0.000 NA
ATOM     38  C   UNL     1      -3.670   3.069   0.000  0.00  0.00    +0.000 A 
ATOM     39  C   UNL     1      -4.480   2.965   0.000  0.00  0.00    +0.000 A 
ATOM     40  N   UNL     1      -4.802   2.201   0.000  0.00  0.00    +0.000 NA
ATOM     41  C   UNL     1      -4.298   1.549   0.000  0.00  0.00    +0.000 A 
ATOM     42  N   UNL     1      -3.481   1.657   0.000  0.00  0.00    +0.000 NA
ATOM     43  C   UNL     1      -3.165   2.417   0.000  0.00  0.00    +0.000 A 
ATOM     44  N   UNL     1      -4.989   3.617   0.000  0.00  0.00    +0.000 NA
ENDBRANCH  20  35
TORSDOF 2
