REMARK  Name = 
REMARK  12 active torsions:
REMARK  status: ('A' for Active; 'I' for Inactive)
REMARK    1  A    between atoms: C_2  and  C_32
REMARK    2  A    between atoms: N_9  and  C_25
REMARK    3  A    between atoms: N_10  and  C_11
REMARK    4  A    between atoms: C_11  and  C_12
REMARK    5  A    between atoms: C_12  and  C_13
REMARK    6  A    between atoms: C_12  and  C_14
REMARK    7  A    between atoms: C_27  and  C_42
REMARK    8  A    between atoms: N_34  and  C_35
REMARK    9  A    between atoms: C_35  and  C_36
REMARK   10  A    between atoms: C_36  and  N_37
REMARK   11  A    between atoms: N_39  and  C_41
REMARK   12  A    between atoms: N_43  and  C_45
REMARK                            x       y       z     vdW  Elec       q    Type
REMARK                         _______ _______ _______ _____ _____    ______ ____
ROOT
ATOM      1  N   UNL     1      -2.306  -1.176   0.000  0.00  0.00    +0.000 NA
ATOM      2  C   UNL     1      -1.590  -0.763   0.000  0.00  0.00    +0.000 A 
ATOM      3  N   UNL     1      -1.593   0.068   0.000  0.00  0.00    +0.000 NA
ATOM      4  C   UNL     1      -2.308   0.477   0.000  0.00  0.00    +0.000 A 
ATOM      5  C   UNL     1      -3.021  -0.763   0.000  0.00  0.00    +0.000 A 
ATOM      6  C   UNL     1      -3.020   0.065   0.000  0.00  0.00    +0.000 A 
ATOM      7  N   UNL     1      -3.808   0.323   0.000  0.00  0.00    +0.000 NA
ATOM      8  C   UNL     1      -4.296  -0.347   0.000  0.00  0.00    +0.000 A 
ATOM      9  N   UNL     1      -3.810  -1.018   0.000  0.00  0.00    +0.000 N 
ATOM     10  N   UNL     1      -2.310   1.302   0.000  0.00  0.00    +0.000 NA
ENDROOT
BRANCH   9  11
ATOM     11  C   UNL     1      -4.066  -1.807   0.000  0.00  0.00    +0.000 C 
ATOM     12  O   UNL     1      -4.851  -2.061   0.000  0.00  0.00    +0.000 OA
ATOM     13  C   UNL     1      -4.853  -2.886   0.000  0.00  0.00    +0.000 C 
ATOM     14  C   UNL     1      -4.068  -3.142   0.000  0.00  0.00    +0.000 C 
ATOM     15  C   UNL     1      -3.582  -2.475   0.000  0.00  0.00    +0.000 C 
ATOM     16  O   UNL     1      -3.814  -3.927   0.000  0.00  0.00    +0.000 OA
ATOM     17  O   UNL     1      -2.757  -2.476   0.000  0.00  0.00    +0.000 OA
BRANCH  13  18
ATOM     18  C   UNL     1      -5.521  -3.370   0.000  0.00  0.00    +0.000 C 
ATOM     19  N   UNL     1      -6.274  -3.034   0.000  0.00  0.00    +0.000 NA
ATOM     20  O   UNL     1      -5.436  -4.191   0.000  0.00  0.00    +0.000 OA
BRANCH  19  21
ATOM     21  C   UNL     1      -6.942  -3.518   0.000  0.00  0.00    +0.000 C 
ATOM     22  C   UNL     1      -7.696  -3.181   0.000  0.00  0.00    +0.000 C 
ENDBRANCH  19  21
ENDBRANCH  13  18
ENDBRANCH   9  11
BRANCH   2  23
ATOM     23  C   UNL     1      -0.875  -1.174   0.000  0.00  0.00    +0.000 C 
ATOM     24  O   UNL     1      -0.873  -1.999   0.000  0.00  0.00    +0.000 OA
ATOM     25  N   UNL     1      -0.161  -0.760   0.000  0.00  0.00    +0.000 NA
BRANCH  25  26
ATOM     26  C   UNL     1       0.554  -1.172   0.000  0.00  0.00    +0.000 C 
BRANCH  26  27
ATOM     27  C   UNL     1       1.268  -0.758   0.000  0.00  0.00    +0.000 C 
BRANCH  27  28
ATOM     28  N   UNL     1       1.983  -1.170   0.000  0.00  0.00    +0.000 NA
ATOM     29  C   UNL     1       2.697  -0.756   0.000  0.00  0.00    +0.000 C 
ATOM     30  N   UNL     1       3.412  -1.167   0.000  0.00  0.00    +0.000 NA
ATOM     31  O   UNL     1       2.696   0.069   0.000  0.00  0.00    +0.000 OA
BRANCH  30  32
ATOM     32  C   UNL     1       4.126  -0.754   0.000  0.00  0.00    +0.000 C 
ATOM     33  C   UNL     1       4.838  -1.169   0.000  0.00  0.00    +0.000 C 
ATOM     34  C   UNL     1       5.550  -0.759   0.000  0.00  0.00    +0.000 C 
ATOM     35  N   UNL     1       5.553   0.066   0.000  0.00  0.00    +0.000 N 
ATOM     36  C   UNL     1       4.838   0.480   0.000  0.00  0.00    +0.000 C 
ATOM     37  C   UNL     1       4.120   0.068   0.000  0.00  0.00    +0.000 C 
ATOM     38  C   UNL     1       6.265   0.478   0.000  0.00  0.00    +0.000 A 
ATOM     39  N   UNL     1       6.978   0.062   0.000  0.00  0.00    +0.000 NA
ATOM     40  C   UNL     1       7.693   0.472   0.000  0.00  0.00    +0.000 A 
ATOM     41  C   UNL     1       7.696   1.298   0.000  0.00  0.00    +0.000 A 
ATOM     42  C   UNL     1       6.977   1.712   0.000  0.00  0.00    +0.000 A 
ATOM     43  C   UNL     1       6.265   1.300   0.000  0.00  0.00    +0.000 A 
ENDBRANCH  30  32
ENDBRANCH  27  28
ENDBRANCH  26  27
ENDBRANCH  25  26
ENDBRANCH   2  23
BRANCH  10  44
ATOM     44  C   UNL     1      -1.596   1.716   0.000  0.00  0.00    +0.000 C 
BRANCH  44  45
ATOM     45  C   UNL     1      -1.598   2.541   0.000  0.00  0.00    +0.000 C 
BRANCH  45  46
ATOM     46  C   UNL     1      -0.885   2.955   0.000  0.00  0.00    +0.000 A 
ATOM     47  C   UNL     1      -0.171   2.541   0.000  0.00  0.00    +0.000 A 
ATOM     48  C   UNL     1       0.542   2.954   0.000  0.00  0.00    +0.000 A 
ATOM     49  C   UNL     1       0.541   3.780   0.000  0.00  0.00    +0.000 A 
ATOM     50  C   UNL     1      -0.179   4.191   0.000  0.00  0.00    +0.000 A 
ATOM     51  C   UNL     1      -0.889   3.775   0.000  0.00  0.00    +0.000 A 
ENDBRANCH  45  46
BRANCH  45  52
ATOM     52  C   UNL     1      -2.313   2.952   0.000  0.00  0.00    +0.000 A 
ATOM     53  C   UNL     1      -2.312   3.774   0.000  0.00  0.00    +0.000 A 
ATOM     54  C   UNL     1      -3.026   4.185   0.000  0.00  0.00    +0.000 A 
ATOM     55  C   UNL     1      -3.741   3.771   0.000  0.00  0.00    +0.000 A 
ATOM     56  C   UNL     1      -3.736   2.942   0.000  0.00  0.00    +0.000 A 
ATOM     57  C   UNL     1      -3.021   2.534   0.000  0.00  0.00    +0.000 A 
ENDBRANCH  45  52
ENDBRANCH  44  45
ENDBRANCH  10  44
TORSDOF 12
