REMARK  Name = 
REMARK  3 active torsions:
REMARK  status: ('A' for Active; 'I' for Inactive)
REMARK    1  A    between atoms: C_3  and  O_6
REMARK    2  A    between atoms: C_3  and  C_7
REMARK    3  A    between atoms: O_6  and  C_12
REMARK                            x       y       z     vdW  Elec       q    Type
REMARK                         _______ _______ _______ _____ _____    ______ ____
ROOT
ATOM      1  C   UNL     1       0.712   1.659   0.000  0.00  0.00    +0.000 C 
ATOM      2  C   UNL     1       0.712   0.834   0.000  0.00  0.00    +0.000 C 
ATOM      3  C   UNL     1       1.424   1.250   0.000  0.00  0.00    +0.000 C 
ATOM      4  C   UNL     1       0.712   0.001   0.000  0.00  0.00    +0.000 C 
ATOM      5  C   UNL     1      -0.001   1.250   0.000  0.00  0.00    +0.000 C 
ATOM      6  C   UNL     1       2.137   0.834   0.000  0.00  0.00    +0.000 C 
ATOM      7  C   UNL     1      -0.001  -0.415   0.000  0.00  0.00    +0.000 C 
ATOM      8  C   UNL     1       2.137   0.001   0.000  0.00  0.00    +0.000 C 
ATOM      9  C   UNL     1      -0.714   0.834   0.000  0.00  0.00    +0.000 C 
ATOM     10  C   UNL     1      -0.714   0.001   0.000  0.00  0.00    +0.000 C 
ATOM     11  C   UNL     1      -0.001  -1.246   0.000  0.00  0.00    +0.000 C 
ATOM     12  C   UNL     1      -1.426  -0.415   0.000  0.00  0.00    +0.000 C 
ATOM     13  C   UNL     1      -0.714  -1.662   0.000  0.00  0.00    +0.000 C 
ATOM     14  C   UNL     1      -1.426  -1.246   0.000  0.00  0.00    +0.000 C 
ATOM     15  C   UNL     1      -2.141   0.001   0.000  0.00  0.00    +0.000 C 
ATOM     16  C   UNL     1      -0.714  -2.487   0.000  0.00  0.00    +0.000 C 
ATOM     17  C   UNL     1      -2.141  -1.662   0.000  0.00  0.00    +0.000 C 
ATOM     18  C   UNL     1      -2.853  -0.415   0.000  0.00  0.00    +0.000 C 
ATOM     19  C   UNL     1      -2.853  -1.246   0.000  0.00  0.00    +0.000 C 
ATOM     20  O   UNL     1      -3.568  -1.657   0.000  0.00  0.00    +0.000 OA
ENDROOT
BRANCH   3  21
ATOM     21  C   UNL     1       1.424   2.075   0.000  0.00  0.00    +0.000 C 
ATOM     22  C   UNL     1       2.139   2.487   0.000  0.00  0.00    +0.000 C 
ATOM     23  O   UNL     1       0.709   2.487   0.000  0.00  0.00    +0.000 OA
ENDBRANCH   3  21
BRANCH   3  24
ATOM     24  O   UNL     1       2.139   1.662   0.000  0.00  0.00    +0.000 OA
BRANCH  24  25
ATOM     25  C   UNL     1       2.853   1.250   0.000  0.00  0.00    +0.000 C 
ATOM     26  C   UNL     1       3.568   1.662   0.000  0.00  0.00    +0.000 C 
ATOM     27  O   UNL     1       2.853   0.425   0.000  0.00  0.00    +0.000 OA
ENDBRANCH  24  25
ENDBRANCH   3  24
TORSDOF 3
