REMARK  Name = 
REMARK  3 active torsions:
REMARK  status: ('A' for Active; 'I' for Inactive)
REMARK    1  A    between atoms: C_2  and  O_4
REMARK    2  A    between atoms: O_4  and  C_5
REMARK    3  A    between atoms: C_15  and  C_17
REMARK                            x       y       z     vdW  Elec       q    Type
REMARK                         _______ _______ _______ _____ _____    ______ ____
ROOT
ATOM      1  C   UNL     1       3.728   1.944   0.000  0.00  0.00    +0.000 C 
ATOM      2  C   UNL     1       3.370   1.201   0.000  0.00  0.00    +0.000 C 
ATOM      3  O   UNL     1       3.884   0.556   0.000  0.00  0.00    +0.000 OA
ATOM      4  N   UNL     1       2.566   1.017   0.000  0.00  0.00    +0.000 N 
ATOM      5  C   UNL     1       1.921   1.532   0.000  0.00  0.00    +0.000 A 
ATOM      6  C   UNL     1       1.206   1.119   0.000  0.00  0.00    +0.000 A 
ATOM      7  C   UNL     1       0.492   1.532   0.000  0.00  0.00    +0.000 A 
ATOM      8  C   UNL     1       0.492   2.357   0.000  0.00  0.00    +0.000 A 
ATOM      9  C   UNL     1       1.206   2.769   0.000  0.00  0.00    +0.000 A 
ATOM     10  C   UNL     1       1.921   2.357   0.000  0.00  0.00    +0.000 A 
ATOM     11  C   UNL     1       2.566   2.871   0.000  0.00  0.00    +0.000 C 
ATOM     12  N   UNL     1       3.370   2.687   0.000  0.00  0.00    +0.000 NA
ATOM     13 CL   UNL     1      -0.223   2.769   0.000  0.00  0.00    +0.000 Cl
ATOM     14  C   UNL     1       2.382   0.213   0.000  0.00  0.00    +0.000 C 
ENDROOT
BRANCH  11  15
ATOM     15  C   UNL     1       2.382   3.675   0.000  0.00  0.00    +0.000 A 
ATOM     16  C   UNL     1       1.594   3.918   0.000  0.00  0.00    +0.000 A 
ATOM     17  C   UNL     1       1.410   4.723   0.000  0.00  0.00    +0.000 A 
ATOM     18  C   UNL     1       2.015   5.284   0.000  0.00  0.00    +0.000 A 
ATOM     19  C   UNL     1       2.803   5.041   0.000  0.00  0.00    +0.000 A 
ATOM     20  C   UNL     1       2.987   4.237   0.000  0.00  0.00    +0.000 A 
ENDBRANCH  11  15
BRANCH   1  21
ATOM     21  O   UNL     1       4.553   1.944   0.000  0.00  0.00    +0.000 OA
BRANCH  21  23
ATOM     22  C   UNL     1       5.790   1.230   0.000  0.00  0.00    +0.000 C 
ATOM     23  C   UNL     1       4.965   1.230   0.000  0.00  0.00    +0.000 C 
ATOM     24  O   UNL     1       4.553   0.515   0.000  0.00  0.00    +0.000 OA
ENDBRANCH  21  23
ENDBRANCH   1  21
TORSDOF 3
