REMARK  Name = 
REMARK  2 active torsions:
REMARK  status: ('A' for Active; 'I' for Inactive)
REMARK    1  A    between atoms: N_6  and  C_8
REMARK    2  A    between atoms: C_11  and  C_12
REMARK                            x       y       z     vdW  Elec       q    Type
REMARK                         _______ _______ _______ _____ _____    ______ ____
ROOT
ATOM      1  O   UNL     1       2.608   1.877   0.000  0.00  0.00    +0.000 OA
ATOM      2  O   UNL     1       1.179   4.352   0.000  0.00  0.00    +0.000 OA
ATOM      3  N   UNL     1       1.179   1.877   0.000  0.00  0.00    +0.000 N 
ATOM      4  N   UNL     1       1.893   3.114   0.000  0.00  0.00    +0.000 NA
ATOM      5  C   UNL     1       0.464   2.289   0.000  0.00  0.00    +0.000 A 
ATOM      6  C   UNL     1       1.893   2.289   0.000  0.00  0.00    +0.000 A 
ATOM      7  C   UNL     1       0.464   3.114   0.000  0.00  0.00    +0.000 A 
ATOM      8  C   UNL     1       1.179   3.527   0.000  0.00  0.00    +0.000 A 
ATOM      9  C   UNL     1      -0.250   3.527   0.000  0.00  0.00    +0.000 C 
ENDROOT
BRANCH   3  12
ATOM     10  F   UNL     1       0.281  -0.885   0.000  0.00  0.00    +0.000 F 
ATOM     11  O   UNL     1       1.846   0.567   0.000  0.00  0.00    +0.000 OA
ATOM     12  C   UNL     1       1.179   1.052   0.000  0.00  0.00    +0.000 C 
ATOM     13  C   UNL     1       0.511   0.567   0.000  0.00  0.00    +0.000 C 
ATOM     14  C   UNL     1       0.766  -0.218   0.000  0.00  0.00    +0.000 C 
ATOM     15  C   UNL     1       1.591  -0.218   0.000  0.00  0.00    +0.000 C 
BRANCH  15  17
ATOM     16  O   UNL     1       2.897  -0.799   0.000  0.00  0.00    +0.000 OA
ATOM     17  C   UNL     1       2.076  -0.885   0.000  0.00  0.00    +0.000 C 
ENDBRANCH  15  17
ENDBRANCH   3  12
TORSDOF 2
