REMARK  Name = 
REMARK  3 active torsions:
REMARK  status: ('A' for Active; 'I' for Inactive)
REMARK    1  A    between atoms: C_17  and  C_20
REMARK    2  A    between atoms: C_18  and  C_20
REMARK    3  A    between atoms: C_19  and  C_20
REMARK                            x       y       z     vdW  Elec       q    Type
REMARK                         _______ _______ _______ _____ _____    ______ ____
ROOT
ATOM      1  C   UNL     1       2.528   1.238   0.000  0.00  0.00    +0.000 C 
ATOM      2  O   UNL     1       3.243   1.650   0.000  0.00  0.00    +0.000 OA
ENDROOT
BRANCH   1   9
ATOM      3  C   UNL     1       0.385   0.825   0.000  0.00  0.00    +0.000 C 
ATOM      4  C   UNL     1       1.237   0.688   0.000  0.00  0.00    +0.000 C 
ATOM      5  C   UNL     1       0.385   0.000   0.000  0.00  0.00    +0.000 C 
ATOM      6  C   UNL     1       1.237   0.138   0.000  0.00  0.00    +0.000 C 
ATOM      7  C   UNL     1       1.814   0.000   0.000  0.00  0.00    +0.000 C 
ATOM      8  C   UNL     1       1.099   1.238   0.000  0.00  0.00    +0.000 C 
ATOM      9  C   UNL     1       1.814   0.825   0.000  0.00  0.00    +0.000 C 
ATOM     10  N   UNL     1       1.099  -0.412   0.000  0.00  0.00    +0.000 NA
ENDBRANCH   1   9
BRANCH   1  16
ATOM     11  C   UNL     1       1.291   3.381   0.000  0.00  0.00    +0.000 A 
ATOM     12  C   UNL     1       0.878   2.666   0.000  0.00  0.00    +0.000 A 
ATOM     13  C   UNL     1       2.116   3.381   0.000  0.00  0.00    +0.000 A 
ATOM     14  C   UNL     1       1.291   1.952   0.000  0.00  0.00    +0.000 A 
ATOM     15  C   UNL     1       2.528   2.666   0.000  0.00  0.00    +0.000 A 
ATOM     16  C   UNL     1       2.116   1.952   0.000  0.00  0.00    +0.000 A 
ENDBRANCH   1  16
BRANCH   1  22
ATOM     17  C   UNL     1       3.766  -0.906   0.000  0.00  0.00    +0.000 A 
ATOM     18  C   UNL     1       4.178  -0.191   0.000  0.00  0.00    +0.000 A 
ATOM     19  C   UNL     1       2.941  -0.906   0.000  0.00  0.00    +0.000 A 
ATOM     20  C   UNL     1       3.766   0.523   0.000  0.00  0.00    +0.000 A 
ATOM     21  C   UNL     1       2.528  -0.191   0.000  0.00  0.00    +0.000 A 
ATOM     22  C   UNL     1       2.941   0.523   0.000  0.00  0.00    +0.000 A 
ENDBRANCH   1  22
TORSDOF 3
