REMARK  Name = 
REMARK  3 active torsions:
REMARK  status: ('A' for Active; 'I' for Inactive)
REMARK    1  A    between atoms: C_5  and  C_37
REMARK    2  A    between atoms: C_13  and  C_27
REMARK    3  A    between atoms: C_27  and  C_28
REMARK                            x       y       z     vdW  Elec       q    Type
REMARK                         _______ _______ _______ _____ _____    ______ ____
ROOT
ATOM      1  C   UNL     1       6.476  -0.454   0.000  0.00  0.00    +0.000 C 
ATOM      2  C   UNL     1       6.968  -1.116   0.000  0.00  0.00    +0.000 C 
ATOM      3  C   UNL     1       7.788  -1.022   0.000  0.00  0.00    +0.000 C 
ATOM      4  N   UNL     1       8.116  -0.265   0.000  0.00  0.00    +0.000 NA
ATOM      5  C   UNL     1       8.935  -0.170   0.000  0.00  0.00    +0.000 C 
ATOM      6  C   UNL     1       9.427  -0.832   0.000  0.00  0.00    +0.000 C 
ATOM      7  O   UNL     1       9.099  -1.589   0.000  0.00  0.00    +0.000 OA
ATOM      8  N   UNL     1      10.246  -0.738   0.000  0.00  0.00    +0.000 N 
ATOM      9  C   UNL     1      10.738  -1.400   0.000  0.00  0.00    +0.000 C 
ATOM     10  C   UNL     1      10.410  -2.157   0.000  0.00  0.00    +0.000 C 
ATOM     11  O   UNL     1      10.902  -2.820   0.000  0.00  0.00    +0.000 OA
ATOM     12  N   UNL     1       9.591  -2.252   0.000  0.00  0.00    +0.000 NA
ATOM     13  C   UNL     1       9.263  -3.009   0.000  0.00  0.00    +0.000 C 
ATOM     14  C   UNL     1       8.443  -3.103   0.000  0.00  0.00    +0.000 C 
ATOM     15  O   UNL     1       7.952  -2.441   0.000  0.00  0.00    +0.000 OA
ATOM     16  N   UNL     1       8.116  -3.861   0.000  0.00  0.00    +0.000 NA
ATOM     17  C   UNL     1       7.296  -3.955   0.000  0.00  0.00    +0.000 C 
ATOM     18  C   UNL     1       6.804  -3.293   0.000  0.00  0.00    +0.000 C 
ATOM     19  C   UNL     1       5.985  -3.387   0.000  0.00  0.00    +0.000 C 
ATOM     20  C   UNL     1       5.493  -2.725   0.000  0.00  0.00    +0.000 A 
ATOM     21  C   UNL     1       4.673  -2.820   0.000  0.00  0.00    +0.000 A 
ATOM     22  C   UNL     1       4.182  -2.157   0.000  0.00  0.00    +0.000 A 
ATOM     23  C   UNL     1       4.510  -1.400   0.000  0.00  0.00    +0.000 A 
ATOM     24  C   UNL     1       5.329  -1.305   0.000  0.00  0.00    +0.000 A 
ATOM     25  C   UNL     1       5.821  -1.968   0.000  0.00  0.00    +0.000 A 
ATOM     26  O   UNL     1       6.640  -1.873   0.000  0.00  0.00    +0.000 OA
ATOM     27  C   UNL     1      11.558  -1.305   0.000  0.00  0.00    +0.000 C 
ATOM     28  C   UNL     1      10.574   0.019   0.000  0.00  0.00    +0.000 C 
ENDROOT
BRANCH   5  29
ATOM     29  C   UNL     1       9.263   0.587   0.000  0.00  0.00    +0.000 C 
ATOM     30  C   UNL     1       9.168   1.407   0.000  0.00  0.00    +0.000 C 
ATOM     31  C   UNL     1       9.925   1.079   0.000  0.00  0.00    +0.000 C 
ENDBRANCH   5  29
BRANCH  13  32
ATOM     32  C   UNL     1       9.755  -3.671   0.000  0.00  0.00    +0.000 C 
BRANCH  32  33
ATOM     33  C   UNL     1       9.427  -4.428   0.000  0.00  0.00    +0.000 A 
ATOM     34  C   UNL     1       9.919  -5.091   0.000  0.00  0.00    +0.000 A 
ATOM     35  C   UNL     1       9.591  -5.848   0.000  0.00  0.00    +0.000 A 
ATOM     36  C   UNL     1       8.771  -5.942   0.000  0.00  0.00    +0.000 A 
ATOM     37  C   UNL     1       8.280  -5.280   0.000  0.00  0.00    +0.000 A 
ATOM     38  C   UNL     1       8.607  -4.523   0.000  0.00  0.00    +0.000 A 
ATOM     39  F   UNL     1       8.443  -6.700   0.000  0.00  0.00    +0.000 F 
ENDBRANCH  32  33
ENDBRANCH  13  32
TORSDOF 3
