REMARK  Name = 
REMARK  3 active torsions:
REMARK  status: ('A' for Active; 'I' for Inactive)
REMARK    1  A    between atoms: N_2  and  C_3
REMARK    2  A    between atoms: C_3  and  C_5
REMARK    3  A    between atoms: C_5  and  C_7
REMARK                            x       y       z     vdW  Elec       q    Type
REMARK                         _______ _______ _______ _____ _____    ______ ____
ROOT
ATOM      1  C   UNL     1       0.715   2.062   0.000  0.00  0.00    +0.000 C 
ATOM      2  O   UNL     1       1.429   2.475   0.000  0.00  0.00    +0.000 OA
ENDROOT
BRANCH   1   3
ATOM      3  C   UNL     1       0.715   1.238   0.000  0.00  0.00    +0.000 A 
ATOM      4  C   UNL     1       1.429   0.825   0.000  0.00  0.00    +0.000 A 
ATOM      5  C   UNL     1       1.429   0.000   0.000  0.00  0.00    +0.000 A 
ATOM      6  C   UNL     1       0.715  -0.412   0.000  0.00  0.00    +0.000 A 
ATOM      7  C   UNL     1       0.000   0.000   0.000  0.00  0.00    +0.000 A 
ATOM      8  C   UNL     1       0.000   0.825   0.000  0.00  0.00    +0.000 A 
ENDBRANCH   1   3
BRANCH   1   9
ATOM      9  C   UNL     1       0.000   2.475   0.000  0.00  0.00    +0.000 C 
ATOM     10  C   UNL     1      -0.715   2.062   0.000  0.00  0.00    +0.000 C 
BRANCH   9  12
ATOM     11  C   UNL     1      -0.715   3.712   0.000  0.00  0.00    +0.000 C 
ATOM     12  N   UNL     1       0.000   3.300   0.000  0.00  0.00    +0.000 NA
ENDBRANCH   9  12
ENDBRANCH   1   9
TORSDOF 3
