REMARK  Name = 
REMARK  10 active torsions:
REMARK  status: ('A' for Active; 'I' for Inactive)
REMARK    1  A    between atoms: C_2  and  C_3
REMARK    2  A    between atoms: C_3  and  C_4
REMARK    3  A    between atoms: C_4  and  C_5
REMARK    4  A    between atoms: C_5  and  C_6
REMARK    5  A    between atoms: C_6  and  C_7
REMARK    6  A    between atoms: C_7  and  O_8
REMARK    7  A    between atoms: O_8  and  AL_14
REMARK    8  A    between atoms: C_17  and  C_18
REMARK    9  A    between atoms: C_17  and  C_20
REMARK   10  A    between atoms: C_17  and  C_21
REMARK                            x       y       z     vdW  Elec       q    Type
REMARK                         _______ _______ _______ _____ _____    ______ ____
ROOT
ATOM      1  C   UNL     1      -2.062   0.688   0.000  0.00  0.00    +0.000 C 
ATOM      2  O   UNL     1      -2.062   1.512   0.000  0.00  0.00    +0.000 OA
ENDROOT
BRANCH   1   3
ATOM      3  C   UNL     1      -2.779   0.275   0.000  0.00  0.00    +0.000 C 
ATOM      4  O   UNL     1      -2.779  -0.540   0.000  0.00  0.00    +0.000 OA
BRANCH   3   5
ATOM      5  C   UNL     1      -3.487   0.688   0.000  0.00  0.00    +0.000 C 
ATOM      6  O   UNL     1      -3.487   1.512   0.000  0.00  0.00    +0.000 OA
BRANCH   5   8
ATOM      7  O   UNL     1      -4.911   0.688   0.000  0.00  0.00    +0.000 OA
ATOM      8  C   UNL     1      -4.204   0.275   0.000  0.00  0.00    +0.000 C 
ENDBRANCH   5   8
ENDBRANCH   3   5
ENDBRANCH   1   3
BRANCH   1   9
ATOM      9  C   UNL     1      -1.365   0.275   0.000  0.00  0.00    +0.000 C 
ATOM     10  O   UNL     1      -1.365  -0.540   0.000  0.00  0.00    +0.000 OA
BRANCH   9  11
ATOM     11  C   UNL     1      -0.648   0.688   0.000  0.00  0.00    +0.000 C 
ATOM     12  O   UNL     1      -0.648   1.512   0.000  0.00  0.00    +0.000 OA
BRANCH  11  13
ATOM     13  O   UNL     1       0.069   0.275   0.000  0.00  0.00    +0.000 OA
BRANCH  13  14
ATOM     14 AL   UNL     1       0.776   0.688   0.000  0.00  0.00    +0.000 Al
ATOM     15  O   UNL     1       1.483   0.275   0.000  0.00  0.00    +0.000 OA
ATOM     16  O   UNL     1       0.776   1.512   0.000  0.00  0.00    +0.000 OA
ENDBRANCH  13  14
ENDBRANCH  11  13
ENDBRANCH   9  11
ENDBRANCH   1   9
TORSDOF 7
REMARK  Name = 
REMARK  10 active torsions:
REMARK  status: ('A' for Active; 'I' for Inactive)
REMARK    1  A    between atoms: C_2  and  C_3
REMARK    2  A    between atoms: C_3  and  C_4
REMARK    3  A    between atoms: C_4  and  C_5
REMARK    4  A    between atoms: C_5  and  C_6
REMARK    5  A    between atoms: C_6  and  C_7
REMARK    6  A    between atoms: C_7  and  O_8
REMARK    7  A    between atoms: O_8  and  AL_14
REMARK    8  A    between atoms: C_17  and  C_18
REMARK    9  A    between atoms: C_17  and  C_20
REMARK   10  A    between atoms: C_17  and  C_21
REMARK                            x       y       z     vdW  Elec       q    Type
REMARK                         _______ _______ _______ _____ _____    ______ ____
ROOT
ATOM      1  C   UNL     1       3.673  -0.088   0.000  0.00  0.00    +0.000 C 
ATOM      2  N   UNL     1       3.261   0.619   0.000  0.00  0.00    +0.000 NA
ENDROOT
BRANCH   1   3
ATOM      3  C   UNL     1       4.498  -0.088   0.000  0.00  0.00    +0.000 C 
ATOM      4  O   UNL     1       4.911  -0.805   0.000  0.00  0.00    +0.000 OA
ENDBRANCH   1   3
BRANCH   1   5
ATOM      5  C   UNL     1       3.261  -0.805   0.000  0.00  0.00    +0.000 C 
ATOM      6  O   UNL     1       2.445  -0.805   0.000  0.00  0.00    +0.000 OA
ENDBRANCH   1   5
BRANCH   1   7
ATOM      7  C   UNL     1       4.086  -0.805   0.000  0.00  0.00    +0.000 C 
ATOM      8  O   UNL     1       3.673  -1.512   0.000  0.00  0.00    +0.000 OA
ENDBRANCH   1   7
TORSDOF 3
