REMARK  Name = 
REMARK  7 active torsions:
REMARK  status: ('A' for Active; 'I' for Inactive)
REMARK    1  A    between atoms: C_1  and  O_11
REMARK    2  A    between atoms: C_2  and  O_9
REMARK    3  A    between atoms: C_3  and  C_23
REMARK    4  A    between atoms: C_14  and  C_18
REMARK    5  A    between atoms: C_18  and  C_21
REMARK    6  A    between atoms: C_19  and  C_23
REMARK    7  A    between atoms: C_20  and  C_21
REMARK                            x       y       z     vdW  Elec       q    Type
REMARK                         _______ _______ _______ _____ _____    ______ ____
ROOT
ATOM      1  C   UNL     1      -2.858   0.412   0.000  0.00  0.00    +0.000 C 
ATOM      2  C   UNL     1      -2.858  -0.412   0.000  0.00  0.00    +0.000 C 
ATOM      3  C   UNL     1      -1.429   0.412   0.000  0.00  0.00    +0.000 C 
ATOM      4  C   UNL     1      -1.429  -0.412   0.000  0.00  0.00    +0.000 C 
ATOM      5  C   UNL     1      -2.143  -0.825   0.000  0.00  0.00    +0.000 C 
ATOM      6  C   UNL     1      -2.143   0.825   0.000  0.00  0.00    +0.000 C 
ATOM      7  C   UNL     1      -0.715  -0.825   0.000  0.00  0.00    +0.000 C 
ATOM      8  O   UNL     1      -2.143  -1.650   0.000  0.00  0.00    +0.000 OA
ATOM      9  O   UNL     1      -2.143   1.650   0.000  0.00  0.00    +0.000 OA
ENDROOT
BRANCH   2  10
ATOM     10  O   UNL     1      -3.572  -0.825   0.000  0.00  0.00    +0.000 OA
ATOM     11  C   UNL     1      -3.572  -1.650   0.000  0.00  0.00    +0.000 C 
ENDBRANCH   2  10
BRANCH   1  12
ATOM     12  O   UNL     1      -3.572   0.825   0.000  0.00  0.00    +0.000 OA
ATOM     13  C   UNL     1      -4.287   0.412   0.000  0.00  0.00    +0.000 C 
ENDBRANCH   1  12
BRANCH   3  14
ATOM     14  C   UNL     1      -0.715   0.825   0.000  0.00  0.00    +0.000 C 
BRANCH  14  15
ATOM     15  C   UNL     1       0.000   0.412   0.000  0.00  0.00    +0.000 C 
ATOM     16  C   UNL     1       0.714   0.825   0.000  0.00  0.00    +0.000 C 
ATOM     17  C   UNL     1       0.714   1.650   0.000  0.00  0.00    +0.000 C 
BRANCH  16  18
ATOM     18  C   UNL     1       1.429   0.412   0.000  0.00  0.00    +0.000 C 
BRANCH  18  19
ATOM     19  C   UNL     1       2.143   0.825   0.000  0.00  0.00    +0.000 C 
BRANCH  19  20
ATOM     20  C   UNL     1       2.858   0.412   0.000  0.00  0.00    +0.000 C 
ATOM     21  C   UNL     1       3.572   0.825   0.000  0.00  0.00    +0.000 C 
ATOM     22  C   UNL     1       4.287   0.412   0.000  0.00  0.00    +0.000 C 
ATOM     23  C   UNL     1       3.572   1.650   0.000  0.00  0.00    +0.000 C 
ENDBRANCH  19  20
ENDBRANCH  18  19
ENDBRANCH  16  18
ENDBRANCH  14  15
ENDBRANCH   3  14
TORSDOF 7
