REMARK  Name = 
REMARK  10 active torsions:
REMARK  status: ('A' for Active; 'I' for Inactive)
REMARK    1  A    between atoms: CA_3  and  C_22
REMARK    2  A    between atoms: C_4  and  S_14
REMARK    3  A    between atoms: CA_7  and  N_9
REMARK    4  A    between atoms: C_10  and  C_13
REMARK    5  A    between atoms: C_13  and  C_15
REMARK    6  A    between atoms: S_14  and  C_33
REMARK    7  A    between atoms: N_21  and  O_26
REMARK    8  A    between atoms: N_25  and  P_29
REMARK    9  A    between atoms: O_26  and  C_27
REMARK   10  A    between atoms: C_36  and  C_38
REMARK                            x       y       z     vdW  Elec       q    Type
REMARK                         _______ _______ _______ _____ _____    ______ ____
ROOT
ATOM      1  C   UNL     1       0.877  -0.363   0.000  0.00  0.00    +0.000 C 
ATOM      2  N   UNL     1       0.877  -1.188   0.000  0.00  0.00    +0.000 N 
ATOM      3  CA  UNL     1       1.579  -1.601   0.000  0.00  0.00    +0.000 C 
ATOM      4  C   UNL     1       2.280  -1.188   0.000  0.00  0.00    +0.000 C 
ATOM      5  C   UNL     1       2.280  -0.363   0.000  0.00  0.00    +0.000 C 
ATOM      6  S   UNL     1       1.579   0.049   0.000  0.00  0.00    +0.000 S 
ATOM      7  CA  UNL     1       0.052  -0.363   0.000  0.00  0.00    +0.000 C 
ATOM      8  C   UNL     1       0.052  -1.188   0.000  0.00  0.00    +0.000 C 
ATOM      9  O   UNL     1      -0.691  -1.601   0.000  0.00  0.00    +0.000 OA
ENDROOT
BRANCH   3  10
ATOM     10  C   UNL     1       1.579  -2.426   0.000  0.00  0.00    +0.000 C 
ATOM     11  O   UNL     1       2.280  -2.839   0.000  0.00  0.00    +0.000 OA
ATOM     12  OXT UNL     1       0.836  -2.839   0.000  0.00  0.00    +0.000 OA
ENDBRANCH   3  10
BRANCH   7  13
ATOM     13  N   UNL     1      -0.691   0.049   0.000  0.00  0.00    +0.000 NA
ATOM     14  C   UNL     1      -1.392  -0.363   0.000  0.00  0.00    +0.000 C 
ATOM     15  O   UNL     1      -1.392  -1.188   0.000  0.00  0.00    +0.000 OA
BRANCH  14  16
ATOM     16  C   UNL     1      -2.094   0.049   0.000  0.00  0.00    +0.000 C 
ATOM     17  N   UNL     1      -2.094   0.875   0.000  0.00  0.00    +0.000 NA
BRANCH  16  18
ATOM     18  C   UNL     1      -2.836  -0.363   0.000  0.00  0.00    +0.000 A 
ATOM     19  N   UNL     1      -3.455   0.132   0.000  0.00  0.00    +0.000 NA
ATOM     20  S   UNL     1      -4.157  -0.322   0.000  0.00  0.00    +0.000 S 
ATOM     21  C   UNL     1      -3.909  -1.147   0.000  0.00  0.00    +0.000 A 
ATOM     22  N   UNL     1      -3.084  -1.147   0.000  0.00  0.00    +0.000 NA
ATOM     23  N   UNL     1      -4.404  -1.807   0.000  0.00  0.00    +0.000 NA
BRANCH  23  24
ATOM     24  P   UNL     1      -5.229  -1.807   0.000  0.00  0.00    +0.000 P 
ATOM     25  O   UNL     1      -6.055  -1.807   0.000  0.00  0.00    +0.000 OA
ATOM     26  O   UNL     1      -5.229  -0.982   0.000  0.00  0.00    +0.000 OA
ATOM     27  O   UNL     1      -5.229  -2.632   0.000  0.00  0.00    +0.000 OA
ENDBRANCH  23  24
ENDBRANCH  16  18
BRANCH  17  28
ATOM     28  O   UNL     1      -1.392   1.287   0.000  0.00  0.00    +0.000 OA
BRANCH  28  29
ATOM     29  C   UNL     1      -0.674   0.880   0.000  0.00  0.00    +0.000 C 
ATOM     30  C   UNL     1       0.022   1.290   0.000  0.00  0.00    +0.000 C 
ENDBRANCH  28  29
ENDBRANCH  17  28
ENDBRANCH  14  16
ENDBRANCH   7  13
BRANCH   4  31
ATOM     31  S   UNL     1       3.023  -1.601   0.000  0.00  0.00    +0.000 S 
BRANCH  31  32
ATOM     32  C   UNL     1       3.728  -1.179   0.000  0.00  0.00    +0.000 A 
ATOM     33  S   UNL     1       4.481  -1.499   0.000  0.00  0.00    +0.000 S 
ATOM     34  C   UNL     1       5.019  -0.882   0.000  0.00  0.00    +0.000 A 
ATOM     35  C   UNL     1       4.598  -0.179   0.000  0.00  0.00    +0.000 A 
ATOM     36  N   UNL     1       3.800  -0.363   0.000  0.00  0.00    +0.000 NA
BRANCH  35  37
ATOM     37  C   UNL     1       4.913   0.561   0.000  0.00  0.00    +0.000 A 
ATOM     38  C   UNL     1       5.731   0.661   0.000  0.00  0.00    +0.000 A 
ATOM     39  C   UNL     1       6.055   1.420   0.000  0.00  0.00    +0.000 A 
ATOM     40  N   UNL     1       5.559   2.079   0.000  0.00  0.00    +0.000 N 
ATOM     41  C   UNL     1       4.740   1.980   0.000  0.00  0.00    +0.000 A 
ATOM     42  C   UNL     1       4.417   1.221   0.000  0.00  0.00    +0.000 A 
ATOM     43  C   UNL     1       5.882   2.839   0.000  0.00  0.00    +0.000 C 
ENDBRANCH  35  37
ENDBRANCH  31  32
ENDBRANCH   4  31
TORSDOF 10
