REMARK  Name = 
REMARK  5 active torsions:
REMARK  status: ('A' for Active; 'I' for Inactive)
REMARK    1  A    between atoms: C_5  and  O_11
REMARK    2  A    between atoms: O_11  and  C_12
REMARK    3  A    between atoms: C_12  and  C_14
REMARK    4  A    between atoms: C_14  and  C_15
REMARK    5  A    between atoms: C_14  and  C_17
REMARK                            x       y       z     vdW  Elec       q    Type
REMARK                         _______ _______ _______ _____ _____    ______ ____
ROOT
ATOM      1  O   UNL     1       3.045   1.268   0.000  0.00  0.00    +0.000 OA
ENDROOT
BRANCH   1   6
ATOM      2  C   UNL     1       1.571   1.621   0.000  0.00  0.00    +0.000 C 
ATOM      3  N   UNL     1       0.826   1.268   0.000  0.00  0.00    +0.000 N 
ATOM      4  C   UNL     1       1.057   0.342   0.000  0.00  0.00    +0.000 C 
ATOM      5  C   UNL     1       1.861   0.525   0.000  0.00  0.00    +0.000 C 
ATOM      6  C   UNL     1       2.220   1.268   0.000  0.00  0.00    +0.000 C 
ATOM      7  C   UNL     1       1.861   2.012   0.000  0.00  0.00    +0.000 C 
ATOM      8  C   UNL     1       1.057   2.195   0.000  0.00  0.00    +0.000 C 
ATOM      9  C   UNL     1       0.412   1.681   0.000  0.00  0.00    +0.000 C 
ATOM     10  C   UNL     1       0.412   0.856   0.000  0.00  0.00    +0.000 C 
ATOM     11  O   UNL     1      -0.302   1.268   0.000  0.00  0.00    +0.000 OA
ATOM     12  C   UNL     1       1.571   0.915   0.000  0.00  0.00    +0.000 C 
ENDBRANCH   1   6
BRANCH   1  13
ATOM     13  C   UNL     1       3.457   0.554   0.000  0.00  0.00    +0.000 C 
ATOM     14  O   UNL     1       3.045  -0.161   0.000  0.00  0.00    +0.000 OA
BRANCH  13  15
ATOM     15  C   UNL     1       4.282   0.554   0.000  0.00  0.00    +0.000 C 
BRANCH  15  16
ATOM     16  C   UNL     1       4.694  -0.161   0.000  0.00  0.00    +0.000 A 
ATOM     17  C   UNL     1       5.519  -0.161   0.000  0.00  0.00    +0.000 A 
ATOM     18  C   UNL     1       5.932  -0.875   0.000  0.00  0.00    +0.000 A 
ATOM     19  C   UNL     1       5.519  -1.589   0.000  0.00  0.00    +0.000 A 
ATOM     20  C   UNL     1       4.694  -1.589   0.000  0.00  0.00    +0.000 A 
ATOM     21  C   UNL     1       4.282  -0.875   0.000  0.00  0.00    +0.000 A 
ENDBRANCH  15  16
BRANCH  15  22
ATOM     22  C   UNL     1       4.694   1.268   0.000  0.00  0.00    +0.000 C 
ATOM     23  O   UNL     1       5.519   1.268   0.000  0.00  0.00    +0.000 OA
ENDBRANCH  15  22
ENDBRANCH  13  15
ENDBRANCH   1  13
TORSDOF 5
