REMARK  Name = 
REMARK  4 active torsions:
REMARK  status: ('A' for Active; 'I' for Inactive)
REMARK    1  A    between atoms: C_2  and  O_4
REMARK    2  A    between atoms: O_4  and  C_5
REMARK    3  A    between atoms: C_5  and  C_6
REMARK    4  A    between atoms: C_6  and  C_8
REMARK                            x       y       z     vdW  Elec       q    Type
REMARK                         _______ _______ _______ _____ _____    ______ ____
ROOT
ATOM      1  C   UNL     1       4.787   0.967   0.000  0.00  0.00    +0.000 C 
ATOM      2  C   UNL     1       5.017   0.174   0.000  0.00  0.00    +0.000 C 
ATOM      3  C   UNL     1       4.334  -0.289   0.000  0.00  0.00    +0.000 C 
ATOM      4  C   UNL     1       3.683   0.217   0.000  0.00  0.00    +0.000 C 
ATOM      5  C   UNL     1       3.963   0.993   0.000  0.00  0.00    +0.000 C 
ATOM      6  C   UNL     1       3.431   1.624   0.000  0.00  0.00    +0.000 C 
ATOM      7  C   UNL     1       2.619   1.479   0.000  0.00  0.00    +0.000 C 
ATOM      8  C   UNL     1       2.339   0.703   0.000  0.00  0.00    +0.000 C 
ATOM      9  C   UNL     1       2.870   0.072   0.000  0.00  0.00    +0.000 C 
ATOM     10  C   UNL     1       2.590  -0.704   0.000  0.00  0.00    +0.000 C 
ATOM     11  C   UNL     1       1.778  -0.849   0.000  0.00  0.00    +0.000 C 
ATOM     12  C   UNL     1       1.246  -0.218   0.000  0.00  0.00    +0.000 C 
ATOM     13  C   UNL     1       0.434  -0.363   0.000  0.00  0.00    +0.000 C 
ATOM     14  C   UNL     1      -0.098   0.267   0.000  0.00  0.00    +0.000 C 
ATOM     15  O   UNL     1      -0.910   0.122   0.000  0.00  0.00    +0.000 OA
ATOM     16  C   UNL     1       0.183   1.043   0.000  0.00  0.00    +0.000 C 
ATOM     17  C   UNL     1       0.995   1.188   0.000  0.00  0.00    +0.000 C 
ATOM     18  C   UNL     1       1.527   0.558   0.000  0.00  0.00    +0.000 C 
ATOM     19  C   UNL     1       1.807   1.334   0.000  0.00  0.00    +0.000 C 
ATOM     20  F   UNL     1       1.498  -1.625   0.000  0.00  0.00    +0.000 F 
ATOM     21  O   UNL     1       2.087   2.110   0.000  0.00  0.00    +0.000 OA
ATOM     22  C   UNL     1       4.323   1.736   0.000  0.00  0.00    +0.000 C 
ATOM     23  O   UNL     1       4.728   1.789   0.000  0.00  0.00    +0.000 OA
ENDROOT
BRANCH   1  24
ATOM     24  C   UNL     1       5.600   1.112   0.000  0.00  0.00    +0.000 C 
ATOM     25  O   UNL     1       5.880   1.888   0.000  0.00  0.00    +0.000 OA
BRANCH  24  26
ATOM     26  C   UNL     1       6.131   0.481   0.000  0.00  0.00    +0.000 C 
BRANCH  26  27
ATOM     27  O   UNL     1       6.944   0.626   0.000  0.00  0.00    +0.000 OA
BRANCH  27  29
ATOM     28  C   UNL     1       8.287   0.141   0.000  0.00  0.00    +0.000 C 
ATOM     29  C   UNL     1       7.475  -0.004   0.000  0.00  0.00    +0.000 C 
ATOM     30  O   UNL     1       7.195  -0.780   0.000  0.00  0.00    +0.000 OA
ENDBRANCH  27  29
ENDBRANCH  26  27
ENDBRANCH  24  26
ENDBRANCH   1  24
TORSDOF 4
