REMARK  Name = 
REMARK  6 active torsions:
REMARK  status: ('A' for Active; 'I' for Inactive)
REMARK    1  A    between atoms: C_1  and  O_22
REMARK    2  A    between atoms: C_3  and  O_23
REMARK    3  A    between atoms: C_9  and  C_20
REMARK    4  A    between atoms: C_10  and  C_19
REMARK    5  A    between atoms: C_11  and  C_14
REMARK    6  A    between atoms: C_32  and  O_35
REMARK                            x       y       z     vdW  Elec       q    Type
REMARK                         _______ _______ _______ _____ _____    ______ ____
ROOT
ATOM      1  C   UNL     1      -1.332   1.285   0.000  0.00  0.00    +0.000 A 
ATOM      2  C   UNL     1      -2.058   0.887   0.000  0.00  0.00    +0.000 A 
ATOM      3  C   UNL     1      -2.076   0.060   0.000  0.00  0.00    +0.000 A 
ATOM      4  C   UNL     1      -1.367  -0.369   0.000  0.00  0.00    +0.000 A 
ATOM      5  C   UNL     1      -0.626   0.860   0.000  0.00  0.00    +0.000 A 
ATOM      6  C   UNL     1      -0.636   0.035   0.000  0.00  0.00    +0.000 A 
ATOM      7  O   UNL     1       0.146  -0.229   0.000  0.00  0.00    +0.000 OA
ATOM      8  C   UNL     1       0.162   1.105   0.000  0.00  0.00    +0.000 C 
ATOM      9  C   UNL     1       0.640   0.435   0.000  0.00  0.00    +0.000 C 
ATOM     10  C   UNL     1       1.425   0.683   0.000  0.00  0.00    +0.000 C 
ATOM     11  C   UNL     1       1.432   1.506   0.000  0.00  0.00    +0.000 C 
ATOM     12  C   UNL     1       0.651   1.767   0.000  0.00  0.00    +0.000 C 
ATOM     13  O   UNL     1       0.403   2.555   0.000  0.00  0.00    +0.000 OA
ATOM     14  O   UNL     1      -0.256   1.824   0.000  0.00  0.00    +0.000 OA
ENDROOT
BRANCH   9  15
ATOM     15  C   UNL     1       0.908  -0.338   0.000  0.00  0.00    +0.000 A 
ATOM     16  C   UNL     1       0.370  -0.956   0.000  0.00  0.00    +0.000 A 
ATOM     17  C   UNL     1       0.639  -1.728   0.000  0.00  0.00    +0.000 A 
ATOM     18  C   UNL     1       1.443  -1.882   0.000  0.00  0.00    +0.000 A 
ATOM     19  C   UNL     1       1.979  -1.258   0.000  0.00  0.00    +0.000 A 
ATOM     20  C   UNL     1       1.708  -0.488   0.000  0.00  0.00    +0.000 A 
BRANCH  18  21
ATOM     21  O   UNL     1       1.716  -2.662   0.000  0.00  0.00    +0.000 OA
ATOM     22  C   UNL     1       1.177  -3.288   0.000  0.00  0.00    +0.000 C 
ENDBRANCH  18  21
ENDBRANCH   9  15
BRANCH  10  23
ATOM     23  C   UNL     1       2.089   0.191   0.000  0.00  0.00    +0.000 A 
ATOM     24  C   UNL     1       1.993  -0.629   0.000  0.00  0.00    +0.000 A 
ATOM     25  C   UNL     1       2.656  -1.120   0.000  0.00  0.00    +0.000 A 
ATOM     26  C   UNL     1       3.415  -0.791   0.000  0.00  0.00    +0.000 A 
ATOM     27  C   UNL     1       3.506   0.034   0.000  0.00  0.00    +0.000 A 
ATOM     28  C   UNL     1       2.842   0.522   0.000  0.00  0.00    +0.000 A 
ENDBRANCH  10  23
BRANCH  11  29
ATOM     29  C   UNL     1       2.105   1.986   0.000  0.00  0.00    +0.000 C 
ATOM     30  O   UNL     1       2.857   1.643   0.000  0.00  0.00    +0.000 OA
ATOM     31  N   UNL     1       2.026   2.808   0.000  0.00  0.00    +0.000 N 
ATOM     32  C   UNL     1       2.698   3.288   0.000  0.00  0.00    +0.000 C 
ATOM     33  C   UNL     1       1.274   3.151   0.000  0.00  0.00    +0.000 C 
ENDBRANCH  11  29
BRANCH   1  34
ATOM     34  O   UNL     1      -1.315   2.111   0.000  0.00  0.00    +0.000 OA
ATOM     35  C   UNL     1      -2.022   2.539   0.000  0.00  0.00    +0.000 C 
ENDBRANCH   1  34
BRANCH   3  36
ATOM     36  O   UNL     1      -2.800  -0.338   0.000  0.00  0.00    +0.000 OA
ATOM     37  C   UNL     1      -3.506   0.090   0.000  0.00  0.00    +0.000 C 
ENDBRANCH   3  36
TORSDOF 6
