REMARK  Name = 
REMARK  6 active torsions:
REMARK  status: ('A' for Active; 'I' for Inactive)
REMARK    1  A    between atoms: C_1  and  C_17
REMARK    2  A    between atoms: C_5  and  C_7
REMARK    3  A    between atoms: C_7  and  C_8
REMARK    4  A    between atoms: C_11  and  O_15
REMARK    5  A    between atoms: O_15  and  C_16
REMARK    6  A    between atoms: C_19  and  C_26
REMARK                            x       y       z     vdW  Elec       q    Type
REMARK                         _______ _______ _______ _____ _____    ______ ____
ROOT
ATOM      1  C   UNL     1      -2.075  -0.825   0.000  0.00  0.00    +0.000 A 
ATOM      2  C   UNL     1      -2.075  -1.650   0.000  0.00  0.00    +0.000 A 
ATOM      3  C   UNL     1      -1.374  -2.063   0.000  0.00  0.00    +0.000 A 
ATOM      4  C   UNL     1      -0.631  -1.650   0.000  0.00  0.00    +0.000 A 
ATOM      5  C   UNL     1      -0.631  -0.825   0.000  0.00  0.00    +0.000 A 
ATOM      6  C   UNL     1      -1.374  -0.412   0.000  0.00  0.00    +0.000 A 
ATOM      7 CL   UNL     1       0.070  -2.063   0.000  0.00  0.00    +0.000 Cl
ENDROOT
BRANCH   1   8
ATOM      8  C   UNL     1      -2.776  -0.412   0.000  0.00  0.00    +0.000 C 
ATOM      9  O   UNL     1      -2.776   0.413   0.000  0.00  0.00    +0.000 OA
ATOM     10  C   UNL     1      -3.519   0.825   0.000  0.00  0.00    +0.000 C 
ATOM     11  C   UNL     1      -4.220   0.413   0.000  0.00  0.00    +0.000 C 
ATOM     12  C   UNL     1      -4.220  -0.412   0.000  0.00  0.00    +0.000 C 
ATOM     13  C   UNL     1      -3.519  -0.825   0.000  0.00  0.00    +0.000 C 
ATOM     14  O   UNL     1      -3.519  -1.650   0.000  0.00  0.00    +0.000 OA
ATOM     15  O   UNL     1      -4.922   0.825   0.000  0.00  0.00    +0.000 OA
ATOM     16  O   UNL     1      -4.922  -0.825   0.000  0.00  0.00    +0.000 OA
BRANCH  10  17
ATOM     17  C   UNL     1      -3.519   1.650   0.000  0.00  0.00    +0.000 C 
ATOM     18  O   UNL     1      -2.776   2.063   0.000  0.00  0.00    +0.000 OA
ENDBRANCH  10  17
ENDBRANCH   1   8
BRANCH   5  19
ATOM     19  C   UNL     1       0.070  -0.412   0.000  0.00  0.00    +0.000 C 
BRANCH  19  20
ATOM     20  C   UNL     1       0.813  -0.825   0.000  0.00  0.00    +0.000 A 
ATOM     21  C   UNL     1       0.813  -1.650   0.000  0.00  0.00    +0.000 A 
ATOM     22  C   UNL     1       1.514  -2.063   0.000  0.00  0.00    +0.000 A 
ATOM     23  C   UNL     1       2.216  -1.650   0.000  0.00  0.00    +0.000 A 
ATOM     24  C   UNL     1       2.216  -0.825   0.000  0.00  0.00    +0.000 A 
ATOM     25  C   UNL     1       1.514  -0.412   0.000  0.00  0.00    +0.000 A 
BRANCH  23  26
ATOM     26  O   UNL     1       2.917  -2.063   0.000  0.00  0.00    +0.000 OA
BRANCH  26  27
ATOM     27  C   UNL     1       3.618  -1.650   0.000  0.00  0.00    +0.000 C 
ATOM     28  C   UNL     1       4.374  -1.980   0.000  0.00  0.00    +0.000 C 
ATOM     29  O   UNL     1       4.922  -1.362   0.000  0.00  0.00    +0.000 OA
ATOM     30  C   UNL     1       4.503  -0.651   0.000  0.00  0.00    +0.000 C 
ATOM     31  C   UNL     1       3.698  -0.829   0.000  0.00  0.00    +0.000 C 
ENDBRANCH  26  27
ENDBRANCH  23  26
ENDBRANCH  19  20
ENDBRANCH   5  19
TORSDOF 6
