REMARK  Name = 
REMARK  24 active torsions:
REMARK  status: ('A' for Active; 'I' for Inactive)
REMARK    1  A    between atoms: C_2  and  C_4
REMARK    2  A    between atoms: C_4  and  N_5
REMARK    3  A    between atoms: C_4  and  C_58
REMARK    4  A    between atoms: C_6  and  C_8
REMARK    5  A    between atoms: C_8  and  C_9
REMARK    6  A    between atoms: C_8  and  N_17
REMARK    7  A    between atoms: C_9  and  C_10
REMARK    8  A    between atoms: C_18  and  C_20
REMARK    9  A    between atoms: C_20  and  C_21
REMARK   10  A    between atoms: C_20  and  N_25
REMARK   11  A    between atoms: C_21  and  C_22
REMARK   12  A    between atoms: C_26  and  C_28
REMARK   13  A    between atoms: C_28  and  N_29
REMARK   14  A    between atoms: C_28  and  C_55
REMARK   15  A    between atoms: C_30  and  C_32
REMARK   16  A    between atoms: C_32  and  N_33
REMARK   17  A    between atoms: C_32  and  C_52
REMARK   18  A    between atoms: C_34  and  C_36
REMARK   19  A    between atoms: C_36  and  N_37
REMARK   20  A    between atoms: C_36  and  C_49
REMARK   21  A    between atoms: C_38  and  CA_40
REMARK   22  A    between atoms: CA_40  and  C_41
REMARK   23  A    between atoms: CA_40  and  N_43
REMARK   24  A    between atoms: C_44  and  CA_46
REMARK                            x       y       z     vdW  Elec       q    Type
REMARK                         _______ _______ _______ _____ _____    ______ ____
ROOT
ATOM      1  N   UNL     1       3.346 -14.904   0.000  0.00  0.00    +0.000 NA
ATOM      2  C   UNL     1       2.560 -15.156   0.000  0.00  0.00    +0.000 C 
ATOM      3  O   UNL     1       2.386 -15.962   0.000  0.00  0.00    +0.000 OA
ENDROOT
BRANCH   2   4
ATOM      4  C   UNL     1       1.949 -14.602   0.000  0.00  0.00    +0.000 C 
BRANCH   4   5
ATOM      5  N   UNL     1       1.164 -14.854   0.000  0.00  0.00    +0.000 NA
ATOM      6  C   UNL     1       0.553 -14.299   0.000  0.00  0.00    +0.000 C 
ATOM      7  O   UNL     1       0.727 -13.493   0.000  0.00  0.00    +0.000 OA
BRANCH   6   8
ATOM      8  C   UNL     1      -0.233 -14.551   0.000  0.00  0.00    +0.000 C 
BRANCH   8   9
ATOM      9  C   UNL     1      -0.407 -15.358   0.000  0.00  0.00    +0.000 C 
ATOM     10  C   UNL     1      -1.193 -15.610   0.000  0.00  0.00    +0.000 C 
ATOM     11  O   UNL     1       0.203 -15.912   0.000  0.00  0.00    +0.000 OA
ENDBRANCH   8   9
BRANCH   8  12
ATOM     12  N   UNL     1      -0.844 -13.997   0.000  0.00  0.00    +0.000 NA
ATOM     13  C   UNL     1      -1.629 -14.249   0.000  0.00  0.00    +0.000 C 
ATOM     14  O   UNL     1      -1.804 -15.055   0.000  0.00  0.00    +0.000 OA
BRANCH  13  15
ATOM     15  C   UNL     1      -2.240 -13.695   0.000  0.00  0.00    +0.000 C 
BRANCH  15  16
ATOM     16  C   UNL     1      -2.066 -12.888   0.000  0.00  0.00    +0.000 C 
ATOM     17  C   UNL     1      -2.677 -12.334   0.000  0.00  0.00    +0.000 C 
ATOM     18  O   UNL     1      -1.280 -12.636   0.000  0.00  0.00    +0.000 OA
ENDBRANCH  15  16
BRANCH  15  19
ATOM     19  N   UNL     1      -3.026 -13.947   0.000  0.00  0.00    +0.000 NA
ATOM     20  C   UNL     1      -3.637 -13.392   0.000  0.00  0.00    +0.000 C 
ATOM     21  O   UNL     1      -3.462 -12.586   0.000  0.00  0.00    +0.000 OA
BRANCH  20  22
ATOM     22  CA  UNL     1      -4.423 -13.644   0.000  0.00  0.00    +0.000 C 
BRANCH  22  23
ATOM     23  N   ACE A   2      -5.034 -13.090   0.000  0.00  0.00    +0.000 NA
ATOM     24  C   UNL     1      -5.819 -13.342   0.000  0.00  0.00    +0.000 C 
ATOM     25  O   UNL     1      -5.994 -14.148   0.000  0.00  0.00    +0.000 OA
BRANCH  24  26
ATOM     26  CA  UNL     1      -6.430 -12.787   0.000  0.00  0.00    +0.000 C 
ATOM     27  CB  UNL     1      -7.216 -13.040   0.000  0.00  0.00    +0.000 C 
ATOM     28  N   UNL     1      -6.256 -11.981   0.000  0.00  0.00    +0.000 NA
ENDBRANCH  24  26
ENDBRANCH  22  23
BRANCH  22  29
ATOM     29  C   UNL     1      -4.597 -14.450   0.000  0.00  0.00    +0.000 C 
ATOM     30  O   UNL     1      -5.383 -14.703   0.000  0.00  0.00    +0.000 OA
ENDBRANCH  22  29
ENDBRANCH  20  22
ENDBRANCH  15  19
ENDBRANCH  13  15
ENDBRANCH   8  12
ENDBRANCH   6   8
ENDBRANCH   4   5
BRANCH   4  31
ATOM     31  C   UNL     1       2.124 -13.795   0.000  0.00  0.00    +0.000 C 
ATOM     32  C   UNL     1       1.513 -13.241   0.000  0.00  0.00    +0.000 C 
ATOM     33  O   UNL     1       2.909 -13.543   0.000  0.00  0.00    +0.000 OA
ENDBRANCH   4  31
ENDBRANCH   2   4
BRANCH   1  34
ATOM     34  C   UNL     1       3.957 -15.458   0.000  0.00  0.00    +0.000 C 
BRANCH  34  36
ATOM     35  N   UNL     1       5.353 -15.761   0.000  0.00  0.00    +0.000 NA
ATOM     36  C   UNL     1       4.742 -15.207   0.000  0.00  0.00    +0.000 C 
ATOM     37  O   UNL     1       4.917 -14.400   0.000  0.00  0.00    +0.000 OA
BRANCH  35  38
ATOM     38  C   UNL     1       6.139 -15.509   0.000  0.00  0.00    +0.000 C 
BRANCH  38  40
ATOM     39  N   UNL     1       5.703 -14.148   0.000  0.00  0.00    +0.000 NA
ATOM     40  C   UNL     1       6.314 -14.703   0.000  0.00  0.00    +0.000 C 
ATOM     41  O   UNL     1       7.099 -14.450   0.000  0.00  0.00    +0.000 OA
BRANCH  39  42
ATOM     42  C   UNL     1       5.877 -13.342   0.000  0.00  0.00    +0.000 C 
BRANCH  42  44
ATOM     43  C   UNL     1       6.837 -12.284   0.000  0.00  0.00    +0.000 C 
ATOM     44  C   UNL     1       6.663 -13.090   0.000  0.00  0.00    +0.000 C 
ATOM     45  O   UNL     1       7.274 -13.644   0.000  0.00  0.00    +0.000 OA
ENDBRANCH  42  44
BRANCH  42  46
ATOM     46  C   UNL     1       5.266 -12.787   0.000  0.00  0.00    +0.000 C 
ATOM     47  N   UNL     1       4.481 -13.040   0.000  0.00  0.00    +0.000 NA
ATOM     48  O   UNL     1       5.441 -11.981   0.000  0.00  0.00    +0.000 OA
ENDBRANCH  42  46
ENDBRANCH  39  42
ENDBRANCH  38  40
BRANCH  38  49
ATOM     49  C   UNL     1       6.750 -16.063   0.000  0.00  0.00    +0.000 C 
BRANCH  49  50
ATOM     50  C   UNL     1       7.536 -15.811   0.000  0.00  0.00    +0.000 A 
ATOM     51  C   UNL     1       7.710 -15.005   0.000  0.00  0.00    +0.000 A 
ATOM     52  C   UNL     1       8.496 -14.753   0.000  0.00  0.00    +0.000 A 
ATOM     53  C   UNL     1       9.107 -15.307   0.000  0.00  0.00    +0.000 A 
ATOM     54  O   UNL     1       9.892 -15.055   0.000  0.00  0.00    +0.000 OA
ATOM     55  C   UNL     1       8.932 -16.114   0.000  0.00  0.00    +0.000 A 
ATOM     56  C   UNL     1       8.147 -16.366   0.000  0.00  0.00    +0.000 A 
ENDBRANCH  49  50
ENDBRANCH  38  49
ENDBRANCH  35  38
ENDBRANCH  34  36
BRANCH  34  57
ATOM     57  C   UNL     1       3.782 -16.265   0.000  0.00  0.00    +0.000 C 
BRANCH  57  58
ATOM     58  C   UNL     1       4.393 -16.819   0.000  0.00  0.00    +0.000 C 
ATOM     59  N   UNL     1       5.179 -16.567   0.000  0.00  0.00    +0.000 NA
ATOM     60  O   UNL     1       4.219 -17.625   0.000  0.00  0.00    +0.000 OA
ENDBRANCH  57  58
ENDBRANCH  34  57
ENDBRANCH   1  34
TORSDOF 24
