REMARK  Name = 
REMARK  2 active torsions:
REMARK  status: ('A' for Active; 'I' for Inactive)
REMARK    1  A    between atoms: C_8  and  C_24
REMARK    2  A    between atoms: C_11  and  C_21
REMARK                            x       y       z     vdW  Elec       q    Type
REMARK                         _______ _______ _______ _____ _____    ______ ____
ROOT
ATOM      1 CU   UNL     1      -0.054  -1.831   0.000  0.00  0.00    +0.000 Cu
ENDROOT
TORSDOF 0
REMARK  Name = 
REMARK  2 active torsions:
REMARK  status: ('A' for Active; 'I' for Inactive)
REMARK    1  A    between atoms: C_8  and  C_24
REMARK    2  A    between atoms: C_11  and  C_21
REMARK                            x       y       z     vdW  Elec       q    Type
REMARK                         _______ _______ _______ _____ _____    ______ ____
ROOT
ATOM      1  O   UNL     1      -0.149   1.013   0.000  0.00  0.00    +0.000 OA
ATOM      2  C   UNL     1       0.520   0.529   0.000  0.00  0.00    +0.000 C 
ATOM      3  C   UNL     1       0.263  -0.260   0.000  0.00  0.00    +0.000 C 
ATOM      4  C   UNL     1      -0.562  -0.260   0.000  0.00  0.00    +0.000 A 
ATOM      5  C   UNL     1      -0.819   0.529   0.000  0.00  0.00    +0.000 A 
ATOM      6  C   UNL     1       0.819  -0.869   0.000  0.00  0.00    +0.000 C 
ATOM      7  C   UNL     1       1.625  -0.702   0.000  0.00  0.00    +0.000 C 
ATOM      8  C   UNL     1       1.882   0.087   0.000  0.00  0.00    +0.000 C 
ATOM      9  C   UNL     1       1.327   0.702   0.000  0.00  0.00    +0.000 C 
ATOM     10  C   UNL     1      -1.625   0.702   0.000  0.00  0.00    +0.000 A 
ATOM     11  C   UNL     1      -2.181   0.087   0.000  0.00  0.00    +0.000 A 
ATOM     12  C   UNL     1      -1.924  -0.702   0.000  0.00  0.00    +0.000 A 
ATOM     13  C   UNL     1      -1.117  -0.869   0.000  0.00  0.00    +0.000 A 
ATOM     14  O   UNL     1       0.562  -1.658   0.000  0.00  0.00    +0.000 OA
ATOM     15  O   UNL     1       2.689   0.260   0.000  0.00  0.00    +0.000 OA
ATOM     16  C   UNL     1      -0.072  -1.013   0.000  0.00  0.00    +0.000 C 
ATOM     17  C   UNL     1      -2.480  -1.312   0.000  0.00  0.00    +0.000 C 
ATOM     18  O   UNL     1      -0.860  -1.658   0.000  0.00  0.00    +0.000 OA
ATOM     19  O   UNL     1      -2.987   0.260   0.000  0.00  0.00    +0.000 OA
ENDROOT
BRANCH  10  20
ATOM     20  C   UNL     1      -1.882   1.485   0.000  0.00  0.00    +0.000 C 
ATOM     21  O   UNL     1      -1.327   2.100   0.000  0.00  0.00    +0.000 OA
ATOM     22  C   UNL     1      -2.689   1.658   0.000  0.00  0.00    +0.000 C 
ENDBRANCH  10  20
BRANCH   7  23
ATOM     23  C   UNL     1       2.181  -1.312   0.000  0.00  0.00    +0.000 C 
ATOM     24  O   UNL     1       1.924  -2.100   0.000  0.00  0.00    +0.000 OA
ATOM     25  C   UNL     1       2.987  -1.144   0.000  0.00  0.00    +0.000 C 
ENDBRANCH   7  23
TORSDOF 2
