REMARK  Name = 
REMARK  3 active torsions:
REMARK  status: ('A' for Active; 'I' for Inactive)
REMARK    1  A    between atoms: C_9  and  C_11
REMARK    2  A    between atoms: C_10  and  C_15
REMARK    3  A    between atoms: C_18  and  C_20
REMARK                            x       y       z     vdW  Elec       q    Type
REMARK                         _______ _______ _______ _____ _____    ______ ____
ROOT
ATOM      1  C   UNL     1      -1.420  -1.145   0.000  0.00  0.00    +0.000 A 
ATOM      2  C   UNL     1      -1.420  -0.321   0.000  0.00  0.00    +0.000 A 
ATOM      3  C   UNL     1      -2.135   0.092   0.000  0.00  0.00    +0.000 A 
ATOM      4  C   UNL     1      -2.849  -0.321   0.000  0.00  0.00    +0.000 A 
ATOM      5  C   UNL     1      -2.849  -1.145   0.000  0.00  0.00    +0.000 A 
ATOM      6  C   UNL     1      -2.135  -1.558   0.000  0.00  0.00    +0.000 A 
ATOM      7  N   UNL     1      -0.706   0.092   0.000  0.00  0.00    +0.000 NA
ATOM      8  C   UNL     1      -0.706  -1.558   0.000  0.00  0.00    +0.000 A 
ATOM      9  C   UNL     1       0.009  -1.145   0.000  0.00  0.00    +0.000 A 
ATOM     10  C   UNL     1       0.009  -0.321   0.000  0.00  0.00    +0.000 A 
ENDROOT
BRANCH  10  12
ATOM     11  N   UNL     1       0.809   0.912   0.000  0.00  0.00    +0.000 NA
ATOM     12  C   UNL     1       0.723   0.092   0.000  0.00  0.00    +0.000 C 
ATOM     13  N   UNL     1       1.477  -0.244   0.000  0.00  0.00    +0.000 NA
ATOM     14  C   UNL     1       2.029   0.369   0.000  0.00  0.00    +0.000 C 
ATOM     15  C   UNL     1       1.616   1.084   0.000  0.00  0.00    +0.000 C 
ATOM     16  O   UNL     1       2.849   0.283   0.000  0.00  0.00    +0.000 OA
ATOM     17  C   UNL     1       2.279   1.576   0.000  0.00  0.00    +0.000 C 
BRANCH  15  18
ATOM     18  C   UNL     1       1.539   1.905   0.000  0.00  0.00    +0.000 C 
ATOM     19  C   UNL     1       0.788   2.249   0.000  0.00  0.00    +0.000 C 
ATOM     20  C   UNL     1       2.211   2.383   0.000  0.00  0.00    +0.000 C 
ENDBRANCH  15  18
ENDBRANCH  10  12
BRANCH   9  21
ATOM     21  C   UNL     1       0.723  -1.558   0.000  0.00  0.00    +0.000 C 
ATOM     22  O   UNL     1       1.438  -1.145   0.000  0.00  0.00    +0.000 OA
ATOM     23  O   UNL     1       0.723  -2.383   0.000  0.00  0.00    +0.000 OA
ENDBRANCH   9  21
TORSDOF 3
