REMARK  Name = 
REMARK  0 active torsions:
REMARK  status: ('A' for Active; 'I' for Inactive)
REMARK                            x       y       z     vdW  Elec       q    Type
REMARK                         _______ _______ _______ _____ _____    ______ ____
ROOT
ATOM      1  B   UNL     1       0.000   0.000   0.000  0.00  0.00    +0.000 B 
ATOM      2  O   UNL     1       0.412   0.715   0.000  0.00  0.00    +0.000 OA
ATOM      3  O   UNL     1       0.412  -0.715   0.000  0.00  0.00    +0.000 OA
ATOM      4  O   UNL     1      -0.825   0.000   0.000  0.00  0.00    +0.000 OA
ENDROOT
TORSDOF 0
REMARK  Name = 
REMARK  0 active torsions:
REMARK  status: ('A' for Active; 'I' for Inactive)
REMARK                            x       y       z     vdW  Elec       q    Type
REMARK                         _______ _______ _______ _____ _____    ______ ____
ROOT
ATOM      1  C   UNL     1       3.013  -1.341   0.000  0.00  0.00    +0.000 A 
ATOM      2  C   UNL     1       2.298  -0.928   0.000  0.00  0.00    +0.000 A 
ATOM      3  C   UNL     1       2.298  -0.103   0.000  0.00  0.00    +0.000 A 
ATOM      4  C   UNL     1       3.013   0.309   0.000  0.00  0.00    +0.000 A 
ATOM      5  C   UNL     1       3.727  -0.103   0.000  0.00  0.00    +0.000 A 
ATOM      6  C   UNL     1       3.727  -0.928   0.000  0.00  0.00    +0.000 A 
ATOM      7 HG   UNL     1       3.013   1.134   0.000  0.00  0.00    +0.000 Hg
ENDROOT
TORSDOF 0
REMARK  Name = 
REMARK  0 active torsions:
REMARK  status: ('A' for Active; 'I' for Inactive)
REMARK                            x       y       z     vdW  Elec       q    Type
REMARK                         _______ _______ _______ _____ _____    ______ ____
ROOT
ATOM      1  C   UNL     1       0.000  -5.466   0.000  0.00  0.00    +0.000 A 
ATOM      2  C   UNL     1      -0.715  -5.053   0.000  0.00  0.00    +0.000 A 
ATOM      3  C   UNL     1      -0.715  -4.228   0.000  0.00  0.00    +0.000 A 
ATOM      4  C   UNL     1       0.000  -3.816   0.000  0.00  0.00    +0.000 A 
ATOM      5  C   UNL     1       0.715  -4.228   0.000  0.00  0.00    +0.000 A 
ATOM      6  C   UNL     1       0.715  -5.053   0.000  0.00  0.00    +0.000 A 
ATOM      7 HG   UNL     1       0.000  -2.991   0.000  0.00  0.00    +0.000 Hg
ENDROOT
TORSDOF 0
REMARK  Name = 
REMARK  0 active torsions:
REMARK  status: ('A' for Active; 'I' for Inactive)
REMARK                            x       y       z     vdW  Elec       q    Type
REMARK                         _______ _______ _______ _____ _____    ______ ____
ROOT
ATOM      1  O   HOH     1       3.013   1.959   0.000  0.00  0.00    +0.000 OA
ENDROOT
TORSDOF 0
