REMARK  Name = 
REMARK  4 active torsions:
REMARK  status: ('A' for Active; 'I' for Inactive)
REMARK    1  A    between atoms: C_1  and  C_6
REMARK    2  A    between atoms: C_7  and  N_9
REMARK    3  A    between atoms: C_8  and  C_16
REMARK    4  A    between atoms: N_9  and  C_23
REMARK                            x       y       z     vdW  Elec       q    Type
REMARK                         _______ _______ _______ _____ _____    ______ ____
ROOT
ATOM      1  C   UNL     1      -0.267  -1.153   0.000  0.00  0.00    +0.000 A 
ATOM      2  C   UNL     1       0.447  -1.565   0.000  0.00  0.00    +0.000 A 
ATOM      3  C   UNL     1      -0.982  -1.565   0.000  0.00  0.00    +0.000 A 
ATOM      4  F   UNL     1      -1.696  -1.153   0.000  0.00  0.00    +0.000 F 
ATOM      5  C   UNL     1      -0.982  -2.390   0.000  0.00  0.00    +0.000 A 
ATOM      6  F   UNL     1      -1.696  -2.803   0.000  0.00  0.00    +0.000 F 
ATOM      7  C   UNL     1      -0.267  -2.803   0.000  0.00  0.00    +0.000 A 
ATOM      8  C   UNL     1       0.447  -2.390   0.000  0.00  0.00    +0.000 A 
ENDROOT
BRANCH   2  14
ATOM      9  C   UNL     1       1.162   0.839   0.000  0.00  0.00    +0.000 C 
ATOM     10  C   UNL     1       1.745   0.256   0.000  0.00  0.00    +0.000 C 
ATOM     11  N   UNL     1       1.162  -0.328   0.000  0.00  0.00    +0.000 N 
ATOM     12  C   UNL     1       0.578   0.256   0.000  0.00  0.00    +0.000 C 
ATOM     13  O   UNL     1       0.578   1.422   0.000  0.00  0.00    +0.000 OA
ATOM     14  C   UNL     1       1.162  -1.153   0.000  0.00  0.00    +0.000 C 
ATOM     15  O   UNL     1       1.876  -1.565   0.000  0.00  0.00    +0.000 OA
BRANCH   9  16
ATOM     16  C   UNL     1       1.745   1.422   0.000  0.00  0.00    +0.000 C 
ATOM     17  C   UNL     1       2.115   2.803   0.000  0.00  0.00    +0.000 C 
ATOM     18  C   UNL     1       1.531   2.219   0.000  0.00  0.00    +0.000 C 
ATOM     19  N   UNL     1       2.542   1.209   0.000  0.00  0.00    +0.000 NA
ATOM     20  C   UNL     1       3.125   1.792   0.000  0.00  0.00    +0.000 C 
ATOM     21  C   UNL     1       2.912   2.589   0.000  0.00  0.00    +0.000 C 
ENDBRANCH   9  16
ENDBRANCH   2  14
BRANCH   1  22
ATOM     22  N   UNL     1      -0.267  -0.328   0.000  0.00  0.00    +0.000 NA
BRANCH  22  28
ATOM     23  C   UNL     1      -1.696   1.322   0.000  0.00  0.00    +0.000 A 
ATOM     24  C   UNL     1      -0.982   0.910   0.000  0.00  0.00    +0.000 A 
ATOM     25  C   UNL     1      -2.411   0.910   0.000  0.00  0.00    +0.000 A 
ATOM     26  C   UNL     1      -2.411   0.085   0.000  0.00  0.00    +0.000 A 
ATOM     27  C   UNL     1      -1.696  -0.328   0.000  0.00  0.00    +0.000 A 
ATOM     28  C   UNL     1      -0.982   0.085   0.000  0.00  0.00    +0.000 A 
ATOM     29  F   UNL     1      -0.267   1.322   0.000  0.00  0.00    +0.000 F 
ATOM     30  I   UNL     1      -3.125   1.322   0.000  0.00  0.00    +0.000 I 
ENDBRANCH  22  28
ENDBRANCH   1  22
TORSDOF 4
