REMARK  Name = 
REMARK  7 active torsions:
REMARK  status: ('A' for Active; 'I' for Inactive)
REMARK    1  A    between atoms: O_4  and  C_22
REMARK    2  A    between atoms: O_4  and  C_31
REMARK    3  A    between atoms: N_11  and  C_21
REMARK    4  A    between atoms: C_15  and  C_19
REMARK    5  A    between atoms: C_16  and  C_22
REMARK    6  A    between atoms: C_24  and  C_29
REMARK    7  A    between atoms: C_29  and  C_30
REMARK                            x       y       z     vdW  Elec       q    Type
REMARK                         _______ _______ _______ _____ _____    ______ ____
ROOT
ATOM      1  F   UNL     1      -1.766   1.076   0.000  0.00  0.00    +0.000 F 
ATOM      2  F   UNL     1       1.092   1.076   0.000  0.00  0.00    +0.000 F 
ATOM      3  C   UNL     1      -0.337   1.076   0.000  0.00  0.00    +0.000 A 
ATOM      4  C   UNL     1      -0.337  -0.574   0.000  0.00  0.00    +0.000 A 
ATOM      5  C   UNL     1      -1.052   0.664   0.000  0.00  0.00    +0.000 A 
ATOM      6  C   UNL     1       0.377   0.664   0.000  0.00  0.00    +0.000 A 
ATOM      7  C   UNL     1      -1.052  -0.161   0.000  0.00  0.00    +0.000 A 
ATOM      8  C   UNL     1       0.377  -0.161   0.000  0.00  0.00    +0.000 A 
ENDROOT
BRANCH   3  13
ATOM      9  O   UNL     1      -1.052   4.789   0.000  0.00  0.00    +0.000 OA
ATOM     10  N   UNL     1      -0.337   3.551   0.000  0.00  0.00    +0.000 N 
ATOM     11  C   UNL     1       0.377   2.314   0.000  0.00  0.00    +0.000 C 
ATOM     12  C   UNL     1       0.377   3.139   0.000  0.00  0.00    +0.000 C 
ATOM     13  C   UNL     1      -0.337   1.901   0.000  0.00  0.00    +0.000 C 
ATOM     14  C   UNL     1      -1.052   3.139   0.000  0.00  0.00    +0.000 C 
ATOM     15  C   UNL     1      -1.052   2.314   0.000  0.00  0.00    +0.000 C 
ATOM     16  C   UNL     1      -0.337   4.376   0.000  0.00  0.00    +0.000 C 
BRANCH  16  18
ATOM     17  O   UNL     1       1.092   4.376   0.000  0.00  0.00    +0.000 OA
ATOM     18  C   UNL     1       0.377   4.789   0.000  0.00  0.00    +0.000 C 
BRANCH  18  20
ATOM     19  O   UNL     1       1.092   6.026   0.000  0.00  0.00    +0.000 OA
ATOM     20  C   UNL     1       0.377   5.614   0.000  0.00  0.00    +0.000 C 
ENDBRANCH  18  20
ENDBRANCH  16  18
ENDBRANCH   3  13
BRANCH   4  23
ATOM     21  O   UNL     1      -0.750  -2.668   0.000  0.00  0.00    +0.000 OA
ATOM     22  O   UNL     1      -1.789  -1.629   0.000  0.00  0.00    +0.000 OA
ATOM     23  N   UNL     1      -0.337  -1.399   0.000  0.00  0.00    +0.000 N 
ATOM     24  C   UNL     1       0.075  -2.668   0.000  0.00  0.00    +0.000 C 
ATOM     25  C   UNL     1       0.330  -1.884   0.000  0.00  0.00    +0.000 C 
ATOM     26  C   UNL     1      -1.005  -1.884   0.000  0.00  0.00    +0.000 C 
BRANCH  24  27
ATOM     27  C   UNL     1       0.560  -3.336   0.000  0.00  0.00    +0.000 C 
BRANCH  27  28
ATOM     28  O   UNL     1       0.225  -4.089   0.000  0.00  0.00    +0.000 OA
BRANCH  28  31
ATOM     29  O   UNL     1       1.789  -5.541   0.000  0.00  0.00    +0.000 OA
ATOM     30  N   UNL     1       1.534  -4.757   0.000  0.00  0.00    +0.000 NA
ATOM     31  C   UNL     1       0.709  -4.757   0.000  0.00  0.00    +0.000 A 
ATOM     32  C   UNL     1       0.455  -5.541   0.000  0.00  0.00    +0.000 A 
ATOM     33  C   UNL     1       1.122  -6.026   0.000  0.00  0.00    +0.000 A 
ENDBRANCH  28  31
ENDBRANCH  27  28
ENDBRANCH  24  27
ENDBRANCH   4  23
TORSDOF 7
