REMARK  Name = 
REMARK  3 active torsions:
REMARK  status: ('A' for Active; 'I' for Inactive)
REMARK    1  A    between atoms: N_3  and  C_8
REMARK    2  A    between atoms: C_7  and  C_8
REMARK    3  A    between atoms: C_7  and  S_11
REMARK                            x       y       z     vdW  Elec       q    Type
REMARK                         _______ _______ _______ _____ _____    ______ ____
ROOT
ATOM      1  C   UNL     1      -1.429  -1.237   0.000  0.00  0.00    +0.000 C 
ATOM      2  C   UNL     1      -0.714  -0.825   0.000  0.00  0.00    +0.000 C 
ATOM      3  N   UNL     1      -0.714   0.000   0.000  0.00  0.00    +0.000 NA
ATOM      4  O   UNL     1      -2.143  -0.825   0.000  0.00  0.00    +0.000 OA
ATOM      5  C   UNL     1      -2.143   0.000   0.000  0.00  0.00    +0.000 C 
ATOM      6  C   UNL     1      -1.429   0.412   0.000  0.00  0.00    +0.000 C 
ENDROOT
BRANCH   3   7
ATOM      7  C   UNL     1       0.000   0.412   0.000  0.00  0.00    +0.000 C 
BRANCH   7   8
ATOM      8  C   UNL     1       0.714   0.000   0.000  0.00  0.00    +0.000 C 
BRANCH   8  11
ATOM      9  O   UNL     1       1.429   1.237   0.000  0.00  0.00    +0.000 OA
ATOM     10  O   UNL     1       2.143   0.000   0.000  0.00  0.00    +0.000 OA
ATOM     11  S   UNL     1       1.429   0.412   0.000  0.00  0.00    +0.000 S 
ATOM     12  O   UNL     1       2.143   0.825   0.000  0.00  0.00    +0.000 OA
ENDBRANCH   8  11
ENDBRANCH   7   8
ENDBRANCH   3   7
TORSDOF 3
