REMARK  Name = 
REMARK  33 active torsions:
REMARK  status: ('A' for Active; 'I' for Inactive)
REMARK    1  A    between atoms: C_7  and  C_10
REMARK    2  A    between atoms: C_10  and  C_17
REMARK    3  A    between atoms: C_11  and  C_12
REMARK    4  A    between atoms: C_12  and  N_14
REMARK    5  A    between atoms: C_12  and  C_68
REMARK    6  A    between atoms: C_16  and  C_17
REMARK    7  A    between atoms: C_17  and  N_18
REMARK    8  A    between atoms: C_19  and  C_20
REMARK    9  A    between atoms: C_20  and  C_22
REMARK   10  A    between atoms: C_20  and  N_23
REMARK   11  A    between atoms: C_22  and  C_24
REMARK   12  A    between atoms: C_31  and  C_32
REMARK   13  A    between atoms: C_32  and  N_33
REMARK   14  A    between atoms: C_32  and  C_34
REMARK   15  A    between atoms: C_36  and  C_37
REMARK   16  A    between atoms: C_37  and  C_38
REMARK   17  A    between atoms: C_37  and  N_49
REMARK   18  A    between atoms: C_38  and  C_39
REMARK   19  A    between atoms: C_50  and  C_51
REMARK   20  A    between atoms: C_51  and  C_53
REMARK   21  A    between atoms: C_51  and  N_59
REMARK   22  A    between atoms: C_53  and  C_54
REMARK   23  A    between atoms: C_60  and  C_62
REMARK   24  A    between atoms: C_68  and  C_69
REMARK   25  A    between atoms: N_72  and  C_73
REMARK   26  A    between atoms: C_73  and  C_74
REMARK   27  A    between atoms: C_73  and  C_77
REMARK   28  A    between atoms: C_77  and  C_78
REMARK   29  A    between atoms: C_78  and  C_79
REMARK   30  A    between atoms: C_79  and  N_80
REMARK   31  A    between atoms: C_86  and  C_90
REMARK   32  A    between atoms: C_89  and  N_91
REMARK   33  A    between atoms: C_89  and  C_92
REMARK                            x       y       z     vdW  Elec       q    Type
REMARK                         _______ _______ _______ _____ _____    ______ ____
ROOT
ATOM      1  C   UNK     1      -1.027  -0.745   0.000  0.00  0.00    +0.000 C 
ENDROOT
BRANCH   1   2
ATOM      2  N   UNK     1      -1.742  -1.158   0.000  0.00  0.00    +0.000 NA
ATOM      3  C   UNK     1      -2.456  -0.745   0.000  0.00  0.00    +0.000 C 
ATOM      4  O   UNK     1      -2.456   0.080   0.000  0.00  0.00    +0.000 OA
BRANCH   3   5
ATOM      5  C   UNK     1      -3.171  -1.158   0.000  0.00  0.00    +0.000 C 
BRANCH   5   6
ATOM      6  N   UNK     1      -3.885  -0.745   0.000  0.00  0.00    +0.000 NA
ATOM      7  C   UNK     1      -4.600  -1.157   0.000  0.00  0.00    +0.000 C 
ATOM      8  O   UNK     1      -4.600  -1.982   0.000  0.00  0.00    +0.000 OA
BRANCH   7   9
ATOM      9  C   UNK     1      -5.314  -0.745   0.000  0.00  0.00    +0.000 C 
BRANCH   9  10
ATOM     10  N   UNK     1      -5.314   0.080   0.000  0.00  0.00    +0.000 NA
ATOM     11  C   UNK     1      -6.028   0.492   0.000  0.00  0.00    +0.000 C 
ATOM     12  O   UNK     1      -6.743   0.080   0.000  0.00  0.00    +0.000 OA
BRANCH  11  13
ATOM     13  C   UNK     1      -6.028   1.317   0.000  0.00  0.00    +0.000 C 
BRANCH  13  14
ATOM     14  N   UNK     1      -6.774   1.671   0.000  0.00  0.00    +0.000 NA
ATOM     15  C   UNK     1      -6.781   2.682   0.000  0.00  0.00    +0.000 C 
ATOM     16  O   UNK     1      -7.499   3.089   0.000  0.00  0.00    +0.000 OA
BRANCH  15  17
ATOM     17  C   UNK     1      -6.070   3.099   0.000  0.00  0.00    +0.000 C 
ATOM     18  C   UNK     1      -6.070   3.924   0.000  0.00  0.00    +0.000 C 
ATOM     19  C   UNK     1      -5.285   4.179   0.000  0.00  0.00    +0.000 C 
ATOM     20  C   UNK     1      -4.800   3.512   0.000  0.00  0.00    +0.000 C 
ATOM     21  N   UNK     1      -5.285   2.844   0.000  0.00  0.00    +0.000 NA
ATOM     22  O   UNK     1      -3.975   3.512   0.000  0.00  0.00    +0.000 OA
ENDBRANCH  15  17
ENDBRANCH  13  14
BRANCH  13  23
ATOM     23  C   UNK     1      -5.314   1.730   0.000  0.00  0.00    +0.000 C 
BRANCH  23  24
ATOM     24  C   UNK     1      -4.599   1.317   0.000  0.00  0.00    +0.000 A 
ATOM     25  N   UNK     1      -3.932   1.802   0.000  0.00  0.00    +0.000 NA
ATOM     26  C   UNK     1      -4.345   0.532   0.000  0.00  0.00    +0.000 A 
ATOM     27  C   UNK     1      -3.265   1.316   0.000  0.00  0.00    +0.000 A 
ATOM     28  N   UNK     1      -3.520   0.532   0.000  0.00  0.00    +0.000 NA
ENDBRANCH  23  24
ENDBRANCH  13  23
ENDBRANCH  11  13
ENDBRANCH   9  10
BRANCH   9  29
ATOM     29  C   UNK     1      -6.029  -1.157   0.000  0.00  0.00    +0.000 C 
BRANCH  29  30
ATOM     30  C   UNK     1      -6.029  -1.982   0.000  0.00  0.00    +0.000 A 
ATOM     31  C   UNK     1      -6.696  -2.467   0.000  0.00  0.00    +0.000 A 
ATOM     32  N   UNK     1      -6.442  -3.252   0.000  0.00  0.00    +0.000 NA
ATOM     33  C   UNK     1      -5.362  -2.468   0.000  0.00  0.00    +0.000 A 
ATOM     34  C   UNK     1      -5.617  -3.252   0.000  0.00  0.00    +0.000 A 
ATOM     35  C   UNK     1      -4.001  -2.906   0.000  0.00  0.00    +0.000 A 
ATOM     36  C   UNK     1      -4.254  -3.691   0.000  0.00  0.00    +0.000 A 
ATOM     37  C   UNK     1      -4.555  -2.294   0.000  0.00  0.00    +0.000 A 
ATOM     38  C   UNK     1      -5.061  -3.865   0.000  0.00  0.00    +0.000 A 
ENDBRANCH  29  30
ENDBRANCH   9  29
ENDBRANCH   7   9
ENDBRANCH   5   6
BRANCH   5  39
ATOM     39  C   UNK     1      -3.171  -1.983   0.000  0.00  0.00    +0.000 C 
ATOM     40  O   UNK     1      -2.456  -2.395   0.000  0.00  0.00    +0.000 OA
ENDBRANCH   5  39
ENDBRANCH   3   5
ENDBRANCH   1   2
BRANCH   1  42
ATOM     41  N   UNK     1       0.402  -0.745   0.000  0.00  0.00    +0.000 NA
ATOM     42  C   UNK     1      -0.313  -1.158   0.000  0.00  0.00    +0.000 C 
ATOM     43  O   UNK     1      -0.313  -1.983   0.000  0.00  0.00    +0.000 OA
BRANCH  41  44
ATOM     44  C   UNK     1       1.116  -1.158   0.000  0.00  0.00    +0.000 C 
BRANCH  44  47
ATOM     45  N   UNK     1       2.545  -1.158   0.000  0.00  0.00    +0.000 NA
ATOM     46  O   UNK     1       1.831   0.080   0.000  0.00  0.00    +0.000 OA
ATOM     47  C   UNK     1       1.831  -0.745   0.000  0.00  0.00    +0.000 C 
BRANCH  45  48
ATOM     48  C   UNK     1       3.260  -0.745   0.000  0.00  0.00    +0.000 C 
BRANCH  48  49
ATOM     49  C   UNK     1       3.260   0.080   0.000  0.00  0.00    +0.000 C 
ATOM     50  O   UNK     1       2.545   0.492   0.000  0.00  0.00    +0.000 OA
ATOM     51  N   UNK     1       3.974   0.492   0.000  0.00  0.00    +0.000 NA
BRANCH  51  52
ATOM     52  C   UNK     1       3.974   1.317   0.000  0.00  0.00    +0.000 C 
BRANCH  52  53
ATOM     53  C   UNK     1       4.689   1.730   0.000  0.00  0.00    +0.000 C 
ATOM     54  N   UNK     1       4.689   2.555   0.000  0.00  0.00    +0.000 N 
ATOM     55  O   UNK     1       5.403   1.317   0.000  0.00  0.00    +0.000 OA
ATOM     56  C   UNK     1       4.021   3.039   0.000  0.00  0.00    +0.000 C 
ATOM     57  C   UNK     1       4.275   3.824   0.000  0.00  0.00    +0.000 C 
ATOM     58  C   UNK     1       5.356   3.040   0.000  0.00  0.00    +0.000 C 
ATOM     59  C   UNK     1       5.100   3.825   0.000  0.00  0.00    +0.000 C 
BRANCH  58  61
ATOM     60  O   UNK     1       6.785   3.040   0.000  0.00  0.00    +0.000 OA
ATOM     61  C   UNK     1       6.070   2.628   0.000  0.00  0.00    +0.000 C 
ATOM     62  N   UNK     1       6.070   1.803   0.000  0.00  0.00    +0.000 NA
BRANCH  62  63
ATOM     63  C   UNK     1       6.785   1.390   0.000  0.00  0.00    +0.000 C 
BRANCH  63  64
ATOM     64  C   UNK     1       6.785   0.565   0.000  0.00  0.00    +0.000 C 
ATOM     65  N   UNK     1       7.499   0.153   0.000  0.00  0.00    +0.000 NA
ATOM     66  O   UNK     1       6.070   0.153   0.000  0.00  0.00    +0.000 OA
ENDBRANCH  63  64
ENDBRANCH  62  63
ENDBRANCH  58  61
ENDBRANCH  52  53
BRANCH  52  67
ATOM     67  C   UNK     1       3.260   1.730   0.000  0.00  0.00    +0.000 C 
BRANCH  67  68
ATOM     68  C   UNK     1       3.260   2.555   0.000  0.00  0.00    +0.000 C 
BRANCH  68  69
ATOM     69  C   UNK     1       2.545   2.967   0.000  0.00  0.00    +0.000 C 
BRANCH  69  70
ATOM     70  N   UNK     1       1.831   2.555   0.000  0.00  0.00    +0.000 NA
ATOM     71  C   UNK     1       1.116   2.967   0.000  0.00  0.00    +0.000 C 
ATOM     72  N   UNK     1       0.402   2.555   0.000  0.00  0.00    +0.000 NA
ATOM     73  N   UNK     1       1.116   3.792   0.000  0.00  0.00    +0.000 NA
ENDBRANCH  69  70
ENDBRANCH  68  69
ENDBRANCH  67  68
ENDBRANCH  52  67
ENDBRANCH  51  52
ENDBRANCH  48  49
BRANCH  48  74
ATOM     74  C   UNK     1       3.974  -1.158   0.000  0.00  0.00    +0.000 C 
BRANCH  74  75
ATOM     75  C   UNK     1       4.689  -0.745   0.000  0.00  0.00    +0.000 C 
ATOM     76  C   UNK     1       5.403  -1.158   0.000  0.00  0.00    +0.000 C 
ATOM     77  C   UNK     1       4.689   0.080   0.000  0.00  0.00    +0.000 C 
ENDBRANCH  74  75
ENDBRANCH  48  74
ENDBRANCH  45  48
ENDBRANCH  44  47
BRANCH  44  78
ATOM     78  C   UNK     1       1.116  -1.983   0.000  0.00  0.00    +0.000 C 
BRANCH  78  85
ATOM     79  C   UNK     1      -0.286  -2.942   0.000  0.00  0.00    +0.000 A 
ATOM     80  C   UNK     1      -0.286  -3.767   0.000  0.00  0.00    +0.000 A 
ATOM     81  C   UNK     1      -1.001  -2.529   0.000  0.00  0.00    +0.000 A 
ATOM     82  C   UNK     1      -1.001  -4.179   0.000  0.00  0.00    +0.000 A 
ATOM     83  C   UNK     1      -1.715  -2.942   0.000  0.00  0.00    +0.000 A 
ATOM     84  C   UNK     1      -1.715  -3.767   0.000  0.00  0.00    +0.000 A 
ATOM     85  C   UNK     1       0.498  -2.687   0.000  0.00  0.00    +0.000 A 
ATOM     86  C   UNK     1       0.983  -3.354   0.000  0.00  0.00    +0.000 A 
ATOM     87  N   UNK     1       0.498  -4.022   0.000  0.00  0.00    +0.000 NA
ENDBRANCH  78  85
ENDBRANCH  44  78
ENDBRANCH  41  44
ENDBRANCH   1  42
BRANCH   1  88
ATOM     88  C   UNK     1      -1.027   0.080   0.000  0.00  0.00    +0.000 C 
BRANCH  88  89
ATOM     89  C   UNK     1      -0.313   0.492   0.000  0.00  0.00    +0.000 A 
ATOM     90  C   UNK     1      -0.313   1.317   0.000  0.00  0.00    +0.000 A 
ATOM     91  C   UNK     1       0.402   0.080   0.000  0.00  0.00    +0.000 A 
ATOM     92  C   UNK     1       0.402   1.730   0.000  0.00  0.00    +0.000 A 
ATOM     93  C   UNK     1       1.116   0.492   0.000  0.00  0.00    +0.000 A 
ATOM     94  C   UNK     1       1.116   1.317   0.000  0.00  0.00    +0.000 A 
ATOM     95  O   UNK     1       1.831   1.730   0.000  0.00  0.00    +0.000 OA
ENDBRANCH  88  89
ENDBRANCH   1  88
TORSDOF 33
