REMARK  Name = 
REMARK  11 active torsions:
REMARK  status: ('A' for Active; 'I' for Inactive)
REMARK    1  A    between atoms: C_1  and  C_2
REMARK    2  A    between atoms: C_2  and  C_12
REMARK    3  A    between atoms: O_3  and  P_16
REMARK    4  A    between atoms: O_3  and  P_17
REMARK    5  A    between atoms: O_4  and  C_5
REMARK    6  A    between atoms: O_4  and  P_16
REMARK    7  A    between atoms: C_5  and  C_7
REMARK    8  A    between atoms: C_8  and  C_9
REMARK    9  A    between atoms: C_9  and  C_10
REMARK   10  A    between atoms: C_10  and  C_11
REMARK   11  A    between atoms: C_12  and  C_13
REMARK                            x       y       z     vdW  Elec       q    Type
REMARK                         _______ _______ _______ _____ _____    ______ ____
ROOT
ATOM      1  C   UNL     1       1.429  -0.412   0.000  0.00  0.00    +0.000 C 
ATOM      2  C   UNL     1       0.715   0.000   0.000  0.00  0.00    +0.000 C 
ATOM      3  C   UNL     1       0.714   0.825   0.000  0.00  0.00    +0.000 C 
ENDROOT
BRANCH   1   4
ATOM      4  C   UNL     1       2.143   0.000   0.000  0.00  0.00    +0.000 C 
BRANCH   4   5
ATOM      5  O   UNL     1       2.858  -0.412   0.000  0.00  0.00    +0.000 OA
BRANCH   5   6
ATOM      6  P   UNL     1       3.572   0.000   0.000  0.00  0.00    +0.000 P 
ATOM      7  O   UNL     1       3.572   0.825   0.000  0.00  0.00    +0.000 OA
ATOM      8  O   UNL     1       3.572  -0.825   0.000  0.00  0.00    +0.000 OA
BRANCH   6   9
ATOM      9  O   UNL     1       4.287  -0.412   0.000  0.00  0.00    +0.000 OA
BRANCH   9  11
ATOM     10  O   UNL     1       5.716  -0.412   0.000  0.00  0.00    +0.000 OA
ATOM     11  P   UNL     1       5.001   0.000   0.000  0.00  0.00    +0.000 P 
ATOM     12  O   UNL     1       5.001   0.825   0.000  0.00  0.00    +0.000 OA
ATOM     13  O   UNL     1       5.001  -0.825   0.000  0.00  0.00    +0.000 OA
ENDBRANCH   9  11
ENDBRANCH   6   9
ENDBRANCH   5   6
ENDBRANCH   4   5
ENDBRANCH   1   4
BRANCH   2  14
ATOM     14  C   UNL     1       0.000  -0.412   0.000  0.00  0.00    +0.000 C 
BRANCH  14  15
ATOM     15  C   UNL     1      -0.715   0.000   0.000  0.00  0.00    +0.000 C 
BRANCH  15  17
ATOM     16  C   UNL     1      -2.143   0.000   0.000  0.00  0.00    +0.000 C 
ATOM     17  C   UNL     1      -1.429  -0.412   0.000  0.00  0.00    +0.000 C 
ATOM     18  C   UNL     1      -2.143   0.825   0.000  0.00  0.00    +0.000 C 
BRANCH  16  19
ATOM     19  C   UNL     1      -2.858  -0.412   0.000  0.00  0.00    +0.000 C 
BRANCH  19  20
ATOM     20  C   UNL     1      -3.572   0.000   0.000  0.00  0.00    +0.000 C 
BRANCH  20  21
ATOM     21  C   UNL     1      -4.287  -0.412   0.000  0.00  0.00    +0.000 C 
ATOM     22  C   UNL     1      -5.001   0.000   0.000  0.00  0.00    +0.000 C 
ATOM     23  C   UNL     1      -5.716  -0.412   0.000  0.00  0.00    +0.000 C 
ATOM     24  C   UNL     1      -5.001   0.825   0.000  0.00  0.00    +0.000 C 
ENDBRANCH  20  21
ENDBRANCH  19  20
ENDBRANCH  16  19
ENDBRANCH  15  17
ENDBRANCH  14  15
ENDBRANCH   2  14
TORSDOF 11
