REMARK  Name = 
REMARK  12 active torsions:
REMARK  status: ('A' for Active; 'I' for Inactive)
REMARK    1  A    between atoms: C_1  and  O_38
REMARK    2  A    between atoms: N_2  and  C_3
REMARK    3  A    between atoms: C_3  and  C_4
REMARK    4  A    between atoms: C_3  and  C_30
REMARK    5  A    between atoms: N_5  and  C_6
REMARK    6  A    between atoms: C_6  and  C_7
REMARK    7  A    between atoms: C_6  and  C_19
REMARK    8  A    between atoms: C_7  and  C_8
REMARK    9  A    between atoms: C_11  and  N_14
REMARK   10  A    between atoms: N_14  and  S_15
REMARK   11  A    between atoms: C_21  and  C_24
REMARK   12  A    between atoms: C_30  and  C_31
REMARK                            x       y       z     vdW  Elec       q    Type
REMARK                         _______ _______ _______ _____ _____    ______ ____
ROOT
ATOM      1  C   UNL     1       0.007  -0.577   0.000  0.00  0.00    +0.000 C 
ENDROOT
BRANCH   1   2
ATOM      2  C   UNL     1       0.007   0.247   0.000  0.00  0.00    +0.000 A 
ATOM      3  N   UNL     1       0.667   0.742   0.000  0.00  0.00    +0.000 NA
ATOM      4  C   UNL     1       0.419   1.512   0.000  0.00  0.00    +0.000 A 
ATOM      5  S   UNL     1      -0.405   1.512   0.000  0.00  0.00    +0.000 S 
ATOM      6  C   UNL     1      -0.680   0.742   0.000  0.00  0.00    +0.000 A 
BRANCH   4   7
ATOM      7  C   UNL     1       0.887   2.199   0.000  0.00  0.00    +0.000 A 
ATOM      8  C   UNL     1       0.639   2.969   0.000  0.00  0.00    +0.000 A 
ATOM      9  C   UNL     1       1.299   3.463   0.000  0.00  0.00    +0.000 A 
ATOM     10  C   UNL     1       1.959   2.969   0.000  0.00  0.00    +0.000 A 
ATOM     11  S   UNL     1       1.712   2.199   0.000  0.00  0.00    +0.000 S 
ENDBRANCH   4   7
ENDBRANCH   1   2
BRANCH   1  13
ATOM     12  C   UNL     1      -1.422  -0.577   0.000  0.00  0.00    +0.000 C 
ATOM     13  N   UNL     1      -0.707  -0.990   0.000  0.00  0.00    +0.000 NA
ATOM     14  O   UNL     1      -1.422   0.247   0.000  0.00  0.00    +0.000 OA
BRANCH  12  15
ATOM     15  C   UNL     1      -2.137  -0.990   0.000  0.00  0.00    +0.000 C 
BRANCH  15  17
ATOM     16  C   UNL     1      -3.566  -0.990   0.000  0.00  0.00    +0.000 C 
ATOM     17  N   UNL     1      -2.852  -0.577   0.000  0.00  0.00    +0.000 NA
ATOM     18  O   UNL     1      -3.566  -1.814   0.000  0.00  0.00    +0.000 OA
BRANCH  16  19
ATOM     19  O   UNL     1      -4.281  -0.577   0.000  0.00  0.00    +0.000 OA
ATOM     20  C   UNL     1      -4.983  -0.982   0.000  0.00  0.00    +0.000 C 
ENDBRANCH  16  19
ENDBRANCH  15  17
BRANCH  15  21
ATOM     21  C   UNL     1      -2.137  -1.814   0.000  0.00  0.00    +0.000 C 
BRANCH  21  22
ATOM     22  C   UNL     1      -1.422  -2.227   0.000  0.00  0.00    +0.000 A 
ATOM     23  C   UNL     1      -0.707  -1.814   0.000  0.00  0.00    +0.000 A 
ATOM     24  C   UNL     1       0.007  -2.227   0.000  0.00  0.00    +0.000 A 
ATOM     25  C   UNL     1       0.007  -3.051   0.000  0.00  0.00    +0.000 A 
ATOM     26  C   UNL     1      -0.707  -3.463   0.000  0.00  0.00    +0.000 A 
ATOM     27  C   UNL     1      -1.422  -3.051   0.000  0.00  0.00    +0.000 A 
ENDBRANCH  21  22
ENDBRANCH  15  21
ENDBRANCH  12  15
ENDBRANCH   1  13
BRANCH   1  28
ATOM     28  C   UNL     1       0.694  -0.990   0.000  0.00  0.00    +0.000 C 
BRANCH  28  29
ATOM     29  C   UNL     1       1.409  -0.577   0.000  0.00  0.00    +0.000 A 
ATOM     30  C   UNL     1       1.409   0.247   0.000  0.00  0.00    +0.000 A 
ATOM     31  C   UNL     1       2.124   0.660   0.000  0.00  0.00    +0.000 A 
ATOM     32  C   UNL     1       2.838   0.247   0.000  0.00  0.00    +0.000 A 
ATOM     33  C   UNL     1       2.838  -0.577   0.000  0.00  0.00    +0.000 A 
ATOM     34  C   UNL     1       2.124  -0.990   0.000  0.00  0.00    +0.000 A 
BRANCH  32  35
ATOM     35  N   UNL     1       3.553   0.660   0.000  0.00  0.00    +0.000 NA
BRANCH  35  36
ATOM     36  S   UNL     1       4.268   0.247   0.000  0.00  0.00    +0.000 S 
ATOM     37  O   UNL     1       3.856  -0.467   0.000  0.00  0.00    +0.000 OA
ATOM     38  O   UNL     1       4.680   0.962   0.000  0.00  0.00    +0.000 OA
ATOM     39  O   UNL     1       4.983  -0.165   0.000  0.00  0.00    +0.000 OA
ENDBRANCH  35  36
ENDBRANCH  32  35
ENDBRANCH  28  29
ENDBRANCH   1  28
TORSDOF 12
