REMARK  Name = 
REMARK  3 active torsions:
REMARK  status: ('A' for Active; 'I' for Inactive)
REMARK    1  A    between atoms: C_1  and  C_3
REMARK    2  A    between atoms: C_3  and  C_4
REMARK    3  A    between atoms: C_4  and  C_6
REMARK                            x       y       z     vdW  Elec       q    Type
REMARK                         _______ _______ _______ _____ _____    ______ ____
ROOT
ATOM      1  C   UNL     1      -0.245  -0.150   0.000  0.00  0.00    +0.000 A 
ATOM      2  C   UNL     1      -0.331  -0.970   0.000  0.00  0.00    +0.000 A 
ATOM      3  N   UNL     1      -1.138  -1.142   0.000  0.00  0.00    +0.000 NA
ATOM      4  C   UNL     1      -1.551  -0.427   0.000  0.00  0.00    +0.000 A 
ATOM      5  C   UNL     1      -0.999   0.186   0.000  0.00  0.00    +0.000 A 
ATOM      6  C   UNL     1      -1.254   0.970   0.000  0.00  0.00    +0.000 A 
ATOM      7  C   UNL     1      -2.358  -0.256   0.000  0.00  0.00    +0.000 A 
ATOM      8  C   UNL     1      -2.613   0.529   0.000  0.00  0.00    +0.000 A 
ATOM      9  C   UNL     1      -2.061   1.142   0.000  0.00  0.00    +0.000 A 
ENDROOT
BRANCH   1  10
ATOM     10  C   UNL     1       0.469   0.263   0.000  0.00  0.00    +0.000 C 
BRANCH  10  11
ATOM     11  C   UNL     1       1.184  -0.150   0.000  0.00  0.00    +0.000 C 
ATOM     12  N   UNL     1       1.184  -0.975   0.000  0.00  0.00    +0.000 NA
BRANCH  11  13
ATOM     13  C   UNL     1       1.899   0.263   0.000  0.00  0.00    +0.000 C 
ATOM     14  O   UNL     1       1.899   1.088   0.000  0.00  0.00    +0.000 OA
ATOM     15  N   UNL     1       2.613  -0.150   0.000  0.00  0.00    +0.000 NA
ENDBRANCH  11  13
ENDBRANCH  10  11
ENDBRANCH   1  10
TORSDOF 3
