REMARK  Name = 
REMARK  5 active torsions:
REMARK  status: ('A' for Active; 'I' for Inactive)
REMARK    1  A    between atoms: C_2  and  N_25
REMARK    2  A    between atoms: C_3  and  N_12
REMARK    3  A    between atoms: C_6  and  C_7
REMARK    4  A    between atoms: C_13  and  C_14
REMARK    5  A    between atoms: C_26  and  C_27
REMARK                            x       y       z     vdW  Elec       q    Type
REMARK                         _______ _______ _______ _____ _____    ______ ____
ROOT
ATOM      1  C   UNL     1      20.029 -25.337   0.000  0.00  0.00    +0.000 C 
ATOM      2  C   UNL     1      20.029 -26.162   0.000  0.00  0.00    +0.000 C 
ATOM      3  C   UNL     1      20.772 -26.574   0.000  0.00  0.00    +0.000 C 
ATOM      4  C   UNL     1      21.473 -26.162   0.000  0.00  0.00    +0.000 C 
ATOM      5  C   UNL     1      21.473 -25.337   0.000  0.00  0.00    +0.000 C 
ATOM      6  C   UNL     1      20.772 -24.924   0.000  0.00  0.00    +0.000 C 
ENDROOT
BRANCH   6   7
ATOM      7  C   UNL     1      20.772 -24.099   0.000  0.00  0.00    +0.000 C 
ATOM      8  O   UNL     1      20.029 -23.687   0.000  0.00  0.00    +0.000 OA
ATOM      9  N   UNL     1      21.473 -23.687   0.000  0.00  0.00    +0.000 N 
ATOM     10  C   UNL     1      22.174 -24.099   0.000  0.00  0.00    +0.000 C 
ATOM     11  C   UNL     1      21.473 -22.862   0.000  0.00  0.00    +0.000 C 
ENDBRANCH   6   7
BRANCH   3  12
ATOM     12  N   UNL     1      20.772 -27.441   0.000  0.00  0.00    +0.000 NA
ATOM     13  C   UNL     1      21.473 -27.812   0.000  0.00  0.00    +0.000 C 
ATOM     14  O   UNL     1      21.473 -28.678   0.000  0.00  0.00    +0.000 OA
BRANCH  13  15
ATOM     15  C   UNL     1      22.174 -27.441   0.000  0.00  0.00    +0.000 C 
ATOM     16  N   UNL     1      22.876 -27.812   0.000  0.00  0.00    +0.000 NA
ATOM     17  O   UNL     1      22.174 -26.574   0.000  0.00  0.00    +0.000 OA
ATOM     18  C   UNL     1      23.577 -27.441   0.000  0.00  0.00    +0.000 A 
ATOM     19  N   UNL     1      24.278 -27.812   0.000  0.00  0.00    +0.000 NA
ATOM     20  C   UNL     1      24.979 -27.399   0.000  0.00  0.00    +0.000 A 
ATOM     21  C   UNL     1      24.979 -26.574   0.000  0.00  0.00    +0.000 A 
ATOM     22  C   UNL     1      24.278 -26.162   0.000  0.00  0.00    +0.000 A 
ATOM     23  C   UNL     1      23.577 -26.616   0.000  0.00  0.00    +0.000 A 
ATOM     24 CL   UNL     1      25.722 -26.162   0.000  0.00  0.00    +0.000 Cl
ENDBRANCH  13  15
ENDBRANCH   3  12
BRANCH   2  25
ATOM     25  N   UNL     1      19.328 -26.574   0.000  0.00  0.00    +0.000 NA
ATOM     26  C   UNL     1      18.627 -26.203   0.000  0.00  0.00    +0.000 C 
ATOM     27  O   UNL     1      18.627 -25.337   0.000  0.00  0.00    +0.000 OA
BRANCH  26  28
ATOM     28  C   UNL     1      17.926 -26.574   0.000  0.00  0.00    +0.000 A 
ATOM     29  N   UNL     1      17.183 -26.244   0.000  0.00  0.00    +0.000 NA
ATOM     30  C   UNL     1      16.606 -26.863   0.000  0.00  0.00    +0.000 A 
ATOM     31  C   UNL     1      17.018 -27.564   0.000  0.00  0.00    +0.000 A 
ATOM     32  S   UNL     1      17.843 -27.399   0.000  0.00  0.00    +0.000 S 
ATOM     33  C   UNL     1      15.781 -26.863   0.000  0.00  0.00    +0.000 C 
ATOM     34  C   UNL     1      15.368 -27.564   0.000  0.00  0.00    +0.000 C 
ATOM     35  N   UNL     1      15.781 -28.266   0.000  0.00  0.00    +0.000 NA
ATOM     36  C   UNL     1      16.606 -28.266   0.000  0.00  0.00    +0.000 C 
ATOM     37  C   UNL     1      15.368 -29.008   0.000  0.00  0.00    +0.000 C 
ENDBRANCH  26  28
ENDBRANCH   2  25
TORSDOF 5
