REMARK  Name = 
REMARK  8 active torsions:
REMARK  status: ('A' for Active; 'I' for Inactive)
REMARK    1  A    between atoms: C_4  and  C_40
REMARK    2  A    between atoms: C_19  and  C_20
REMARK    3  A    between atoms: C_26  and  C_27
REMARK    4  A    between atoms: C_27  and  C_28
REMARK    5  A    between atoms: C_28  and  C_29
REMARK    6  A    between atoms: C_32  and  C_33
REMARK    7  A    between atoms: C_33  and  C_34
REMARK    8  A    between atoms: C_34  and  C_35
REMARK                            x       y       z     vdW  Elec       q    Type
REMARK                         _______ _______ _______ _____ _____    ______ ____
ROOT
ATOM      1  N   UNL     1      -0.358  -0.495   0.000  0.00  0.00    +0.000 NA
ATOM      2  C   UNL     1      -1.185  -0.495   0.000  0.00  0.00    +0.000 C 
ATOM      3  C   UNL     1      -1.401  -1.294   0.000  0.00  0.00    +0.000 C 
ATOM      4  C   UNL     1      -0.819  -1.881   0.000  0.00  0.00    +0.000 C 
ATOM      5  C   UNL     1      -0.358  -1.324   0.000  0.00  0.00    +0.000 C 
ATOM      6  C   UNL     1       0.357  -1.738   0.000  0.00  0.00    +0.000 C 
ATOM      7  C   UNL     1       1.079  -1.323   0.000  0.00  0.00    +0.000 A 
ATOM      8  N   UNL     1       1.079  -0.496   0.000  0.00  0.00    +0.000 NA
ATOM      9  C   UNL     1       1.911  -0.496   0.000  0.00  0.00    +0.000 A 
ATOM     10  C   UNL     1       2.325   0.224   0.000  0.00  0.00    +0.000 C 
ATOM     11  C   UNL     1       1.903   0.934   0.000  0.00  0.00    +0.000 C 
ATOM     12  N   UNL     1       1.076   0.934   0.000  0.00  0.00    +0.000 NA
ATOM     13  C   UNL     1       1.076   1.763   0.000  0.00  0.00    +0.000 C 
ATOM     14  C   UNL     1       0.355   2.173   0.000  0.00  0.00    +0.000 C 
ATOM     15  C   UNL     1      -0.357   1.759   0.000  0.00  0.00    +0.000 A 
ATOM     16  N   UNL     1      -0.357   0.930   0.000  0.00  0.00    +0.000 NA
ATOM     17  C   UNL     1      -1.190   0.930   0.000  0.00  0.00    +0.000 A 
ATOM     18  C   UNL     1      -1.596   0.216   0.000  0.00  0.00    +0.000 C 
ATOM     19  C   UNL     1      -1.406   1.732   0.000  0.00  0.00    +0.000 A 
ATOM     20  C   UNL     1      -0.824   2.318   0.000  0.00  0.00    +0.000 A 
ATOM     21  C   UNL     1      -0.824   3.144   0.000  0.00  0.00    +0.000 C 
ATOM     22  C   UNL     1       1.525   2.318   0.000  0.00  0.00    +0.000 C 
ATOM     23  C   UNL     1       1.525   3.140   0.000  0.00  0.00    +0.000 C 
ATOM     24  C   UNL     1       2.111   1.736   0.000  0.00  0.00    +0.000 C 
ATOM     25  C   UNL     1       2.120  -1.290   0.000  0.00  0.00    +0.000 A 
ATOM     26  C   UNL     1       1.534  -1.871   0.000  0.00  0.00    +0.000 A 
ATOM     27  C   UNL     1       1.534  -2.694   0.000  0.00  0.00    +0.000 C 
ATOM     28  C   UNL     1      -2.201  -1.494   0.000  0.00  0.00    +0.000 C 
ENDROOT
BRANCH   4  29
ATOM     29  C   UNL     1      -0.819  -2.703   0.000  0.00  0.00    +0.000 C 
ATOM     30  C   UNL     1      -1.488  -3.144   0.000  0.00  0.00    +0.000 C 
ENDBRANCH   4  29
BRANCH  19  31
ATOM     31  C   UNL     1      -2.228   1.732   0.000  0.00  0.00    +0.000 C 
ATOM     32  C   UNL     1      -2.642   1.018   0.000  0.00  0.00    +0.000 C 
ENDBRANCH  19  31
BRANCH  24  33
ATOM     33  C   UNL     1       2.825   2.150   0.000  0.00  0.00    +0.000 C 
BRANCH  33  34
ATOM     34  C   UNL     1       3.538   1.736   0.000  0.00  0.00    +0.000 C 
BRANCH  34  35
ATOM     35  C   UNL     1       4.256   2.150   0.000  0.00  0.00    +0.000 C 
ATOM     36  O   UNL     1       4.256   2.977   0.000  0.00  0.00    +0.000 OA
ATOM     37  O   UNL     1       4.972   1.737   0.000  0.00  0.00    +0.000 OA
ENDBRANCH  34  35
ENDBRANCH  33  34
ENDBRANCH  24  33
BRANCH  25  38
ATOM     38  C   UNL     1       2.834  -0.877   0.000  0.00  0.00    +0.000 C 
BRANCH  38  39
ATOM     39  C   UNL     1       3.547  -1.285   0.000  0.00  0.00    +0.000 C 
BRANCH  39  40
ATOM     40  C   UNL     1       4.265  -0.872   0.000  0.00  0.00    +0.000 C 
ATOM     41  O   UNL     1       4.978  -1.285   0.000  0.00  0.00    +0.000 OA
ATOM     42  O   UNL     1       4.265  -0.045   0.000  0.00  0.00    +0.000 OA
ENDBRANCH  39  40
ENDBRANCH  38  39
ENDBRANCH  25  38
TORSDOF 8
REMARK  Name = 
REMARK  8 active torsions:
REMARK  status: ('A' for Active; 'I' for Inactive)
REMARK    1  A    between atoms: C_4  and  C_40
REMARK    2  A    between atoms: C_19  and  C_20
REMARK    3  A    between atoms: C_26  and  C_27
REMARK    4  A    between atoms: C_27  and  C_28
REMARK    5  A    between atoms: C_28  and  C_29
REMARK    6  A    between atoms: C_32  and  C_33
REMARK    7  A    between atoms: C_33  and  C_34
REMARK    8  A    between atoms: C_34  and  C_35
REMARK                            x       y       z     vdW  Elec       q    Type
REMARK                         _______ _______ _______ _____ _____    ______ ____
ROOT
ATOM      1 SN   UNL     1       0.168   0.076   0.000  0.00  0.00    +0.000 Sn
ENDROOT
TORSDOF 0
REMARK  Name = 
REMARK  8 active torsions:
REMARK  status: ('A' for Active; 'I' for Inactive)
REMARK    1  A    between atoms: C_4  and  C_40
REMARK    2  A    between atoms: C_19  and  C_20
REMARK    3  A    between atoms: C_26  and  C_27
REMARK    4  A    between atoms: C_27  and  C_28
REMARK    5  A    between atoms: C_28  and  C_29
REMARK    6  A    between atoms: C_32  and  C_33
REMARK    7  A    between atoms: C_33  and  C_34
REMARK    8  A    between atoms: C_34  and  C_35
REMARK                            x       y       z     vdW  Elec       q    Type
REMARK                         _______ _______ _______ _____ _____    ______ ____
ROOT
ATOM      1 CL   UNL     1      -4.978  -0.639   0.000  0.00  0.00    +0.000 Cl
ENDROOT
TORSDOF 0
REMARK  Name = 
REMARK  8 active torsions:
REMARK  status: ('A' for Active; 'I' for Inactive)
REMARK    1  A    between atoms: C_4  and  C_40
REMARK    2  A    between atoms: C_19  and  C_20
REMARK    3  A    between atoms: C_26  and  C_27
REMARK    4  A    between atoms: C_27  and  C_28
REMARK    5  A    between atoms: C_28  and  C_29
REMARK    6  A    between atoms: C_32  and  C_33
REMARK    7  A    between atoms: C_33  and  C_34
REMARK    8  A    between atoms: C_34  and  C_35
REMARK                            x       y       z     vdW  Elec       q    Type
REMARK                         _______ _______ _______ _____ _____    ______ ____
ROOT
ATOM      1 CL   UNL     1      -4.978  -0.639   0.000  0.00  0.00    +0.000 Cl
ENDROOT
TORSDOF 0
