REMARK  Name = 
REMARK  19 active torsions:
REMARK  status: ('A' for Active; 'I' for Inactive)
REMARK    1  A    between atoms: CO_1  and  C_89
REMARK    2  A    between atoms: C_6  and  C_84
REMARK    3  A    between atoms: C_14  and  C_15
REMARK    4  A    between atoms: C_15  and  C_16
REMARK    5  A    between atoms: C_16  and  C_17
REMARK    6  A    between atoms: C_31  and  C_32
REMARK    7  A    between atoms: C_32  and  C_33
REMARK    8  A    between atoms: C_33  and  C_34
REMARK    9  A    between atoms: C_37  and  C_38
REMARK   10  A    between atoms: C_37  and  C_41
REMARK   11  A    between atoms: C_42  and  C_43
REMARK   12  A    between atoms: C_42  and  C_80
REMARK   13  A    between atoms: C_46  and  C_47
REMARK   14  A    between atoms: C_47  and  C_48
REMARK   15  A    between atoms: C_58  and  C_59
REMARK   16  A    between atoms: C_84  and  C_85
REMARK   17  A    between atoms: C_85  and  C_86
REMARK   18  A    between atoms: C_89  and  C_102
REMARK   19  A    between atoms: N_99  and  C_100
REMARK                            x       y       z     vdW  Elec       q    Type
REMARK                         _______ _______ _______ _____ _____    ______ ____
ROOT
ATOM      1 CO   UNL     1      -0.322  -0.053   0.000  0.00  0.00    +0.000 Co
ATOM      2  C   UNL     1      -1.029  -1.755   0.000  0.00  0.00    +0.000 C 
ATOM      3  N   UNL     1      -1.141  -0.951   0.000  0.00  0.00    +0.000 N 
ATOM      4  N   UNL     1      -1.141   0.747   0.000  0.00  0.00    +0.000 N 
ATOM      5  C   UNL     1      -1.029   1.550   0.000  0.00  0.00    +0.000 C 
ATOM      6  C   UNL     1      -1.742   1.927   0.000  0.00  0.00    +0.000 C 
ATOM      7  C   UNL     1       0.412   1.550   0.000  0.00  0.00    +0.000 C 
ATOM      8  N   UNL     1       0.536   0.747   0.000  0.00  0.00    +0.000 N 
ATOM      9  C   UNL     1       1.361   0.598   0.000  0.00  0.00    +0.000 C 
ATOM     10  C   UNL     1       1.775  -0.102   0.000  0.00  0.00    +0.000 C 
ATOM     11  C   UNL     1       1.361  -0.806   0.000  0.00  0.00    +0.000 C 
ATOM     12  N   UNL     1       0.536  -0.951   0.000  0.00  0.00    +0.000 N 
ATOM     13  C   UNL     1       0.412  -1.755   0.000  0.00  0.00    +0.000 C 
ATOM     14  C   UNL     1       1.149  -2.136   0.000  0.00  0.00    +0.000 C 
ATOM     15  C   UNL     1       1.742  -1.556   0.000  0.00  0.00    +0.000 C 
ATOM     16  C   UNL     1       2.380  -2.079   0.000  0.00  0.00    +0.000 C 
ATOM     17  C   UNL     1       2.513  -1.265   0.000  0.00  0.00    +0.000 C 
ATOM     18  C   UNL     1       1.900   2.269   0.000  0.00  0.00    +0.000 C 
ATOM     19  C   UNL     1      -0.292   1.960   0.000  0.00  0.00    +0.000 C 
ATOM     20  C   UNL     1      -0.292   2.785   0.000  0.00  0.00    +0.000 C 
ATOM     21  C   UNL     1      -0.292  -2.169   0.000  0.00  0.00    +0.000 C 
ATOM     22  C   UNL     1      -0.292  -2.994   0.000  0.00  0.00    +0.000 C 
ATOM     23  C   UNL     1      -1.953  -0.806   0.000  0.00  0.00    +0.000 C 
ATOM     24  C   UNL     1      -1.953   0.622   0.000  0.00  0.00    +0.000 C 
ATOM     25  C   UNL     1      -2.750   0.409   0.000  0.00  0.00    +0.000 C 
ATOM     26  C   UNL     1      -1.742  -2.961   0.000  0.00  0.00    +0.000 C 
ATOM     27  C   UNL     1       1.742   1.347   0.000  0.00  0.00    +0.000 C 
ATOM     28  C   UNL     1       1.149   1.927   0.000  0.00  0.00    +0.000 C 
ATOM     29  C   UNL     1      -2.334  -1.556   0.000  0.00  0.00    +0.000 C 
ATOM     30  C   UNL     1       1.682  -6.534   0.000  0.00  0.00    +0.000 A 
ATOM     31  C   UNL     1       0.602  -5.749   0.000  0.00  0.00    +0.000 A 
ATOM     32  C   UNL     1       1.014  -7.019   0.000  0.00  0.00    +0.000 A 
ATOM     33  N   UNL     1       1.427  -5.749   0.000  0.00  0.00    +0.000 N 
ATOM     34  N   UNL     1       0.347  -6.534   0.000  0.00  0.00    +0.000 N 
ATOM     35  C   UNL     1      -0.438  -6.789   0.000  0.00  0.00    +0.000 C 
ATOM     36  O   UNL     1      -0.693  -7.573   0.000  0.00  0.00    +0.000 OA
ATOM     37  C   UNL     1      -1.518  -7.573   0.000  0.00  0.00    +0.000 C 
ATOM     38  C   UNL     1      -1.105  -6.304   0.000  0.00  0.00    +0.000 C 
ATOM     39  O   UNL     1      -1.105  -5.479   0.000  0.00  0.00    +0.000 OA
ATOM     40  C   UNL     1      -1.773  -6.789   0.000  0.00  0.00    +0.000 C 
ATOM     41  O   UNL     1      -2.557  -6.534   0.000  0.00  0.00    +0.000 OA
ATOM     42  C   UNL     1      -2.456  -3.373   0.000  0.00  0.00    +0.000 C 
ATOM     43  C   UNL     1      -3.170  -3.786   0.000  0.00  0.00    +0.000 C 
ATOM     44  O   UNL     1      -3.885  -3.373   0.000  0.00  0.00    +0.000 OA
ATOM     45  N   UNL     1      -3.170  -4.611   0.000  0.00  0.00    +0.000 NA
ATOM     46  C   UNL     1      -3.885  -5.023   0.000  0.00  0.00    +0.000 C 
ATOM     47  C   UNL     1      -2.456  -2.548   0.000  0.00  0.00    +0.000 C 
ATOM     48  C   UNL     1      -1.742  -2.136   0.000  0.00  0.00    +0.000 C 
ATOM     49  C   UNL     1      -3.885  -5.848   0.000  0.00  0.00    +0.000 C 
ATOM     50  O   UNL     1      -3.171  -6.261   0.000  0.00  0.00    +0.000 OA
ATOM     51  C   UNL     1      -4.599  -6.261   0.000  0.00  0.00    +0.000 C 
ATOM     52  O   UNL     1      -3.995  -7.086   0.000  0.00  0.00    +0.000 OA
ATOM     53  P   UNL     1      -3.171  -7.086   0.000  0.00  0.00    +0.000 P 
ATOM     54  O   UNL     1      -2.758  -7.800   0.000  0.00  0.00    +0.000 OA
ATOM     55  C   UNL     1      -2.334   1.347   0.000  0.00  0.00    +0.000 C 
ATOM     56  C   UNL     1      -2.547   2.144   0.000  0.00  0.00    +0.000 C 
ATOM     57  C   UNL     1       1.100  -7.839   0.000  0.00  0.00    +0.000 A 
ATOM     58  C   UNL     1       2.521  -7.690   0.000  0.00  0.00    +0.000 A 
ATOM     59  C   UNL     1       1.854  -8.175   0.000  0.00  0.00    +0.000 A 
ATOM     60  C   UNL     1       2.435  -6.869   0.000  0.00  0.00    +0.000 A 
ATOM     61  C   UNL     1       1.940  -8.995   0.000  0.00  0.00    +0.000 C 
ATOM     62  C   UNL     1       3.275  -8.025   0.000  0.00  0.00    +0.000 C 
ENDROOT
BRANCH  37  63
ATOM     63  C   UNL     1      -2.003  -8.241   0.000  0.00  0.00    +0.000 C 
ATOM     64  O   UNL     1      -1.667  -8.995   0.000  0.00  0.00    +0.000 OA
ENDBRANCH  37  63
BRANCH  28  65
ATOM     65  C   UNL     1       1.149   2.752   0.000  0.00  0.00    +0.000 C 
BRANCH  65  66
ATOM     66  C   UNL     1       1.864   3.164   0.000  0.00  0.00    +0.000 C 
ATOM     67  O   UNL     1       1.864   3.990   0.000  0.00  0.00    +0.000 OA
ATOM     68  N   UNL     1       2.578   2.752   0.000  0.00  0.00    +0.000 NA
ENDBRANCH  65  66
ENDBRANCH  28  65
BRANCH  55  69
ATOM     69  C   UNL     1      -3.048   0.935   0.000  0.00  0.00    +0.000 C 
BRANCH  69  70
ATOM     70  C   UNL     1      -3.763   1.347   0.000  0.00  0.00    +0.000 C 
ATOM     71  O   UNL     1      -3.763   2.172   0.000  0.00  0.00    +0.000 OA
ATOM     72  N   UNL     1      -4.477   0.935   0.000  0.00  0.00    +0.000 NA
ENDBRANCH  69  70
ENDBRANCH  55  69
BRANCH   6  73
ATOM     73  C   UNL     1      -1.860   2.743   0.000  0.00  0.00    +0.000 C 
BRANCH  73  74
ATOM     74  C   UNL     1      -2.626   3.049   0.000  0.00  0.00    +0.000 C 
BRANCH  74  75
ATOM     75  C   UNL     1      -2.745   3.866   0.000  0.00  0.00    +0.000 C 
ATOM     76  O   UNL     1      -3.511   4.171   0.000  0.00  0.00    +0.000 OA
ATOM     77  N   UNL     1      -2.097   4.377   0.000  0.00  0.00    +0.000 NA
ENDBRANCH  74  75
ENDBRANCH  73  74
ENDBRANCH   6  73
BRANCH  27  78
ATOM     78  C   UNL     1       2.456   1.760   0.000  0.00  0.00    +0.000 C 
BRANCH  78  79
ATOM     79  C   UNL     1       3.170   1.347   0.000  0.00  0.00    +0.000 C 
BRANCH  79  80
ATOM     80  C   UNL     1       3.885   1.760   0.000  0.00  0.00    +0.000 C 
ATOM     81  O   UNL     1       3.885   2.585   0.000  0.00  0.00    +0.000 OA
ATOM     82  N   UNL     1       4.599   1.347   0.000  0.00  0.00    +0.000 NA
ENDBRANCH  79  80
ENDBRANCH  78  79
ENDBRANCH  27  78
BRANCH   1  83
ATOM     83  C   UNL     1      -1.263   3.724   0.000  0.00  0.00    +0.000 C 
BRANCH  83  86
ATOM     84  C   UNL     1       0.018   5.432   0.000  0.00  0.00    +0.000 C 
ATOM     85  O   UNL     1      -0.736   5.096   0.000  0.00  0.00    +0.000 OA
ATOM     86  C   UNL     1      -0.650   4.276   0.000  0.00  0.00    +0.000 C 
ATOM     87  C   UNL     1       0.157   4.104   0.000  0.00  0.00    +0.000 C 
ATOM     88  O   UNL     1       0.493   3.350   0.000  0.00  0.00    +0.000 OA
ATOM     89  C   UNL     1       0.570   4.819   0.000  0.00  0.00    +0.000 C 
ATOM     90  O   UNL     1       1.390   4.905   0.000  0.00  0.00    +0.000 OA
BRANCH  84 100
ATOM     91  N   UNL     1       0.050   8.995   0.000  0.00  0.00    +0.000 NA
ATOM     92  C   UNL     1      -0.363   8.281   0.000  0.00  0.00    +0.000 A 
ATOM     93  N   UNL     1      -1.188   8.281   0.000  0.00  0.00    +0.000 NA
ATOM     94  C   UNL     1      -1.600   7.566   0.000  0.00  0.00    +0.000 A 
ATOM     95  N   UNL     1      -1.188   6.852   0.000  0.00  0.00    +0.000 NA
ATOM     96  C   UNL     1      -0.363   6.852   0.000  0.00  0.00    +0.000 A 
ATOM     97  C   UNL     1       0.050   7.566   0.000  0.00  0.00    +0.000 A 
ATOM     98  N   UNL     1       0.856   7.395   0.000  0.00  0.00    +0.000 NA
ATOM     99  C   UNL     1       0.943   6.574   0.000  0.00  0.00    +0.000 A 
ATOM    100  N   UNL     1       0.189   6.239   0.000  0.00  0.00    +0.000 N 
ENDBRANCH  84 100
ENDBRANCH  83  86
ENDBRANCH   1  83
BRANCH  14 101
ATOM    101  C   UNL     1       1.272  -2.952   0.000  0.00  0.00    +0.000 C 
BRANCH 101 102
ATOM    102  C   UNL     1       2.039  -3.254   0.000  0.00  0.00    +0.000 C 
BRANCH 102 103
ATOM    103  C   UNL     1       2.162  -4.069   0.000  0.00  0.00    +0.000 C 
ATOM    104  O   UNL     1       1.516  -4.583   0.000  0.00  0.00    +0.000 OA
ATOM    105  N   UNL     1       2.929  -4.372   0.000  0.00  0.00    +0.000 NA
ENDBRANCH 102 103
ENDBRANCH 101 102
ENDBRANCH  14 101
BRANCH  29 106
ATOM    106  C   UNL     1      -3.048  -1.968   0.000  0.00  0.00    +0.000 C 
BRANCH 106 107
ATOM    107  C   UNL     1      -3.763  -1.556   0.000  0.00  0.00    +0.000 C 
ATOM    108  O   UNL     1      -3.763  -0.731   0.000  0.00  0.00    +0.000 OA
ATOM    109  N   UNL     1      -4.477  -1.968   0.000  0.00  0.00    +0.000 NA
ENDBRANCH 106 107
ENDBRANCH  29 106
TORSDOF 19
