REMARK  Name = 
REMARK  4 active torsions:
REMARK  status: ('A' for Active; 'I' for Inactive)
REMARK    1  A    between atoms: N_2  and  C_4
REMARK    2  A    between atoms: C_7  and  C_10
REMARK    3  A    between atoms: C_12  and  C_21
REMARK    4  A    between atoms: C_13  and  C_15
REMARK                            x       y       z     vdW  Elec       q    Type
REMARK                         _______ _______ _______ _____ _____    ______ ____
ROOT
ATOM      1  C   UNL     1       0.715  -1.238   0.000  0.00  0.00    +0.000 A 
ATOM      2  N   UNL     1       1.382  -1.722   0.000  0.00  0.00    +0.000 NA
ATOM      3  C   UNL     1       1.127  -2.507   0.000  0.00  0.00    +0.000 A 
ATOM      4  C   UNL     1       0.302  -2.507   0.000  0.00  0.00    +0.000 A 
ATOM      5  N   UNL     1       0.047  -1.722   0.000  0.00  0.00    +0.000 NA
ENDROOT
BRANCH   3   6
ATOM      6  C   UNL     1       1.612  -3.175   0.000  0.00  0.00    +0.000 A 
ATOM      7  C   UNL     1       2.432  -3.088   0.000  0.00  0.00    +0.000 A 
ATOM      8  C   UNL     1       2.917  -3.756   0.000  0.00  0.00    +0.000 A 
ATOM      9  C   UNL     1       2.582  -4.509   0.000  0.00  0.00    +0.000 A 
ATOM     10  F   UNL     1       3.067  -5.177   0.000  0.00  0.00    +0.000 F 
ATOM     11  C   UNL     1       1.761  -4.596   0.000  0.00  0.00    +0.000 A 
ATOM     12  C   UNL     1       1.276  -3.928   0.000  0.00  0.00    +0.000 A 
ENDBRANCH   3   6
BRANCH   1  16
ATOM     13  C   UNL     1       0.715   1.238   0.000  0.00  0.00    +0.000 A 
ATOM     14  C   UNL     1       1.429   0.825   0.000  0.00  0.00    +0.000 A 
ATOM     15  C   UNL     1       1.429   0.000   0.000  0.00  0.00    +0.000 A 
ATOM     16  C   UNL     1       0.715  -0.412   0.000  0.00  0.00    +0.000 A 
ATOM     17  C   UNL     1       0.000   0.000   0.000  0.00  0.00    +0.000 A 
ATOM     18  C   UNL     1       0.000   0.825   0.000  0.00  0.00    +0.000 A 
BRANCH  13  20
ATOM     19  O   UNL     1       0.000   2.475   0.000  0.00  0.00    +0.000 OA
ATOM     20  N   UNL     1       0.715   2.062   0.000  0.00  0.00    +0.000 N 
ATOM     21  O   UNL     1       1.429   2.475   0.000  0.00  0.00    +0.000 OA
ENDBRANCH  13  20
ENDBRANCH   1  16
BRANCH   4  22
ATOM     22  C   UNL     1      -0.183  -3.175   0.000  0.00  0.00    +0.000 A 
ATOM     23  C   UNL     1       0.153  -3.928   0.000  0.00  0.00    +0.000 A 
ATOM     24  C   UNL     1      -0.332  -4.596   0.000  0.00  0.00    +0.000 A 
ATOM     25  N   UNL     1      -1.153  -4.509   0.000  0.00  0.00    +0.000 NA
ATOM     26  C   UNL     1      -1.488  -3.756   0.000  0.00  0.00    +0.000 A 
ATOM     27  C   UNL     1      -1.003  -3.088   0.000  0.00  0.00    +0.000 A 
ENDBRANCH   4  22
TORSDOF 4
