REMARK  Name = 
REMARK  7 active torsions:
REMARK  status: ('A' for Active; 'I' for Inactive)
REMARK    1  A    between atoms: C_7  and  O_15
REMARK    2  A    between atoms: O_15  and  C_16
REMARK    3  A    between atoms: C_25  and  N_28
REMARK    4  A    between atoms: C_36  and  C_38
REMARK    5  A    between atoms: N_40  and  S_41
REMARK    6  A    between atoms: S_41  and  C_42
REMARK    7  A    between atoms: C_49  and  C_50
REMARK                            x       y       z     vdW  Elec       q    Type
REMARK                         _______ _______ _______ _____ _____    ______ ____
ROOT
ATOM      1  C   UNL     1       0.315   1.648   0.000  0.00  0.00    +0.000 C 
ATOM      2  C   UNL     1      -0.479   1.870   0.000  0.00  0.00    +0.000 C 
ATOM      3  C   UNL     1      -0.936   1.183   0.000  0.00  0.00    +0.000 C 
ATOM      4  N   UNL     1      -0.424   0.536   0.000  0.00  0.00    +0.000 N 
ATOM      5  C   UNL     1       0.349   0.824   0.000  0.00  0.00    +0.000 C 
ATOM      6  C   UNL     1      -1.667   1.566   0.000  0.00  0.00    +0.000 C 
ATOM      7  N   UNL     1      -2.490   1.618   0.000  0.00  0.00    +0.000 NA
ATOM      8  O   UNL     1      -1.445   2.360   0.000  0.00  0.00    +0.000 OA
ATOM      9  C   UNL     1      -0.219  -0.263   0.000  0.00  0.00    +0.000 C 
ATOM     10  C   UNL     1      -0.357  -1.076   0.000  0.00  0.00    +0.000 C 
ATOM     11  O   UNL     1       0.605  -0.229   0.000  0.00  0.00    +0.000 OA
ATOM     12  C   UNL     1      -0.814  -1.763   0.000  0.00  0.00    +0.000 C 
ATOM     13  C   UNL     1      -1.510  -2.205   0.000  0.00  0.00    +0.000 C 
ATOM     14  C   UNL     1      -2.327  -2.325   0.000  0.00  0.00    +0.000 C 
ATOM     15  C   UNL     1      -3.121  -2.103   0.000  0.00  0.00    +0.000 C 
ATOM     16  C   UNL     1      -3.757  -1.577   0.000  0.00  0.00    +0.000 C 
ATOM     17  C   UNL     1      -4.123  -0.838   0.000  0.00  0.00    +0.000 C 
ATOM     18  C   UNL     1      -4.157  -0.013   0.000  0.00  0.00    +0.000 C 
ATOM     19  C   UNL     1      -3.853   0.753   0.000  0.00  0.00    +0.000 C 
ATOM     20  C   UNL     1      -3.264   1.330   0.000  0.00  0.00    +0.000 C 
ATOM     21  C   UNL     1      -4.058   1.553   0.000  0.00  0.00    +0.000 C 
ENDROOT
BRANCH  10  22
ATOM     22  N   UNL     1       0.410  -1.380   0.000  0.00  0.00    +0.000 NA
ATOM     23  C   UNL     1       0.530  -2.196   0.000  0.00  0.00    +0.000 C 
ATOM     24  O   UNL     1       1.297  -2.500   0.000  0.00  0.00    +0.000 OA
BRANCH  23  25
ATOM     25  C   UNL     1      -0.116  -2.709   0.000  0.00  0.00    +0.000 A 
ATOM     26  N   UNL     1       0.004  -3.525   0.000  0.00  0.00    +0.000 NA
ATOM     27  C   UNL     1      -0.643  -4.037   0.000  0.00  0.00    +0.000 A 
ATOM     28  C   UNL     1      -1.410  -3.733   0.000  0.00  0.00    +0.000 A 
ATOM     29  N   UNL     1      -1.530  -2.917   0.000  0.00  0.00    +0.000 NA
ATOM     30  C   UNL     1      -0.883  -2.405   0.000  0.00  0.00    +0.000 A 
ATOM     31  C   UNL     1      -2.057  -4.245   0.000  0.00  0.00    +0.000 C 
ENDBRANCH  23  25
ENDBRANCH  10  22
BRANCH  20  32
ATOM     32  C   UNL     1      -3.298   2.155   0.000  0.00  0.00    +0.000 C 
ATOM     33  O   UNL     1      -4.029   2.537   0.000  0.00  0.00    +0.000 OA
ATOM     34  N   UNL     1      -2.601   2.596   0.000  0.00  0.00    +0.000 NA
BRANCH  34  35
ATOM     35  S   UNL     1      -2.635   3.421   0.000  0.00  0.00    +0.000 S 
ATOM     36  O   UNL     1      -2.670   4.245   0.000  0.00  0.00    +0.000 OA
ATOM     37  O   UNL     1      -1.811   3.455   0.000  0.00  0.00    +0.000 OA
BRANCH  35  38
ATOM     38  C   UNL     1      -3.460   3.387   0.000  0.00  0.00    +0.000 C 
ATOM     39  C   UNL     1      -4.156   2.945   0.000  0.00  0.00    +0.000 C 
ATOM     40  C   UNL     1      -4.191   3.769   0.000  0.00  0.00    +0.000 C 
ENDBRANCH  35  38
ENDBRANCH  34  35
ENDBRANCH  20  32
BRANCH   1  41
ATOM     41  O   UNL     1       0.962   2.160   0.000  0.00  0.00    +0.000 OA
BRANCH  41  48
ATOM     42  C   UNL     1       2.736  -0.080   0.000  0.00  0.00    +0.000 A 
ATOM     43  C   UNL     1       2.090  -0.593   0.000  0.00  0.00    +0.000 A 
ATOM     44  C   UNL     1       1.323  -0.288   0.000  0.00  0.00    +0.000 A 
ATOM     45  C   UNL     1       1.202   0.528   0.000  0.00  0.00    +0.000 A 
ATOM     46  C   UNL     1       1.849   1.040   0.000  0.00  0.00    +0.000 A 
ATOM     47  C   UNL     1       2.616   0.736   0.000  0.00  0.00    +0.000 A 
ATOM     48  C   UNL     1       1.729   1.856   0.000  0.00  0.00    +0.000 A 
ATOM     49  N   UNL     1       2.376   2.368   0.000  0.00  0.00    +0.000 NA
ATOM     50  C   UNL     1       3.143   2.064   0.000  0.00  0.00    +0.000 A 
ATOM     51  C   UNL     1       3.263   1.248   0.000  0.00  0.00    +0.000 A 
ATOM     52  C   UNL     1       4.030   0.944   0.000  0.00  0.00    +0.000 A 
ATOM     53  C   UNL     1       4.677   1.456   0.000  0.00  0.00    +0.000 A 
ATOM     54  C   UNL     1       4.556   2.272   0.000  0.00  0.00    +0.000 A 
ATOM     55  C   UNL     1       3.789   2.576   0.000  0.00  0.00    +0.000 A 
ENDBRANCH  41  48
ENDBRANCH   1  41
TORSDOF 7
