REMARK  Name = 
REMARK  7 active torsions:
REMARK  status: ('A' for Active; 'I' for Inactive)
REMARK    1  A    between atoms: C_1  and  C_12
REMARK    2  A    between atoms: C_5  and  O_13
REMARK    3  A    between atoms: N_9  and  C_12
REMARK    4  A    between atoms: N_9  and  C_15
REMARK    5  A    between atoms: O_13  and  C_16
REMARK    6  A    between atoms: C_14  and  C_15
REMARK    7  A    between atoms: C_14  and  C_16
REMARK                            x       y       z     vdW  Elec       q    Type
REMARK                         _______ _______ _______ _____ _____    ______ ____
ROOT
ATOM      1  O   UNL     1       0.432   0.618   0.000  0.00  0.00    +0.000 OA
ENDROOT
BRANCH   1   4
ATOM      2  C   UNL     1       1.149   1.856   0.000  0.00  0.00    +0.000 A 
ATOM      3  C   UNL     1       1.149   2.681   0.000  0.00  0.00    +0.000 A 
ATOM      4  C   UNL     1       0.434   1.443   0.000  0.00  0.00    +0.000 A 
ATOM      5  C   UNL     1      -0.280   1.856   0.000  0.00  0.00    +0.000 A 
ATOM      6  C   UNL     1       0.434   3.093   0.000  0.00  0.00    +0.000 A 
ATOM      7 CL   UNL     1       1.720   1.526   0.000  0.00  0.00    +0.000 Cl
ATOM      8  C   UNL     1      -0.280   2.681   0.000  0.00  0.00    +0.000 A 
ATOM      9 CL   UNL     1       0.434   3.753   0.000  0.00  0.00    +0.000 Cl
ENDBRANCH   1   4
BRANCH   1  10
ATOM     10  C   UNL     1      -0.283   0.206   0.000  0.00  0.00    +0.000 C 
BRANCH  10  11
ATOM     11  C   UNL     1      -0.285  -0.619   0.000  0.00  0.00    +0.000 C 
BRANCH  11  12
ATOM     12  C   UNL     1      -1.000  -1.031   0.000  0.00  0.00    +0.000 C 
BRANCH  12  13
ATOM     13  N   UNL     1      -1.002  -1.856   0.000  0.00  0.00    +0.000 NA
ATOM     14  C   UNL     1      -0.431  -2.187   0.000  0.00  0.00    +0.000 C 
BRANCH  13  15
ATOM     15  C   UNL     1      -1.717  -2.268   0.000  0.00  0.00    +0.000 C 
BRANCH  15  16
ATOM     16  C   UNL     1      -1.719  -3.093   0.000  0.00  0.00    +0.000 C 
ATOM     17  C   UNL     1      -1.720  -3.753   0.000  0.00  0.00    +0.000 C 
ENDBRANCH  15  16
ENDBRANCH  13  15
ENDBRANCH  12  13
ENDBRANCH  11  12
ENDBRANCH  10  11
ENDBRANCH   1  10
TORSDOF 7
