REMARK  Name = 
REMARK  0 active torsions:
REMARK  status: ('A' for Active; 'I' for Inactive)
REMARK                            x       y       z     vdW  Elec       q    Type
REMARK                         _______ _______ _______ _____ _____    ______ ____
ROOT
ATOM      1  C   UNL     1      -1.120   0.000   0.000  0.00  0.00    +0.000 C 
ATOM      2  C   UNL     1      -0.707  -0.715   0.000  0.00  0.00    +0.000 C 
ATOM      3  O   UNL     1      -0.707   0.715   0.000  0.00  0.00    +0.000 OA
ATOM      4  O   UNL     1      -1.945   0.000   0.000  0.00  0.00    +0.000 OA
ENDROOT
TORSDOF 0
REMARK  Name = 
REMARK  0 active torsions:
REMARK  status: ('A' for Active; 'I' for Inactive)
REMARK                            x       y       z     vdW  Elec       q    Type
REMARK                         _______ _______ _______ _____ _____    ______ ____
ROOT
ATOM      1  C   UNL     1       2.357   0.000   0.000  0.00  0.00    +0.000 C 
ATOM      2  C   UNL     1       2.770   0.715   0.000  0.00  0.00    +0.000 C 
ATOM      3  O   UNL     1       2.770  -0.715   0.000  0.00  0.00    +0.000 OA
ATOM      4  O   UNL     1       1.532   0.000   0.000  0.00  0.00    +0.000 OA
ENDROOT
TORSDOF 0
REMARK  Name = 
REMARK  0 active torsions:
REMARK  status: ('A' for Active; 'I' for Inactive)
REMARK                            x       y       z     vdW  Elec       q    Type
REMARK                         _______ _______ _______ _____ _____    ______ ____
ROOT
ATOM      1 MG   UNL     1      -2.770   0.000   0.000  0.00  0.00    +0.000 Mg
ENDROOT
TORSDOF 0
