REMARK  Name = 
REMARK  3 active torsions:
REMARK  status: ('A' for Active; 'I' for Inactive)
REMARK    1  A    between atoms: N_6  and  N_7
REMARK    2  A    between atoms: C_8  and  C_10
REMARK    3  A    between atoms: N_12  and  N_13
REMARK                            x       y       z     vdW  Elec       q    Type
REMARK                         _______ _______ _______ _____ _____    ______ ____
ROOT
ATOM      1 CU   UNL     1       5.362   0.715   0.000  0.00  0.00    +0.000 Cu
ENDROOT
TORSDOF 0
REMARK  Name = 
REMARK  3 active torsions:
REMARK  status: ('A' for Active; 'I' for Inactive)
REMARK    1  A    between atoms: N_6  and  N_7
REMARK    2  A    between atoms: C_8  and  C_10
REMARK    3  A    between atoms: N_12  and  N_13
REMARK                            x       y       z     vdW  Elec       q    Type
REMARK                         _______ _______ _______ _____ _____    ______ ____
ROOT
ATOM      1  N   UNL     1       3.300   1.429   0.000  0.00  0.00    +0.000 NA
ATOM      2  C   UNL     1       2.475   1.429   0.000  0.00  0.00    +0.000 C 
ATOM      3  C   UNL     1       2.062   2.143   0.000  0.00  0.00    +0.000 C 
ENDROOT
BRANCH   1   8
ATOM      4  C   UNL     1       4.537   3.572   0.000  0.00  0.00    +0.000 C 
ATOM      5  N   UNL     1       4.950   2.858   0.000  0.00  0.00    +0.000 NA
ATOM      6  C   UNL     1       4.537   2.143   0.000  0.00  0.00    +0.000 C 
ATOM      7  S   UNL     1       4.950   1.429   0.000  0.00  0.00    +0.000 SA
ATOM      8  N   UNL     1       3.712   2.143   0.000  0.00  0.00    +0.000 NA
ENDBRANCH   1   8
BRANCH   2   9
ATOM      9  C   UNL     1       2.062   0.715   0.000  0.00  0.00    +0.000 C 
ATOM     10  C   UNL     1       2.475   0.000   0.000  0.00  0.00    +0.000 C 
ATOM     11  N   UNL     1       1.238   0.715   0.000  0.00  0.00    +0.000 NA
BRANCH  11  12
ATOM     12  N   UNL     1       0.825   0.000   0.000  0.00  0.00    +0.000 NA
ATOM     13  C   UNL     1       0.000   0.000   0.000  0.00  0.00    +0.000 C 
ATOM     14  S   UNL     1      -0.412   0.715   0.000  0.00  0.00    +0.000 SA
ATOM     15  N   UNL     1      -0.412  -0.715   0.000  0.00  0.00    +0.000 NA
ATOM     16  C   UNL     1       0.000  -1.429   0.000  0.00  0.00    +0.000 C 
ENDBRANCH  11  12
ENDBRANCH   2   9
TORSDOF 3
