REMARK  Name = 
REMARK  4 active torsions:
REMARK  status: ('A' for Active; 'I' for Inactive)
REMARK    1  A    between atoms: N_8  and  C_9
REMARK    2  A    between atoms: N_8  and  C_19
REMARK    3  A    between atoms: C_10  and  S_16
REMARK    4  A    between atoms: S_16  and  N_20
REMARK                            x       y       z     vdW  Elec       q    Type
REMARK                         _______ _______ _______ _____ _____    ______ ____
ROOT
ATOM      1  C   UNL     1       0.436  -0.691   0.000  0.00  0.00    +0.000 A 
ATOM      2  C   UNL     1       0.970   0.872   0.000  0.00  0.00    +0.000 A 
ATOM      3  C   UNL     1       0.161   0.707   0.000  0.00  0.00    +0.000 A 
ATOM      4  C   UNL     1      -0.106  -0.071   0.000  0.00  0.00    +0.000 A 
ATOM      5  C   UNL     1       1.245  -0.534   0.000  0.00  0.00    +0.000 A 
ATOM      6  C   UNL     1       1.512   0.251   0.000  0.00  0.00    +0.000 A 
ENDROOT
BRANCH   2   8
ATOM      7  O   UNL     1       1.018   2.451   0.000  0.00  0.00    +0.000 OA
ATOM      8  S   UNL     1       1.238   1.650   0.000  0.00  0.00    +0.000 S 
ATOM      9  O   UNL     1       0.412   1.650   0.000  0.00  0.00    +0.000 OA
BRANCH   8  10
ATOM     10  N   UNL     1       2.047   1.815   0.000  0.00  0.00    +0.000 NA
ATOM     11  C   UNL     1       2.306   2.593   0.000  0.00  0.00    +0.000 A 
ATOM     12  C   UNL     1       2.283   3.929   0.000  0.00  0.00    +0.000 A 
ATOM     13  C   UNL     1       3.076   3.685   0.000  0.00  0.00    +0.000 A 
ATOM     14  S   UNL     1       3.092   2.860   0.000  0.00  0.00    +0.000 S 
ATOM     15  N   UNL     1       1.811   3.253   0.000  0.00  0.00    +0.000 NA
ENDBRANCH   8  10
ENDBRANCH   2   8
BRANCH   1  16
ATOM     16  N   UNL     1       0.185  -1.477   0.000  0.00  0.00    +0.000 NA
BRANCH  16  25
ATOM     17  C   UNL     1      -2.377  -3.929   0.000  0.00  0.00    +0.000 A 
ATOM     18  C   UNL     1      -1.662  -2.687   0.000  0.00  0.00    +0.000 A 
ATOM     19  C   UNL     1      -0.876  -2.436   0.000  0.00  0.00    +0.000 C 
ATOM     20  C   UNL     1      -1.662  -3.512   0.000  0.00  0.00    +0.000 A 
ATOM     21  N   UNL     1      -0.876  -3.772   0.000  0.00  0.00    +0.000 NA
ATOM     22  C   UNL     1      -0.389  -3.104   0.000  0.00  0.00    +0.000 C 
ATOM     23  O   UNL     1       0.436  -3.104   0.000  0.00  0.00    +0.000 OA
ATOM     24  C   UNL     1      -3.092  -3.512   0.000  0.00  0.00    +0.000 A 
ATOM     25  C   UNL     1      -0.625  -1.650   0.000  0.00  0.00    +0.000 C 
ATOM     26  C   UNL     1      -3.092  -2.687   0.000  0.00  0.00    +0.000 A 
ATOM     27  C   UNL     1      -2.377  -2.279   0.000  0.00  0.00    +0.000 A 
ENDBRANCH  16  25
ENDBRANCH   1  16
TORSDOF 4
