REMARK  Name = 
REMARK  1 active torsions:
REMARK  status: ('A' for Active; 'I' for Inactive)
REMARK    1  A    between atoms: C_18  and  C_25
REMARK                            x       y       z     vdW  Elec       q    Type
REMARK                         _______ _______ _______ _____ _____    ______ ____
ROOT
ATOM      1  C   UNL     1      -2.135  -0.469   0.000  0.00  0.00    +0.000 C 
ATOM      2  C   UNL     1      -2.851  -0.881   0.000  0.00  0.00    +0.000 C 
ATOM      3  C   UNL     1      -2.851  -1.706   0.000  0.00  0.00    +0.000 C 
ATOM      4  C   UNL     1      -2.135  -2.119   0.000  0.00  0.00    +0.000 C 
ATOM      5  C   UNL     1      -1.423  -0.881   0.000  0.00  0.00    +0.000 C 
ATOM      6  C   UNL     1      -1.423  -1.706   0.000  0.00  0.00    +0.000 C 
ATOM      7  C   UNL     1      -0.707  -2.119   0.000  0.00  0.00    +0.000 C 
ATOM      8  C   UNL     1       0.009  -1.706   0.000  0.00  0.00    +0.000 C 
ATOM      9  C   UNL     1      -0.707  -0.469   0.000  0.00  0.00    +0.000 C 
ATOM     10  C   UNL     1       0.009  -0.881   0.000  0.00  0.00    +0.000 C 
ATOM     11  C   UNL     1       0.009   0.769   0.000  0.00  0.00    +0.000 C 
ATOM     12  C   UNL     1      -0.707   0.356   0.000  0.00  0.00    +0.000 C 
ATOM     13  C   UNL     1       0.721   0.356   0.000  0.00  0.00    +0.000 C 
ATOM     14  C   UNL     1       0.719  -0.469   0.000  0.00  0.00    +0.000 C 
ATOM     15  C   UNL     1       1.429  -0.881   0.000  0.00  0.00    +0.000 C 
ATOM     16  C   UNL     1       2.145  -0.472   0.000  0.00  0.00    +0.000 C 
ATOM     17  C   UNL     1       1.433   0.769   0.000  0.00  0.00    +0.000 C 
ATOM     18  C   UNL     1       2.146   0.350   0.000  0.00  0.00    +0.000 C 
ATOM     19  C   UNL     1       2.862   0.756   0.000  0.00  0.00    +0.000 C 
ATOM     20  C   UNL     1       2.871   1.583   0.000  0.00  0.00    +0.000 C 
ATOM     21  C   UNL     1       2.157   2.002   0.000  0.00  0.00    +0.000 C 
ATOM     22  C   UNL     1       1.435   1.595   0.000  0.00  0.00    +0.000 C 
ATOM     23  C   UNL     1       2.153   2.831   0.000  0.00  0.00    +0.000 C 
ATOM     24  C   UNL     1       0.715   2.010   0.000  0.00  0.00    +0.000 C 
ATOM     25  O   UNL     1      -3.568  -2.115   0.000  0.00  0.00    +0.000 OA
ATOM     26  C   UNL     1      -1.730  -2.831   0.000  0.00  0.00    +0.000 C 
ATOM     27  C   UNL     1      -2.555  -2.831   0.000  0.00  0.00    +0.000 C 
ATOM     28  C   UNL     1      -1.430  -0.056   0.000  0.00  0.00    +0.000 C 
ATOM     29  C   UNL     1       0.003  -0.056   0.000  0.00  0.00    +0.000 C 
ATOM     30  C   UNL     1       0.711  -1.290   0.000  0.00  0.00    +0.000 C 
ENDROOT
BRANCH  18  31
ATOM     31  C   UNL     1       2.857  -0.060   0.000  0.00  0.00    +0.000 C 
ATOM     32  O   UNL     1       2.857  -0.881   0.000  0.00  0.00    +0.000 OA
ATOM     33  O   UNL     1       3.568   0.350   0.000  0.00  0.00    +0.000 OA
ENDBRANCH  18  31
TORSDOF 1
