REMARK  Name = 
REMARK  7 active torsions:
REMARK  status: ('A' for Active; 'I' for Inactive)
REMARK    1  A    between atoms: C_2  and  C_4
REMARK    2  A    between atoms: C_2  and  N_6
REMARK    3  A    between atoms: C_8  and  C_16
REMARK    4  A    between atoms: C_16  and  C_18
REMARK    5  A    between atoms: C_20  and  N_24
REMARK    6  A    between atoms: C_25  and  C_27
REMARK    7  A    between atoms: C_27  and  C_28
REMARK                            x       y       z     vdW  Elec       q    Type
REMARK                         _______ _______ _______ _____ _____    ______ ____
ROOT
ATOM      1  C   UNL     1      -0.398  -2.150   0.000  0.00  0.00    +0.000 C 
ATOM      2  O   UNL     1       0.154  -2.763   0.000  0.00  0.00    +0.000 OA
ENDROOT
BRANCH   1   5
ATOM      3  N   UNL     1      -0.143  -0.030   0.000  0.00  0.00    +0.000 N 
ATOM      4  C   UNL     1      -0.628  -0.698   0.000  0.00  0.00    +0.000 A 
ATOM      5  C   UNL     1      -0.143  -1.365   0.000  0.00  0.00    +0.000 A 
ATOM      6  C   UNL     1       0.641  -1.110   0.000  0.00  0.00    +0.000 A 
ATOM      7  C   UNL     1       0.641  -0.285   0.000  0.00  0.00    +0.000 A 
ATOM      8  N   UNL     1       1.356   0.127   0.000  0.00  0.00    +0.000 NA
ATOM      9  C   UNL     1       2.070  -0.285   0.000  0.00  0.00    +0.000 A 
ATOM     10  N   UNL     1       2.070  -1.110   0.000  0.00  0.00    +0.000 NA
ATOM     11  C   UNL     1       1.356  -1.523   0.000  0.00  0.00    +0.000 A 
ATOM     12  N   UNL     1       2.784   0.127   0.000  0.00  0.00    +0.000 NA
BRANCH   3  14
ATOM     13  C   UNL     1      -1.183   0.499   0.000  0.00  0.00    +0.000 C 
ATOM     14  C   UNL     1      -0.398   0.754   0.000  0.00  0.00    +0.000 C 
ATOM     15  C   UNL     1       0.386   1.009   0.000  0.00  0.00    +0.000 C 
BRANCH  14  16
ATOM     16  C   UNL     1      -0.653   1.539   0.000  0.00  0.00    +0.000 C 
ATOM     17  O   UNL     1      -0.101   2.152   0.000  0.00  0.00    +0.000 OA
ENDBRANCH  14  16
ENDBRANCH   3  14
ENDBRANCH   1   5
BRANCH   1  18
ATOM     18  C   UNL     1      -1.205  -2.321   0.000  0.00  0.00    +0.000 A 
ATOM     19  C   UNL     1      -1.460  -3.106   0.000  0.00  0.00    +0.000 A 
ATOM     20  C   UNL     1      -2.267  -3.278   0.000  0.00  0.00    +0.000 A 
ATOM     21  C   UNL     1      -2.819  -2.665   0.000  0.00  0.00    +0.000 A 
ATOM     22  N   UNL     1      -2.564  -1.880   0.000  0.00  0.00    +0.000 NA
ATOM     23  C   UNL     1      -1.758  -1.708   0.000  0.00  0.00    +0.000 A 
BRANCH  20  24
ATOM     24  N   UNL     1      -2.522  -4.062   0.000  0.00  0.00    +0.000 NA
ATOM     25  C   UNL     1      -3.329  -4.234   0.000  0.00  0.00    +0.000 C 
ATOM     26  O   UNL     1      -3.881  -3.621   0.000  0.00  0.00    +0.000 OA
BRANCH  25  27
ATOM     27  C   UNL     1      -3.584  -5.018   0.000  0.00  0.00    +0.000 C 
BRANCH  27  28
ATOM     28  C   UNL     1      -4.391  -5.190   0.000  0.00  0.00    +0.000 A 
ATOM     29  C   UNL     1      -4.646  -5.975   0.000  0.00  0.00    +0.000 A 
ATOM     30  C   UNL     1      -5.453  -6.146   0.000  0.00  0.00    +0.000 A 
ATOM     31  C   UNL     1      -6.005  -5.533   0.000  0.00  0.00    +0.000 A 
ATOM     32  C   UNL     1      -5.750  -4.748   0.000  0.00  0.00    +0.000 A 
ATOM     33  N   UNL     1      -4.943  -4.577   0.000  0.00  0.00    +0.000 NA
ATOM     34 CL   UNL     1      -6.812  -5.705   0.000  0.00  0.00    +0.000 Cl
ENDBRANCH  27  28
ENDBRANCH  25  27
ENDBRANCH  20  24
ENDBRANCH   1  18
TORSDOF 7
