REMARK  Name = 
REMARK  23 active torsions:
REMARK  status: ('A' for Active; 'I' for Inactive)
REMARK    1  A    between atoms: C_2  and  C_3
REMARK    2  A    between atoms: C_3  and  C_4
REMARK    3  A    between atoms: C_4  and  C_5
REMARK    4  A    between atoms: C_5  and  C_6
REMARK    5  A    between atoms: C_6  and  C_7
REMARK    6  A    between atoms: C_7  and  C_8
REMARK    7  A    between atoms: C_8  and  C_9
REMARK    8  A    between atoms: C_9  and  C_10
REMARK    9  A    between atoms: C_10  and  C_11
REMARK   10  A    between atoms: C_11  and  C_12
REMARK   11  A    between atoms: C_12  and  C_13
REMARK   12  A    between atoms: C_13  and  C_14
REMARK   13  A    between atoms: C_14  and  C_15
REMARK   14  A    between atoms: C_15  and  C_16
REMARK   15  A    between atoms: C_16  and  C_17
REMARK   16  A    between atoms: C_17  and  C_18
REMARK   17  A    between atoms: C_18  and  C_19
REMARK   18  A    between atoms: C_19  and  C_20
REMARK   19  A    between atoms: N_22  and  C_23
REMARK   20  A    between atoms: C_39  and  C_40
REMARK   21  A    between atoms: C_40  and  C_42
REMARK   22  A    between atoms: C_42  and  C_43
REMARK   23  A    between atoms: C_43  and  C_44
REMARK                            x       y       z     vdW  Elec       q    Type
REMARK                         _______ _______ _______ _____ _____    ______ ____
ROOT
ATOM      1  C   UNL     1       4.287 -13.200   0.000  0.00  0.00    +0.000 C 
ATOM      2  C   UNL     1       5.001 -12.787   0.000  0.00  0.00    +0.000 C 
ATOM      3  C   UNL     1       5.716 -13.200   0.000  0.00  0.00    +0.000 C 
ATOM      4  C   UNL     1       5.716 -14.025   0.000  0.00  0.00    +0.000 C 
ATOM      5  C   UNL     1       5.001 -14.438   0.000  0.00  0.00    +0.000 C 
ATOM      6  C   UNL     1       4.287 -14.025   0.000  0.00  0.00    +0.000 C 
ATOM      7  C   UNL     1       5.001 -15.262   0.000  0.00  0.00    +0.000 C 
ATOM      8  C   UNL     1       5.716 -15.675   0.000  0.00  0.00    +0.000 C 
ATOM      9  C   UNL     1       6.430 -15.262   0.000  0.00  0.00    +0.000 C 
ATOM     10  C   UNL     1       6.430 -14.438   0.000  0.00  0.00    +0.000 C 
ATOM     11  C   UNL     1       7.145 -14.025   0.000  0.00  0.00    +0.000 C 
ATOM     12  C   UNL     1       7.859 -14.438   0.000  0.00  0.00    +0.000 C 
ATOM     13  C   UNL     1       7.859 -15.262   0.000  0.00  0.00    +0.000 C 
ATOM     14  C   UNL     1       7.145 -15.675   0.000  0.00  0.00    +0.000 C 
ATOM     15  C   UNL     1       7.316 -16.482   0.000  0.00  0.00    +0.000 C 
ATOM     16  C   UNL     1       8.137 -16.568   0.000  0.00  0.00    +0.000 C 
ATOM     17  C   UNL     1       8.472 -15.815   0.000  0.00  0.00    +0.000 C 
ATOM     18  C   UNL     1       8.613 -14.927   0.000  0.00  0.00    +0.000 C 
ATOM     19  O   UNL     1       8.574 -14.025   0.000  0.00  0.00    +0.000 OA
ATOM     20  O   UNL     1       5.716 -16.500   0.000  0.00  0.00    +0.000 OA
ATOM     21  C   UNL     1       6.430 -13.613   0.000  0.00  0.00    +0.000 C 
ENDROOT
BRANCH   1  24
ATOM     22  C   UNL     1       2.858 -13.200   0.000  0.00  0.00    +0.000 C 
ATOM     23  O   UNL     1       2.858 -14.025   0.000  0.00  0.00    +0.000 OA
ATOM     24  N   UNL     1       3.572 -12.787   0.000  0.00  0.00    +0.000 NA
BRANCH  22  25
ATOM     25  C   UNL     1       2.143 -12.787   0.000  0.00  0.00    +0.000 C 
BRANCH  25  26
ATOM     26  C   UNL     1       1.429 -13.200   0.000  0.00  0.00    +0.000 C 
BRANCH  26  27
ATOM     27  C   UNL     1       0.715 -12.787   0.000  0.00  0.00    +0.000 C 
BRANCH  27  28
ATOM     28  C   UNL     1       0.000 -13.200   0.000  0.00  0.00    +0.000 C 
BRANCH  28  29
ATOM     29  C   UNL     1      -0.715 -12.787   0.000  0.00  0.00    +0.000 C 
BRANCH  29  30
ATOM     30  C   UNL     1      -1.429 -13.200   0.000  0.00  0.00    +0.000 C 
BRANCH  30  31
ATOM     31  C   UNL     1      -2.143 -12.787   0.000  0.00  0.00    +0.000 C 
BRANCH  31  32
ATOM     32  C   UNL     1      -2.858 -13.200   0.000  0.00  0.00    +0.000 C 
BRANCH  32  33
ATOM     33  C   UNL     1      -3.572 -12.787   0.000  0.00  0.00    +0.000 C 
BRANCH  33  34
ATOM     34  C   UNL     1      -4.287 -13.200   0.000  0.00  0.00    +0.000 C 
BRANCH  34  35
ATOM     35  C   UNL     1      -5.001 -12.787   0.000  0.00  0.00    +0.000 C 
BRANCH  35  36
ATOM     36  C   UNL     1      -5.716 -13.200   0.000  0.00  0.00    +0.000 C 
BRANCH  36  37
ATOM     37  C   UNL     1      -6.430 -12.787   0.000  0.00  0.00    +0.000 C 
BRANCH  37  38
ATOM     38  C   UNL     1      -7.145 -13.200   0.000  0.00  0.00    +0.000 C 
BRANCH  38  39
ATOM     39  C   UNL     1      -7.859 -12.787   0.000  0.00  0.00    +0.000 C 
BRANCH  39  40
ATOM     40  C   UNL     1      -8.574 -13.200   0.000  0.00  0.00    +0.000 C 
BRANCH  40  41
ATOM     41  C   UNL     1      -9.288 -12.787   0.000  0.00  0.00    +0.000 C 
BRANCH  41  43
ATOM     42  C   UNL     1     -10.717 -12.787   0.000  0.00  0.00    +0.000 C 
ATOM     43  C   UNL     1     -10.003 -13.200   0.000  0.00  0.00    +0.000 C 
ENDBRANCH  41  43
ENDBRANCH  40  41
ENDBRANCH  39  40
ENDBRANCH  38  39
ENDBRANCH  37  38
ENDBRANCH  36  37
ENDBRANCH  35  36
ENDBRANCH  34  35
ENDBRANCH  33  34
ENDBRANCH  32  33
ENDBRANCH  31  32
ENDBRANCH  30  31
ENDBRANCH  29  30
ENDBRANCH  28  29
ENDBRANCH  27  28
ENDBRANCH  26  27
ENDBRANCH  25  26
ENDBRANCH  22  25
ENDBRANCH   1  24
BRANCH  17  44
ATOM     44  C   UNL     1       9.279 -15.643   0.000  0.00  0.00    +0.000 C 
ATOM     45  C   UNL     1       9.534 -14.858   0.000  0.00  0.00    +0.000 C 
BRANCH  44  46
ATOM     46  C   UNL     1       9.831 -16.256   0.000  0.00  0.00    +0.000 C 
BRANCH  46  47
ATOM     47  C   UNL     1      10.638 -16.085   0.000  0.00  0.00    +0.000 C 
BRANCH  47  48
ATOM     48  C   UNL     1      11.190 -16.698   0.000  0.00  0.00    +0.000 C 
ATOM     49  O   UNL     1      11.997 -16.526   0.000  0.00  0.00    +0.000 OA
ATOM     50  O   UNL     1      10.935 -17.482   0.000  0.00  0.00    +0.000 OA
ENDBRANCH  47  48
ENDBRANCH  46  47
ENDBRANCH  44  46
ENDBRANCH  17  44
TORSDOF 23
