REMARK  Name = 
REMARK  3 active torsions:
REMARK  status: ('A' for Active; 'I' for Inactive)
REMARK    1  A    between atoms: C_3  and  N_13
REMARK    2  A    between atoms: C_5  and  C_6
REMARK    3  A    between atoms: C_5  and  N_8
REMARK                            x       y       z     vdW  Elec       q    Type
REMARK                         _______ _______ _______ _____ _____    ______ ____
ROOT
ATOM      1  C   UNL     1      -0.809  -0.802   0.000  0.00  0.00    +0.000 C 
ATOM      2  C   UNL     1       0.015  -0.802   0.000  0.00  0.00    +0.000 C 
ATOM      3  C   UNL     1       0.272  -0.018   0.000  0.00  0.00    +0.000 C 
ATOM      4  O   UNL     1      -0.397   0.469   0.000  0.00  0.00    +0.000 OA
ATOM      5  C   UNL     1      -1.062  -0.018   0.000  0.00  0.00    +0.000 C 
ATOM      6  O   UNL     1      -1.295  -1.469   0.000  0.00  0.00    +0.000 OA
ATOM      7  F   UNL     1       0.499  -1.470   0.000  0.00  0.00    +0.000 F 
ENDROOT
BRANCH   3   8
ATOM      8  N   UNL     1       1.058   0.236   0.000  0.00  0.00    +0.000 N 
ATOM      9  C   UNL     1       1.767  -0.179   0.000  0.00  0.00    +0.000 A 
ATOM     10  N   UNL     1       2.483   0.224   0.000  0.00  0.00    +0.000 NA
ATOM     11  C   UNL     1       2.494   1.049   0.000  0.00  0.00    +0.000 A 
ATOM     12  C   UNL     1       1.783   1.470   0.000  0.00  0.00    +0.000 A 
ATOM     13  C   UNL     1       1.062   1.065   0.000  0.00  0.00    +0.000 A 
ATOM     14  O   UNL     1       1.761  -1.004   0.000  0.00  0.00    +0.000 OA
ATOM     15  N   UNL     1       3.213   1.453   0.000  0.00  0.00    +0.000 NA
ENDBRANCH   3   8
BRANCH   5  16
ATOM     16  N   UNL     1      -1.780  -0.423   0.000  0.00  0.00    +0.000 NA
ATOM     17  N   UNL     1      -2.497  -0.831   0.000  0.00  0.00    +0.000 NA
ATOM     18  N   UNL     1      -3.213  -1.240   0.000  0.00  0.00    +0.000 NA
ENDBRANCH   5  16
BRANCH   5  19
ATOM     19  C   UNL     1      -1.480   0.702   0.000  0.00  0.00    +0.000 C 
ATOM     20  O   UNL     1      -2.305   0.700   0.000  0.00  0.00    +0.000 OA
ENDBRANCH   5  19
TORSDOF 3
