REMARK  Name = 
REMARK  3 active torsions:
REMARK  status: ('A' for Active; 'I' for Inactive)
REMARK    1  A    between atoms: C_3  and  C_20
REMARK    2  A    between atoms: C_19  and  C_21
REMARK    3  A    between atoms: C_19  and  O_26
REMARK                            x       y       z     vdW  Elec       q    Type
REMARK                         _______ _______ _______ _____ _____    ______ ____
ROOT
ATOM      1  C   UNL     1       5.791  -1.203   0.000  0.00  0.00    +0.000 A 
ATOM      2  C   UNL     1       5.752  -0.379   0.000  0.00  0.00    +0.000 A 
ATOM      3  C   UNL     1       0.605  -0.778   0.000  0.00  0.00    +0.000 C 
ATOM      4  C   UNL     1       5.097  -1.649   0.000  0.00  0.00    +0.000 A 
ATOM      5  C   UNL     1       5.019  -0.001   0.000  0.00  0.00    +0.000 A 
ATOM      6  C   UNL     1       2.995  -2.346   0.000  0.00  0.00    +0.000 C 
ATOM      7  C   UNL     1       1.058  -0.088   0.000  0.00  0.00    +0.000 C 
ATOM      8  C   UNL     1       0.976  -1.515   0.000  0.00  0.00    +0.000 C 
ATOM      9  C   UNL     1       2.171  -2.299   0.000  0.00  0.00    +0.000 C 
ATOM     10  C   UNL     1       2.334   0.554   0.000  0.00  0.00    +0.000 C 
ATOM     11  C   UNL     1       4.364  -1.271   0.000  0.00  0.00    +0.000 A 
ATOM     12  C   UNL     1       3.447  -1.656   0.000  0.00  0.00    +0.000 A 
ATOM     13  C   UNL     1       4.325  -0.447   0.000  0.00  0.00    +0.000 A 
ATOM     14  C   UNL     1       3.076  -0.919   0.000  0.00  0.00    +0.000 A 
ATOM     15  C   UNL     1       2.253  -0.872   0.000  0.00  0.00    +0.000 C 
ATOM     16  C   UNL     1       1.882  -0.135   0.000  0.00  0.00    +0.000 C 
ATOM     17  C   UNL     1       3.158   0.507   0.000  0.00  0.00    +0.000 C 
ATOM     18  N   UNL     1       1.800  -1.562   0.000  0.00  0.00    +0.000 NA
ATOM     19  N   UNL     1       3.529  -0.230   0.000  0.00  0.00    +0.000 N 
ATOM     20  O   UNL     1       3.948   0.745   0.000  0.00  0.00    +0.000 OA
ENDROOT
BRANCH  16  22
ATOM     21  C   UNL     1       0.687   0.649   0.000  0.00  0.00    +0.000 C 
ATOM     22  C   UNL     1       1.511   0.602   0.000  0.00  0.00    +0.000 C 
ENDBRANCH  16  22
BRANCH  17  23
ATOM     23  C   UNL     1       3.061   1.327   0.000  0.00  0.00    +0.000 C 
ATOM     24  O   UNL     1       3.723   1.820   0.000  0.00  0.00    +0.000 OA
BRANCH  23  26
ATOM     25  C   UNL     1       2.207   2.472   0.000  0.00  0.00    +0.000 C 
ATOM     26  O   UNL     1       2.304   1.653   0.000  0.00  0.00    +0.000 OA
ENDBRANCH  23  26
ENDBRANCH  17  23
TORSDOF 3
