REMARK  Name = 
REMARK  4 active torsions:
REMARK  status: ('A' for Active; 'I' for Inactive)
REMARK    1  A    between atoms: P_1  and  O_5
REMARK    2  A    between atoms: O_5  and  C_18
REMARK    3  A    between atoms: N_9  and  C_16
REMARK    4  A    between atoms: C_17  and  C_18
REMARK                            x       y       z     vdW  Elec       q    Type
REMARK                         _______ _______ _______ _____ _____    ______ ____
ROOT
ATOM      1  O   UNL     1       0.601  -0.090   0.000  0.00  0.00    +0.000 OA
ATOM      2  O   UNL     1       2.536  -0.991   0.000  0.00  0.00    +0.000 OA
ATOM      3  O   UNL     1       2.539   0.804   0.000  0.00  0.00    +0.000 OA
ATOM      4  C   UNL     1       1.869  -0.505   0.000  0.00  0.00    +0.000 C 
ATOM      5  C   UNL     1       1.871   0.320   0.000  0.00  0.00    +0.000 C 
ATOM      6  C   UNL     1       1.084  -0.759   0.000  0.00  0.00    +0.000 C 
ATOM      7  C   UNL     1       1.087   0.576   0.000  0.00  0.00    +0.000 C 
ENDROOT
BRANCH   6   8
ATOM      8  N   UNL     1       0.828  -1.543   0.000  0.00  0.00    +0.000 N 
ATOM      9  N   UNL     1       0.828  -2.871   0.000  0.00  0.00    +0.000 NA
ATOM     10  N   UNL     1      -0.667  -3.032   0.000  0.00  0.00    +0.000 NA
ATOM     11  N   UNL     1      -1.382  -1.794   0.000  0.00  0.00    +0.000 NA
ATOM     12  N   UNL     1      -2.096  -3.032   0.000  0.00  0.00    +0.000 N 
ATOM     13  C   UNL     1       0.047  -1.794   0.000  0.00  0.00    +0.000 A 
ATOM     14  C   UNL     1       1.310  -2.207   0.000  0.00  0.00    +0.000 A 
ATOM     15  C   UNL     1       0.047  -2.620   0.000  0.00  0.00    +0.000 A 
ATOM     16  C   UNL     1      -0.667  -1.382   0.000  0.00  0.00    +0.000 A 
ATOM     17  C   UNL     1      -1.382  -2.620   0.000  0.00  0.00    +0.000 A 
ATOM     18  H   UNL     1      -2.539  -2.776   0.000  0.00  0.00    +0.000 HD
ATOM     19  H   UNL     1      -2.096  -3.544   0.000  0.00  0.00    +0.000 HD
ENDBRANCH   6   8
BRANCH   7  20
ATOM     20  C   UNL     1       0.833   1.361   0.000  0.00  0.00    +0.000 C 
BRANCH  20  21
ATOM     21  O   UNL     1       1.386   1.973   0.000  0.00  0.00    +0.000 OA
BRANCH  21  22
ATOM     22  P   UNL     1       1.133   2.759   0.000  0.00  0.00    +0.000 P 
ATOM     23  O   UNL     1       1.918   3.012   0.000  0.00  0.00    +0.000 OA
ATOM     24  O   UNL     1       0.879   3.544   0.000  0.00  0.00    +0.000 OA
ATOM     25  O   UNL     1       0.347   2.505   0.000  0.00  0.00    +0.000 OA
ENDBRANCH  21  22
ENDBRANCH  20  21
ENDBRANCH   7  20
TORSDOF 4
