REMARK  Name = 
REMARK  6 active torsions:
REMARK  status: ('A' for Active; 'I' for Inactive)
REMARK    1  A    between atoms: C_1  and  N_4
REMARK    2  A    between atoms: N_4  and  C_5
REMARK    3  A    between atoms: N_4  and  C_6
REMARK    4  A    between atoms: C_10  and  N_13
REMARK    5  A    between atoms: N_13  and  C_14
REMARK    6  A    between atoms: N_13  and  C_15
REMARK                            x       y       z     vdW  Elec       q    Type
REMARK                         _______ _______ _______ _____ _____    ______ ____
ROOT
ATOM      1  N   UNL     1      -0.724  -0.002   0.000  0.00  0.00    +0.000 N 
ENDROOT
BRANCH   1   2
ATOM      2  C   UNL     1       0.098  -0.002   0.000  0.00  0.00    +0.000 C 
ATOM      3  S   UNL     1       0.509  -0.719   0.000  0.00  0.00    +0.000 SA
ATOM      4  S   UNL     1       0.509   0.719   0.000  0.00  0.00    +0.000 S 
ENDBRANCH   1   2
BRANCH   1   5
ATOM      5  C   UNL     1      -1.141   0.713   0.000  0.00  0.00    +0.000 C 
ATOM      6  C   UNL     1      -1.966   0.713   0.000  0.00  0.00    +0.000 C 
ENDBRANCH   1   5
BRANCH   1   7
ATOM      7  C   UNL     1      -1.141  -0.713   0.000  0.00  0.00    +0.000 C 
ATOM      8  C   UNL     1      -1.966  -0.713   0.000  0.00  0.00    +0.000 C 
ENDBRANCH   1   7
TORSDOF 3
REMARK  Name = 
REMARK  6 active torsions:
REMARK  status: ('A' for Active; 'I' for Inactive)
REMARK    1  A    between atoms: C_1  and  N_4
REMARK    2  A    between atoms: N_4  and  C_5
REMARK    3  A    between atoms: N_4  and  C_6
REMARK    4  A    between atoms: C_10  and  N_13
REMARK    5  A    between atoms: N_13  and  C_14
REMARK    6  A    between atoms: N_13  and  C_15
REMARK                            x       y       z     vdW  Elec       q    Type
REMARK                         _______ _______ _______ _____ _____    ______ ____
ROOT
ATOM      1 ZN   UNL     1       2.011   1.201   0.000  0.00  0.00    +0.000 Zn
ENDROOT
TORSDOF 0
REMARK  Name = 
REMARK  6 active torsions:
REMARK  status: ('A' for Active; 'I' for Inactive)
REMARK    1  A    between atoms: C_1  and  N_4
REMARK    2  A    between atoms: N_4  and  C_5
REMARK    3  A    between atoms: N_4  and  C_6
REMARK    4  A    between atoms: C_10  and  N_13
REMARK    5  A    between atoms: N_13  and  C_14
REMARK    6  A    between atoms: N_13  and  C_15
REMARK                            x       y       z     vdW  Elec       q    Type
REMARK                         _______ _______ _______ _____ _____    ______ ____
ROOT
ATOM      1  N   UNL     1      -0.769   2.483   0.000  0.00  0.00    +0.000 N 
ENDROOT
BRANCH   1   2
ATOM      2  C   UNL     1       0.053   2.483   0.000  0.00  0.00    +0.000 C 
ATOM      3  S   UNL     1       0.464   1.766   0.000  0.00  0.00    +0.000 SA
ATOM      4  S   UNL     1       0.464   3.203   0.000  0.00  0.00    +0.000 S 
ENDBRANCH   1   2
BRANCH   1   5
ATOM      5  C   UNL     1      -1.186   3.197   0.000  0.00  0.00    +0.000 C 
ATOM      6  C   UNL     1      -2.011   3.197   0.000  0.00  0.00    +0.000 C 
ENDBRANCH   1   5
BRANCH   1   7
ATOM      7  C   UNL     1      -1.186   1.771   0.000  0.00  0.00    +0.000 C 
ATOM      8  C   UNL     1      -2.011   1.771   0.000  0.00  0.00    +0.000 C 
ENDBRANCH   1   7
TORSDOF 3
