REMARK  Name = 
REMARK  6 active torsions:
REMARK  status: ('A' for Active; 'I' for Inactive)
REMARK    1  A    between atoms: C_2  and  O_11
REMARK    2  A    between atoms: C_6  and  O_9
REMARK    3  A    between atoms: O_9  and  C_12
REMARK    4  A    between atoms: O_11  and  C_19
REMARK    5  A    between atoms: C_16  and  C_30
REMARK    6  A    between atoms: C_22  and  N_26
REMARK                            x       y       z     vdW  Elec       q    Type
REMARK                         _______ _______ _______ _____ _____    ______ ____
ROOT
ATOM      1  C   UNL     1       0.733   1.856   0.000  0.00  0.00    +0.000 C 
ATOM      2  C   UNL     1       0.733   1.031   0.000  0.00  0.00    +0.000 C 
ATOM      3  C   UNL     1       0.018   2.269   0.000  0.00  0.00    +0.000 C 
ATOM      4  C   UNL     1       0.018   0.619   0.000  0.00  0.00    +0.000 C 
ATOM      5  C   UNL     1      -0.697   1.856   0.000  0.00  0.00    +0.000 C 
ATOM      6  C   UNL     1      -0.697   1.031   0.000  0.00  0.00    +0.000 C 
ATOM      7  N   UNL     1       1.447   2.269   0.000  0.00  0.00    +0.000 NA
ATOM      8  N   UNL     1      -1.411   2.269   0.000  0.00  0.00    +0.000 NA
ATOM      9  O   UNL     1       0.018  -0.206   0.000  0.00  0.00    +0.000 OA
ENDROOT
BRANCH   2  10
ATOM     10  O   UNL     1       1.447   0.619   0.000  0.00  0.00    +0.000 OA
BRANCH  10  11
ATOM     11  C   UNL     1       2.162   0.206   0.000  0.00  0.00    +0.000 C 
ATOM     12  C   UNL     1       2.162  -0.619   0.000  0.00  0.00    +0.000 C 
ATOM     13  O   UNL     1       2.876   0.619   0.000  0.00  0.00    +0.000 OA
ATOM     14  C   UNL     1       2.876  -1.031   0.000  0.00  0.00    +0.000 C 
ATOM     15  C   UNL     1       3.591   0.206   0.000  0.00  0.00    +0.000 C 
ATOM     16  C   UNL     1       3.591  -0.619   0.000  0.00  0.00    +0.000 C 
ATOM     17  O   UNL     1       1.447  -1.031   0.000  0.00  0.00    +0.000 OA
ATOM     18  C   UNL     1       4.269  -0.332   0.000  0.00  0.00    +0.000 C 
ATOM     19  O   UNL     1       3.758  -1.369   0.000  0.00  0.00    +0.000 OA
BRANCH  14  20
ATOM     20  N   UNL     1       2.876  -1.856   0.000  0.00  0.00    +0.000 NA
ATOM     21  C   UNL     1       2.162  -2.269   0.000  0.00  0.00    +0.000 C 
ENDBRANCH  14  20
ENDBRANCH  10  11
ENDBRANCH   2  10
BRANCH   6  22
ATOM     22  O   UNL     1      -1.411   0.619   0.000  0.00  0.00    +0.000 OA
BRANCH  22  23
ATOM     23  C   UNL     1      -2.126   0.206   0.000  0.00  0.00    +0.000 C 
ATOM     24  C   UNL     1      -2.126  -0.619   0.000  0.00  0.00    +0.000 C 
ATOM     25  O   UNL     1      -2.840   0.619   0.000  0.00  0.00    +0.000 OA
ATOM     26  C   UNL     1      -2.840  -1.031   0.000  0.00  0.00    +0.000 C 
ATOM     27  C   UNL     1      -3.555   0.206   0.000  0.00  0.00    +0.000 C 
ATOM     28  C   UNL     1      -3.555  -0.619   0.000  0.00  0.00    +0.000 C 
ATOM     29  N   UNL     1      -1.411  -1.031   0.000  0.00  0.00    +0.000 NA
BRANCH  27  30
ATOM     30  C   UNL     1      -4.269   0.619   0.000  0.00  0.00    +0.000 C 
ATOM     31  N   UNL     1      -4.269   1.444   0.000  0.00  0.00    +0.000 NA
ENDBRANCH  27  30
ENDBRANCH  22  23
ENDBRANCH   6  22
TORSDOF 6
