REMARK  Name = 
REMARK  6 active torsions:
REMARK  status: ('A' for Active; 'I' for Inactive)
REMARK    1  A    between atoms: O_1  and  C_2
REMARK    2  A    between atoms: O_1  and  C_7
REMARK    3  A    between atoms: C_3  and  N_6
REMARK    4  A    between atoms: C_8  and  C_14
REMARK    5  A    between atoms: C_12  and  C_19
REMARK    6  A    between atoms: C_20  and  N_25
REMARK                            x       y       z     vdW  Elec       q    Type
REMARK                         _______ _______ _______ _____ _____    ______ ____
ROOT
ATOM      1  O   UNL     1      -0.715  -0.412   0.000  0.00  0.00    +0.000 OA
ENDROOT
BRANCH   1   2
ATOM      2  C   UNL     1       0.000   0.000   0.000  0.00  0.00    +0.000 C 
ATOM      3  C   UNL     1       0.000   0.825   0.000  0.00  0.00    +0.000 C 
ATOM      4  C   UNL     1       0.714  -0.412   0.000  0.00  0.00    +0.000 C 
ATOM      5  O   UNL     1       0.714   1.237   0.000  0.00  0.00    +0.000 OA
ATOM      6  C   UNL     1       1.429   0.000   0.000  0.00  0.00    +0.000 C 
ATOM      7  O   UNL     1       0.714  -1.237   0.000  0.00  0.00    +0.000 OA
ATOM      8  C   UNL     1       1.429   0.825   0.000  0.00  0.00    +0.000 C 
ATOM      9  O   UNL     1       2.143   1.237   0.000  0.00  0.00    +0.000 OA
BRANCH   6  10
ATOM     10  N   UNL     1       2.143  -0.412   0.000  0.00  0.00    +0.000 NA
ATOM     11  C   UNL     1       2.858   0.000   0.000  0.00  0.00    +0.000 C 
ATOM     12  O   UNL     1       2.858   0.825   0.000  0.00  0.00    +0.000 OA
ATOM     13  C   UNL     1       3.572  -0.412   0.000  0.00  0.00    +0.000 C 
ENDBRANCH   6  10
BRANCH   3  14
ATOM     14  C   UNL     1      -0.715   1.237   0.000  0.00  0.00    +0.000 C 
ATOM     15  O   UNL     1      -0.715   2.062   0.000  0.00  0.00    +0.000 OA
ENDBRANCH   3  14
ENDBRANCH   1   2
BRANCH   1  16
ATOM     16  C   UNL     1      -1.429   0.000   0.000  0.00  0.00    +0.000 C 
ATOM     17  C   UNL     1      -2.143  -0.412   0.000  0.00  0.00    +0.000 C 
ATOM     18  O   UNL     1      -1.429   0.825   0.000  0.00  0.00    +0.000 OA
ATOM     19  C   UNL     1      -2.858   0.000   0.000  0.00  0.00    +0.000 C 
ATOM     20  C   UNL     1      -2.143   1.237   0.000  0.00  0.00    +0.000 C 
ATOM     21  C   UNL     1      -2.858   0.825   0.000  0.00  0.00    +0.000 C 
ATOM     22  O   UNL     1      -3.572  -0.412   0.000  0.00  0.00    +0.000 OA
ATOM     23  O   UNL     1      -3.572   1.237   0.000  0.00  0.00    +0.000 OA
BRANCH  17  24
ATOM     24  N   UNL     1      -2.143  -1.237   0.000  0.00  0.00    +0.000 NA
ATOM     25  C   UNL     1      -1.429  -1.650   0.000  0.00  0.00    +0.000 C 
ATOM     26  C   UNL     1      -0.715  -1.237   0.000  0.00  0.00    +0.000 C 
ATOM     27  O   UNL     1      -1.429  -2.475   0.000  0.00  0.00    +0.000 OA
ENDBRANCH  17  24
BRANCH  20  28
ATOM     28  C   UNL     1      -2.143   2.062   0.000  0.00  0.00    +0.000 C 
ATOM     29  O   UNL     1      -2.858   2.475   0.000  0.00  0.00    +0.000 OA
ENDBRANCH  20  28
ENDBRANCH   1  16
TORSDOF 6
