REMARK  Name = 
REMARK  3 active torsions:
REMARK  status: ('A' for Active; 'I' for Inactive)
REMARK    1  A    between atoms: C_15  and  N_16
REMARK    2  A    between atoms: N_18  and  C_19
REMARK    3  A    between atoms: N_18  and  C_21
REMARK                            x       y       z     vdW  Elec       q    Type
REMARK                         _______ _______ _______ _____ _____    ______ ____
ROOT
ATOM      1  C   UNL     1      -2.524  -0.602   0.000  0.00  0.00    +0.000 A 
ATOM      2  C   UNL     1      -2.524   0.201   0.000  0.00  0.00    +0.000 A 
ATOM      3  C   UNL     1      -1.814   0.616   0.000  0.00  0.00    +0.000 A 
ATOM      4  C   UNL     1      -1.814   1.438   0.000  0.00  0.00    +0.000 A 
ATOM      5  C   UNL     1      -2.524   1.849   0.000  0.00  0.00    +0.000 A 
ATOM      6  C   UNL     1      -3.252   1.448   0.000  0.00  0.00    +0.000 A 
ATOM      7  C   UNL     1      -3.252   0.616   0.000  0.00  0.00    +0.000 A 
ATOM      8  N   UNL     1      -3.911  -0.023   0.000  0.00  0.00    +0.000 NA
ATOM      9  C   UNL     1      -3.448  -0.836   0.000  0.00  0.00    +0.000 A 
ATOM     10  C   UNL     1      -1.118   0.182   0.000  0.00  0.00    +0.000 C 
ATOM     11  C   UNL     1      -1.118  -0.602   0.000  0.00  0.00    +0.000 C 
ATOM     12  C   UNL     1      -1.833  -1.032   0.000  0.00  0.00    +0.000 C 
ATOM     13  N   UNL     1      -0.399  -1.032   0.000  0.00  0.00    +0.000 NA
ATOM     14  C   UNL     1       0.315  -0.649   0.000  0.00  0.00    +0.000 C 
ATOM     15  C   UNL     1       0.315   0.177   0.000  0.00  0.00    +0.000 C 
ATOM     16  C   UNL     1      -0.390   0.607   0.000  0.00  0.00    +0.000 C 
ATOM     17  C   UNL     1      -0.399  -1.849   0.000  0.00  0.00    +0.000 C 
ENDROOT
BRANCH  15  18
ATOM     18  N   UNL     1       1.025   0.598   0.000  0.00  0.00    +0.000 NA
ATOM     19  C   UNL     1       1.734   0.177   0.000  0.00  0.00    +0.000 C 
ATOM     20  N   UNL     1       2.463   0.584   0.000  0.00  0.00    +0.000 N 
ATOM     21  O   UNL     1       1.734  -0.635   0.000  0.00  0.00    +0.000 OA
BRANCH  20  22
ATOM     22  C   UNL     1       2.463   1.415   0.000  0.00  0.00    +0.000 C 
ATOM     23  C   UNL     1       3.187   1.798   0.000  0.00  0.00    +0.000 C 
ENDBRANCH  20  22
BRANCH  20  24
ATOM     24  C   UNL     1       3.177   0.168   0.000  0.00  0.00    +0.000 C 
ATOM     25  C   UNL     1       3.911   0.504   0.000  0.00  0.00    +0.000 C 
ENDBRANCH  20  24
ENDBRANCH  15  18
TORSDOF 3
