REMARK  Name = 
REMARK  3 active torsions:
REMARK  status: ('A' for Active; 'I' for Inactive)
REMARK    1  A    between atoms: C_4  and  O_13
REMARK    2  A    between atoms: C_4  and  C_17
REMARK    3  A    between atoms: O_13  and  C_18
REMARK                            x       y       z     vdW  Elec       q    Type
REMARK                         _______ _______ _______ _____ _____    ______ ____
ROOT
ATOM      1  C   UNL     1      -1.470  -1.121   0.000  0.00  0.00    +0.000 C 
ATOM      2  C   UNL     1      -1.470  -0.298   0.000  0.00  0.00    +0.000 C 
ATOM      3  C   UNL     1       0.680   0.940   0.000  0.00  0.00    +0.000 C 
ATOM      4  C   UNL     1       1.467   1.194   0.000  0.00  0.00    +0.000 C 
ATOM      5  C   UNL     1      -0.038  -0.298   0.000  0.00  0.00    +0.000 C 
ATOM      6  C   UNL     1      -0.747  -1.542   0.000  0.00  0.00    +0.000 C 
ATOM      7  C   UNL     1      -0.038  -1.121   0.000  0.00  0.00    +0.000 C 
ATOM      8  C   UNL     1      -0.747   0.110   0.000  0.00  0.00    +0.000 C 
ATOM      9  C   UNL     1       0.680   0.110   0.000  0.00  0.00    +0.000 C 
ATOM     10  C   UNL     1      -2.187  -1.542   0.000  0.00  0.00    +0.000 C 
ATOM     11  C   UNL     1      -0.038   1.353   0.000  0.00  0.00    +0.000 C 
ATOM     12  C   UNL     1       1.953   0.520   0.000  0.00  0.00    +0.000 C 
ATOM     13  C   UNL     1      -0.747   0.940   0.000  0.00  0.00    +0.000 C 
ATOM     14  C   UNL     1       1.467  -0.137   0.000  0.00  0.00    +0.000 C 
ATOM     15  C   UNL     1      -2.187   0.110   0.000  0.00  0.00    +0.000 C 
ATOM     16  C   UNL     1      -2.897  -1.121   0.000  0.00  0.00    +0.000 C 
ATOM     17 CL   UNL     1      -0.747  -2.367   0.000  0.00  0.00    +0.000 Cl
ATOM     18  O   UNL     1      -3.619  -1.542   0.000  0.00  0.00    +0.000 OA
ATOM     19  C   UNL     1      -2.897  -0.298   0.000  0.00  0.00    +0.000 C 
ATOM     20  C   UNL     1      -1.472   0.525   0.000  0.00  0.00    +0.000 C 
ATOM     21  C   UNL     1       0.677   1.771   0.000  0.00  0.00    +0.000 C 
ENDROOT
BRANCH   4  22
ATOM     22  C   UNL     1       1.467   1.907   0.000  0.00  0.00    +0.000 C 
ATOM     23  O   UNL     1       2.084   2.367   0.000  0.00  0.00    +0.000 OA
ATOM     24  C   UNL     1       0.939   2.329   0.000  0.00  0.00    +0.000 C 
ENDBRANCH   4  22
BRANCH   4  25
ATOM     25  O   UNL     1       2.273   1.499   0.000  0.00  0.00    +0.000 OA
BRANCH  25  26
ATOM     26  C   UNL     1       2.894   1.194   0.000  0.00  0.00    +0.000 C 
ATOM     27  O   UNL     1       3.619   1.607   0.000  0.00  0.00    +0.000 OA
ATOM     28  C   UNL     1       2.894   0.369   0.000  0.00  0.00    +0.000 C 
ENDBRANCH  25  26
ENDBRANCH   4  25
TORSDOF 3
