REMARK  Name = 
REMARK  0 active torsions:
REMARK  status: ('A' for Active; 'I' for Inactive)
REMARK                            x       y       z     vdW  Elec       q    Type
REMARK                         _______ _______ _______ _____ _____    ______ ____
ROOT
ATOM      1  I   UNL     1       0.412  -0.002   0.000  0.00  0.00    +0.000 I 
ATOM      2  H   UNL     1      -0.412   0.002   0.000  0.00  0.00    +0.000 HD
ENDROOT
TORSDOF 0
