REMARK  Name = 
REMARK  12 active torsions:
REMARK  status: ('A' for Active; 'I' for Inactive)
REMARK    1  A    between atoms: N_8  and  C_12
REMARK    2  A    between atoms: N_9  and  C_20
REMARK    3  A    between atoms: N_10  and  C_16
REMARK    4  A    between atoms: N_10  and  C_28
REMARK    5  A    between atoms: C_11  and  C_12
REMARK    6  A    between atoms: C_11  and  C_13
REMARK    7  A    between atoms: C_12  and  C_18
REMARK    8  A    between atoms: C_20  and  C_21
REMARK    9  A    between atoms: C_21  and  C_23
REMARK   10  A    between atoms: C_23  and  C_25
REMARK   11  A    between atoms: C_30  and  C_38
REMARK   12  A    between atoms: C_31  and  C_39
REMARK                            x       y       z     vdW  Elec       q    Type
REMARK                         _______ _______ _______ _____ _____    ______ ____
ROOT
ATOM      1  C   UNL     1      -0.825  -0.329   0.000  0.00  0.00    +0.000 A 
ATOM      2  C   UNL     1      -1.237  -1.044   0.000  0.00  0.00    +0.000 A 
ATOM      3  C   UNL     1      -2.062  -1.044   0.000  0.00  0.00    +0.000 A 
ATOM      4  C   UNL     1      -2.475  -0.329   0.000  0.00  0.00    +0.000 A 
ATOM      5  C   UNL     1      -1.237   0.385   0.000  0.00  0.00    +0.000 A 
ATOM      6  C   UNL     1      -2.062   0.385   0.000  0.00  0.00    +0.000 A 
ATOM      7  C   UNL     1      -0.796  -1.781   0.000  0.00  0.00    +0.000 A 
ATOM      8  C   UNL     1      -2.504  -1.781   0.000  0.00  0.00    +0.000 A 
ATOM      9  C   UNL     1      -1.220  -2.529   0.000  0.00  0.00    +0.000 A 
ATOM     10  C   UNL     1      -2.080  -2.529   0.000  0.00  0.00    +0.000 A 
ENDROOT
BRANCH   4  12
ATOM     11  O   UNL     1      -3.300  -1.758   0.000  0.00  0.00    +0.000 OA
ATOM     12  N   UNL     1      -3.300  -0.329   0.000  0.00  0.00    +0.000 N 
ATOM     13  C   UNL     1      -3.712  -1.044   0.000  0.00  0.00    +0.000 C 
BRANCH  12  14
ATOM     14  C   UNL     1      -3.712   0.385   0.000  0.00  0.00    +0.000 A 
ATOM     15  C   UNL     1      -3.300   1.100   0.000  0.00  0.00    +0.000 A 
ATOM     16  C   UNL     1      -4.537   0.385   0.000  0.00  0.00    +0.000 A 
ATOM     17  C   UNL     1      -3.712   1.814   0.000  0.00  0.00    +0.000 A 
ATOM     18  C   UNL     1      -4.950   1.100   0.000  0.00  0.00    +0.000 A 
ATOM     19  C   UNL     1      -4.537   1.814   0.000  0.00  0.00    +0.000 A 
BRANCH  15  22
ATOM     20  O   UNL     1      -2.811   2.442   0.000  0.00  0.00    +0.000 OA
ATOM     21  O   UNL     1      -1.893   1.348   0.000  0.00  0.00    +0.000 OA
ATOM     22  C   UNL     1      -2.668   1.630   0.000  0.00  0.00    +0.000 C 
ENDBRANCH  15  22
ENDBRANCH  12  14
BRANCH  13  25
ATOM     23  O   UNL     1      -4.950  -1.758   0.000  0.00  0.00    +0.000 OA
ATOM     24  O   UNL     1      -4.950  -0.329   0.000  0.00  0.00    +0.000 OA
ATOM     25  C   UNL     1      -4.537  -1.044   0.000  0.00  0.00    +0.000 C 
ENDBRANCH  13  25
ENDBRANCH   4  12
BRANCH   1  26
ATOM     26  C   UNL     1       0.000  -0.329   0.000  0.00  0.00    +0.000 C 
BRANCH  26  27
ATOM     27  C   UNL     1       0.412   0.385   0.000  0.00  0.00    +0.000 C 
BRANCH  27  29
ATOM     28  O   UNL     1       1.237   1.814   0.000  0.00  0.00    +0.000 OA
ATOM     29  N   UNL     1       0.000   1.100   0.000  0.00  0.00    +0.000 N 
ATOM     30  C   UNL     1       0.412   1.814   0.000  0.00  0.00    +0.000 C 
ATOM     31  C   UNL     1       0.000   2.529   0.000  0.00  0.00    +0.000 C 
ATOM     32  H   UNL     1      -0.511   1.100   0.000  0.00  0.00    +0.000 HD
ENDBRANCH  27  29
BRANCH  27  35
ATOM     33  O   UNL     1       1.650   1.100   0.000  0.00  0.00    +0.000 OA
ATOM     34  N   UNL     1       1.650  -0.329   0.000  0.00  0.00    +0.000 N 
ATOM     35  C   UNL     1       1.237   0.385   0.000  0.00  0.00    +0.000 C 
ATOM     36  H   UNL     1       1.394  -0.772   0.000  0.00  0.00    +0.000 HD
BRANCH  34  37
ATOM     37  C   UNL     1       2.475  -0.329   0.000  0.00  0.00    +0.000 C 
BRANCH  37  38
ATOM     38  C   UNL     1       2.888  -1.044   0.000  0.00  0.00    +0.000 C 
BRANCH  38  39
ATOM     39  C   UNL     1       3.712  -1.044   0.000  0.00  0.00    +0.000 C 
BRANCH  39  40
ATOM     40  C   UNL     1       4.125  -1.758   0.000  0.00  0.00    +0.000 C 
ATOM     41  C   UNL     1       4.950  -1.758   0.000  0.00  0.00    +0.000 C 
ENDBRANCH  39  40
ENDBRANCH  38  39
ENDBRANCH  37  38
ENDBRANCH  34  37
ENDBRANCH  27  35
ENDBRANCH  26  27
ENDBRANCH   1  26
TORSDOF 12
