REMARK  Name = 
REMARK  18 active torsions:
REMARK  status: ('A' for Active; 'I' for Inactive)
REMARK    1  A    between atoms: C_2  and  C_18
REMARK    2  A    between atoms: C_2  and  N_30
REMARK    3  A    between atoms: O_3  and  C_4
REMARK    4  A    between atoms: C_6  and  C_19
REMARK    5  A    between atoms: N_8  and  C_19
REMARK    6  A    between atoms: N_9  and  C_21
REMARK    7  A    between atoms: N_10  and  N_30
REMARK    8  A    between atoms: N_11  and  C_20
REMARK    9  A    between atoms: O_13  and  C_14
REMARK   10  A    between atoms: C_16  and  C_20
REMARK   11  A    between atoms: C_18  and  C_21
REMARK   12  A    between atoms: C_19  and  C_45
REMARK   13  A    between atoms: C_20  and  C_44
REMARK   14  A    between atoms: C_21  and  C_23
REMARK   15  A    between atoms: C_23  and  C_24
REMARK   16  A    between atoms: N_30  and  C_31
REMARK   17  A    between atoms: C_31  and  C_32
REMARK   18  A    between atoms: C_37  and  C_38
REMARK                            x       y       z     vdW  Elec       q    Type
REMARK                         _______ _______ _______ _____ _____    ______ ____
ROOT
ATOM      1  N   UNL     1       1.072  -0.631   0.000  0.00  0.00    +0.000 NA
ENDROOT
BRANCH   1   2
ATOM      2  N   UNL     1       1.786  -1.044   0.000  0.00  0.00    +0.000 NA
ATOM      3  C   UNL     1       2.501  -0.631   0.000  0.00  0.00    +0.000 C 
ATOM      4  O   UNL     1       2.501   0.194   0.000  0.00  0.00    +0.000 OA
BRANCH   3   5
ATOM      5  C   UNL     1       3.215  -1.044   0.000  0.00  0.00    +0.000 C 
BRANCH   5   6
ATOM      6  C   UNL     1       3.215  -1.869   0.000  0.00  0.00    +0.000 C 
ATOM      7  C   UNL     1       3.929  -2.281   0.000  0.00  0.00    +0.000 C 
ATOM      8  C   UNL     1       2.501  -2.281   0.000  0.00  0.00    +0.000 C 
ATOM      9  C   UNL     1       3.215  -2.694   0.000  0.00  0.00    +0.000 C 
ENDBRANCH   5   6
BRANCH   5  10
ATOM     10  N   UNL     1       3.930  -0.631   0.000  0.00  0.00    +0.000 NA
ATOM     11  C   UNL     1       4.644  -1.044   0.000  0.00  0.00    +0.000 C 
ATOM     12  O   UNL     1       4.644  -1.869   0.000  0.00  0.00    +0.000 OA
BRANCH  11  14
ATOM     13  C   UNL     1       6.073  -1.044   0.000  0.00  0.00    +0.000 C 
ATOM     14  O   UNL     1       5.358  -0.631   0.000  0.00  0.00    +0.000 OA
ENDBRANCH  11  14
ENDBRANCH   5  10
ENDBRANCH   3   5
ENDBRANCH   1   2
BRANCH   1  15
ATOM     15  C   UNL     1       1.072   0.631   0.000  0.00  0.00    +0.000 C 
BRANCH  15  16
ATOM     16  C   UNL     1       1.786   1.044   0.000  0.00  0.00    +0.000 A 
ATOM     17  C   UNL     1       2.501   2.281   0.000  0.00  0.00    +0.000 A 
ATOM     18  C   UNL     1       1.786   1.869   0.000  0.00  0.00    +0.000 A 
ATOM     19  C   UNL     1       2.501   0.631   0.000  0.00  0.00    +0.000 A 
ATOM     20  C   UNL     1       3.215   1.044   0.000  0.00  0.00    +0.000 A 
ATOM     21  C   UNL     1       3.215   1.869   0.000  0.00  0.00    +0.000 A 
BRANCH  21  22
ATOM     22  C   UNL     1       3.930   2.281   0.000  0.00  0.00    +0.000 A 
ATOM     23  C   UNL     1       4.644   3.519   0.000  0.00  0.00    +0.000 A 
ATOM     24  C   UNL     1       3.930   3.106   0.000  0.00  0.00    +0.000 A 
ATOM     25  C   UNL     1       5.358   2.281   0.000  0.00  0.00    +0.000 A 
ATOM     26  C   UNL     1       5.358   3.106   0.000  0.00  0.00    +0.000 A 
ATOM     27  N   UNL     1       4.644   1.869   0.000  0.00  0.00    +0.000 NA
ENDBRANCH  21  22
ENDBRANCH  15  16
ENDBRANCH   1  15
BRANCH   1  28
ATOM     28  C   UNL     1       0.357  -1.044   0.000  0.00  0.00    +0.000 C 
BRANCH  28  29
ATOM     29  C   UNL     1      -0.357  -0.631   0.000  0.00  0.00    +0.000 C 
ATOM     30  O   UNL     1      -0.357   0.194   0.000  0.00  0.00    +0.000 OA
BRANCH  29  31
ATOM     31  C   UNL     1      -1.072  -1.044   0.000  0.00  0.00    +0.000 C 
BRANCH  31  34
ATOM     32  C   UNL     1      -2.501  -1.044   0.000  0.00  0.00    +0.000 C 
ATOM     33  O   UNL     1      -2.501  -1.869   0.000  0.00  0.00    +0.000 OA
ATOM     34  N   UNL     1      -1.786  -0.631   0.000  0.00  0.00    +0.000 NA
BRANCH  32  35
ATOM     35  C   UNL     1      -3.215  -0.631   0.000  0.00  0.00    +0.000 C 
BRANCH  35  36
ATOM     36  C   UNL     1      -3.215   0.194   0.000  0.00  0.00    +0.000 C 
ATOM     37  C   UNL     1      -2.501   0.606   0.000  0.00  0.00    +0.000 C 
ATOM     38  C   UNL     1      -3.930   0.606   0.000  0.00  0.00    +0.000 C 
ATOM     39  C   UNL     1      -3.215   1.019   0.000  0.00  0.00    +0.000 C 
ENDBRANCH  35  36
BRANCH  35  42
ATOM     40  C   UNL     1      -4.644  -0.631   0.000  0.00  0.00    +0.000 C 
ATOM     41  O   UNL     1      -4.644   0.194   0.000  0.00  0.00    +0.000 OA
ATOM     42  N   UNL     1      -3.930  -1.044   0.000  0.00  0.00    +0.000 NA
BRANCH  40  44
ATOM     43  C   UNL     1      -6.073  -0.631   0.000  0.00  0.00    +0.000 C 
ATOM     44  O   UNL     1      -5.359  -1.044   0.000  0.00  0.00    +0.000 OA
ENDBRANCH  40  44
ENDBRANCH  35  42
ENDBRANCH  32  35
ENDBRANCH  31  34
BRANCH  31  45
ATOM     45  C   UNL     1      -1.072  -1.869   0.000  0.00  0.00    +0.000 C 
BRANCH  45  46
ATOM     46  C   UNL     1      -0.357  -2.281   0.000  0.00  0.00    +0.000 A 
ATOM     47  C   UNL     1       0.357  -1.869   0.000  0.00  0.00    +0.000 A 
ATOM     48  C   UNL     1      -0.357  -3.106   0.000  0.00  0.00    +0.000 A 
ATOM     49  C   UNL     1       0.357  -3.519   0.000  0.00  0.00    +0.000 A 
ATOM     50  C   UNL     1       1.072  -3.106   0.000  0.00  0.00    +0.000 A 
ATOM     51  C   UNL     1       1.072  -2.281   0.000  0.00  0.00    +0.000 A 
ENDBRANCH  45  46
ENDBRANCH  31  45
ENDBRANCH  29  31
ENDBRANCH  28  29
ENDBRANCH   1  28
TORSDOF 18
