REMARK  Name = 
REMARK  2 active torsions:
REMARK  status: ('A' for Active; 'I' for Inactive)
REMARK    1  A    between atoms: C_6  and  C_7
REMARK    2  A    between atoms: C_8  and  C_9
REMARK                            x       y       z     vdW  Elec       q    Type
REMARK                         _______ _______ _______ _____ _____    ______ ____
ROOT
ATOM      1  C   UNL     1      -1.429  -0.825   0.000  0.00  0.00    +0.000 A 
ATOM      2  C   UNL     1      -0.714  -0.412   0.000  0.00  0.00    +0.000 A 
ATOM      3  C   UNL     1      -2.143  -0.412   0.000  0.00  0.00    +0.000 A 
ATOM      4  C   UNL     1      -2.143   0.412   0.000  0.00  0.00    +0.000 A 
ATOM      5  C   UNL     1      -1.429   0.825   0.000  0.00  0.00    +0.000 A 
ATOM      6  C   UNL     1      -0.714   0.412   0.000  0.00  0.00    +0.000 A 
ENDROOT
BRANCH   6   7
ATOM      7  C   UNL     1       0.000   0.825   0.000  0.00  0.00    +0.000 C 
ATOM      8  C   UNL     1       0.714   0.412   0.000  0.00  0.00    +0.000 C 
BRANCH   8   9
ATOM      9  C   UNL     1       1.429   0.825   0.000  0.00  0.00    +0.000 C 
ATOM     10  O   UNL     1       2.143   0.412   0.000  0.00  0.00    +0.000 OA
ENDBRANCH   8   9
ENDBRANCH   6   7
TORSDOF 2
