REMARK  Name = 
REMARK  23 active torsions:
REMARK  status: ('A' for Active; 'I' for Inactive)
REMARK    1  A    between atoms: P_2  and  C_44
REMARK    2  A    between atoms: P_3  and  C_56
REMARK    3  A    between atoms: N_21  and  C_26
REMARK    4  A    between atoms: N_22  and  C_30
REMARK    5  A    between atoms: N_23  and  C_34
REMARK    6  A    between atoms: N_24  and  C_47
REMARK    7  A    between atoms: C_26  and  C_27
REMARK    8  A    between atoms: C_26  and  C_31
REMARK    9  A    between atoms: C_27  and  C_33
REMARK   10  A    between atoms: C_28  and  C_29
REMARK   11  A    between atoms: C_28  and  C_30
REMARK   12  A    between atoms: C_29  and  C_32
REMARK   13  A    between atoms: C_32  and  C_36
REMARK   14  A    between atoms: C_34  and  C_35
REMARK   15  A    between atoms: C_34  and  C_37
REMARK   16  A    between atoms: C_36  and  C_43
REMARK   17  A    between atoms: C_37  and  C_48
REMARK   18  A    between atoms: C_40  and  C_44
REMARK   19  A    between atoms: C_45  and  C_46
REMARK   20  A    between atoms: C_46  and  C_49
REMARK   21  A    between atoms: C_47  and  C_53
REMARK   22  A    between atoms: C_47  and  C_57
REMARK   23  A    between atoms: C_50  and  C_56
REMARK                            x       y       z     vdW  Elec       q    Type
REMARK                         _______ _______ _______ _____ _____    ______ ____
ROOT
ATOM      1  C   UNL     1       3.079   1.650   0.000  0.00  0.00    +0.000 C 
ENDROOT
BRANCH   1   4
ATOM      2  O   UNL     1       2.365   2.888   0.000  0.00  0.00    +0.000 OA
ATOM      3  N   UNL     1       1.650   1.650   0.000  0.00  0.00    +0.000 NA
ATOM      4  C   UNL     1       2.365   2.062   0.000  0.00  0.00    +0.000 C 
BRANCH   3   5
ATOM      5  C   UNL     1       0.936   2.062   0.000  0.00  0.00    +0.000 C 
BRANCH   5   6
ATOM      6  C   UNL     1       0.221   1.650   0.000  0.00  0.00    +0.000 C 
BRANCH   6   7
ATOM      7  C   UNL     1      -0.493   2.062   0.000  0.00  0.00    +0.000 C 
BRANCH   7   8
ATOM      8  C   UNL     1      -1.207   1.650   0.000  0.00  0.00    +0.000 C 
BRANCH   8   9
ATOM      9  C   UNL     1      -1.922   2.062   0.000  0.00  0.00    +0.000 C 
BRANCH   9  12
ATOM     10  O   UNL     1      -2.636   0.825   0.000  0.00  0.00    +0.000 OA
ATOM     11  N   UNL     1      -3.351   2.062   0.000  0.00  0.00    +0.000 NA
ATOM     12  C   UNL     1      -2.636   1.650   0.000  0.00  0.00    +0.000 C 
BRANCH  11  13
ATOM     13  C   UNL     1      -4.065   1.650   0.000  0.00  0.00    +0.000 C 
BRANCH  13  16
ATOM     14  O   UNL     1      -4.780   2.888   0.000  0.00  0.00    +0.000 OA
ATOM     15  N   UNL     1      -5.494   1.650   0.000  0.00  0.00    +0.000 NA
ATOM     16  C   UNL     1      -4.780   2.062   0.000  0.00  0.00    +0.000 C 
ENDBRANCH  13  16
BRANCH  13  18
ATOM     17  S   UNL     1      -4.780   0.412   0.000  0.00  0.00    +0.000 S 
ATOM     18  C   UNL     1      -4.065   0.825   0.000  0.00  0.00    +0.000 C 
ENDBRANCH  13  18
ENDBRANCH  11  13
ENDBRANCH   9  12
ENDBRANCH   8   9
ENDBRANCH   7   8
ENDBRANCH   6   7
ENDBRANCH   5   6
ENDBRANCH   3   5
ENDBRANCH   1   4
BRANCH   1  20
ATOM     19  O   UNL     1       4.508   0.825   0.000  0.00  0.00    +0.000 OA
ATOM     20  N   UNL     1       3.079   0.825   0.000  0.00  0.00    +0.000 NA
ATOM     21  C   UNL     1       3.794   0.412   0.000  0.00  0.00    +0.000 C 
BRANCH  21  22
ATOM     22  C   UNL     1       3.794  -0.412   0.000  0.00  0.00    +0.000 C 
BRANCH  22  24
ATOM     23  O   UNL     1       3.794  -2.062   0.000  0.00  0.00    +0.000 OA
ATOM     24  N   UNL     1       3.079  -0.825   0.000  0.00  0.00    +0.000 NA
ATOM     25  C   UNL     1       3.079  -1.650   0.000  0.00  0.00    +0.000 C 
BRANCH  25  26
ATOM     26  C   UNL     1       2.365  -2.062   0.000  0.00  0.00    +0.000 C 
BRANCH  26  27
ATOM     27  C   UNL     1       2.365  -2.888   0.000  0.00  0.00    +0.000 A 
ATOM     28  C   UNL     1       2.365  -4.537   0.000  0.00  0.00    +0.000 A 
ATOM     29  C   UNL     1       3.079  -3.300   0.000  0.00  0.00    +0.000 A 
ATOM     30  C   UNL     1       1.650  -3.300   0.000  0.00  0.00    +0.000 A 
ATOM     31  C   UNL     1       3.079  -4.125   0.000  0.00  0.00    +0.000 A 
ATOM     32  C   UNL     1       1.650  -4.125   0.000  0.00  0.00    +0.000 A 
BRANCH  28  35
ATOM     33  F   UNL     1       1.540  -5.363   0.000  0.00  0.00    +0.000 F 
ATOM     34  F   UNL     1       3.190  -5.363   0.000  0.00  0.00    +0.000 F 
ATOM     35  C   UNL     1       2.365  -5.363   0.000  0.00  0.00    +0.000 C 
BRANCH  35  36
ATOM     36  P   UNL     1       2.365  -6.188   0.000  0.00  0.00    +0.000 P 
ATOM     37  O   UNL     1       2.365  -7.013   0.000  0.00  0.00    +0.000 OA
ATOM     38  O   UNL     1       1.540  -6.188   0.000  0.00  0.00    +0.000 OA
ATOM     39  O   UNL     1       3.190  -6.188   0.000  0.00  0.00    +0.000 OA
ENDBRANCH  35  36
ENDBRANCH  28  35
ENDBRANCH  26  27
ENDBRANCH  25  26
ENDBRANCH  22  24
BRANCH  22  40
ATOM     40  C   UNL     1       4.508  -0.825   0.000  0.00  0.00    +0.000 C 
BRANCH  40  43
ATOM     41  O   UNL     1       5.937  -0.825   0.000  0.00  0.00    +0.000 OA
ATOM     42  O   UNL     1       5.223   0.412   0.000  0.00  0.00    +0.000 OA
ATOM     43  C   UNL     1       5.223  -0.412   0.000  0.00  0.00    +0.000 C 
ENDBRANCH  40  43
ENDBRANCH  22  40
ENDBRANCH  21  22
ENDBRANCH   1  20
BRANCH   1  44
ATOM     44  C   UNL     1       3.794   2.062   0.000  0.00  0.00    +0.000 C 
BRANCH  44  45
ATOM     45  C   UNL     1       3.794   2.888   0.000  0.00  0.00    +0.000 A 
ATOM     46  C   UNL     1       3.079   3.300   0.000  0.00  0.00    +0.000 A 
ATOM     47  C   UNL     1       4.508   3.300   0.000  0.00  0.00    +0.000 A 
ATOM     48  C   UNL     1       3.794   4.537   0.000  0.00  0.00    +0.000 A 
ATOM     49  C   UNL     1       3.079   4.125   0.000  0.00  0.00    +0.000 A 
ATOM     50  C   UNL     1       4.508   4.125   0.000  0.00  0.00    +0.000 A 
BRANCH  48  53
ATOM     51  F   UNL     1       4.619   5.363   0.000  0.00  0.00    +0.000 F 
ATOM     52  F   UNL     1       2.969   5.363   0.000  0.00  0.00    +0.000 F 
ATOM     53  C   UNL     1       3.794   5.363   0.000  0.00  0.00    +0.000 C 
BRANCH  53  54
ATOM     54  P   UNL     1       3.794   6.188   0.000  0.00  0.00    +0.000 P 
ATOM     55  O   UNL     1       3.794   7.013   0.000  0.00  0.00    +0.000 OA
ATOM     56  O   UNL     1       4.619   6.188   0.000  0.00  0.00    +0.000 OA
ATOM     57  O   UNL     1       2.969   6.188   0.000  0.00  0.00    +0.000 OA
ENDBRANCH  53  54
ENDBRANCH  48  53
ENDBRANCH  44  45
ENDBRANCH   1  44
TORSDOF 23
