REMARK  Name = 
REMARK  5 active torsions:
REMARK  status: ('A' for Active; 'I' for Inactive)
REMARK    1  A    between atoms: C_4  and  C_10
REMARK    2  A    between atoms: N_5  and  C_7
REMARK    3  A    between atoms: C_18  and  C_24
REMARK    4  A    between atoms: N_27  and  C_29
REMARK    5  A    between atoms: C_29  and  C_32
REMARK                            x       y       z     vdW  Elec       q    Type
REMARK                         _______ _______ _______ _____ _____    ______ ____
ROOT
ATOM      1  C   UNL     1       2.752   1.182   0.000  0.00  0.00    +0.000 A 
ATOM      2  C   UNL     1       2.821   2.004   0.000  0.00  0.00    +0.000 A 
ATOM      3  N   UNL     1       2.061   2.324   0.000  0.00  0.00    +0.000 N 
ATOM      4  C   UNL     1       1.521   1.700   0.000  0.00  0.00    +0.000 A 
ATOM      5  N   UNL     1       1.949   0.994   0.000  0.00  0.00    +0.000 NA
ATOM      6  C   UNL     1       0.697   1.732   0.000  0.00  0.00    +0.000 A 
ATOM      7  C   UNL     1       0.366   0.976   0.000  0.00  0.00    +0.000 A 
ATOM      8  C   UNL     1      -0.454   0.885   0.000  0.00  0.00    +0.000 A 
ATOM      9  C   UNL     1      -0.943   1.550   0.000  0.00  0.00    +0.000 A 
ATOM     10  C   UNL     1      -0.612   2.305   0.000  0.00  0.00    +0.000 A 
ATOM     11  C   UNL     1       0.208   2.396   0.000  0.00  0.00    +0.000 A 
ATOM     12  O   UNL     1       0.423   3.193   0.000  0.00  0.00    +0.000 OA
ATOM     13  C   UNL     1       1.180   3.522   0.000  0.00  0.00    +0.000 C 
ATOM     14  C   UNL     1       1.909   3.135   0.000  0.00  0.00    +0.000 C 
ENDROOT
BRANCH   1  18
ATOM     15  C   UNL     1       4.256  -1.302   0.000  0.00  0.00    +0.000 C 
ATOM     16  C   UNL     1       4.068  -0.499   0.000  0.00  0.00    +0.000 A 
ATOM     17  N   UNL     1       3.307  -0.179   0.000  0.00  0.00    +0.000 NA
ATOM     18  C   UNL     1       3.376   0.643   0.000  0.00  0.00    +0.000 A 
ATOM     19  N   UNL     1       4.179   0.831   0.000  0.00  0.00    +0.000 N 
ATOM     20  N   UNL     1       4.607   0.126   0.000  0.00  0.00    +0.000 NA
BRANCH  19  21
ATOM     21  C   UNL     1       4.499   1.592   0.000  0.00  0.00    +0.000 C 
ATOM     22  C   UNL     1       5.318   1.695   0.000  0.00  0.00    +0.000 C 
ATOM     23  C   UNL     1       4.001   2.249   0.000  0.00  0.00    +0.000 C 
ENDBRANCH  19  21
ENDBRANCH   1  18
BRANCH   9  24
ATOM     24  C   UNL     1      -1.763   1.459   0.000  0.00  0.00    +0.000 A 
ATOM     25  C   UNL     1      -2.171   0.742   0.000  0.00  0.00    +0.000 A 
ATOM     26  N   UNL     1      -2.979   0.909   0.000  0.00  0.00    +0.000 NA
ATOM     27  N   UNL     1      -3.070   1.729   0.000  0.00  0.00    +0.000 N 
ATOM     28  C   UNL     1      -2.318   2.069   0.000  0.00  0.00    +0.000 A 
BRANCH  27  29
ATOM     29  C   UNL     1      -3.787   2.137   0.000  0.00  0.00    +0.000 C 
ATOM     30  C   UNL     1      -3.379   2.854   0.000  0.00  0.00    +0.000 C 
ATOM     31  C   UNL     1      -4.195   1.420   0.000  0.00  0.00    +0.000 C 
BRANCH  29  32
ATOM     32  C   UNL     1      -4.504   2.545   0.000  0.00  0.00    +0.000 C 
ATOM     33  O   UNL     1      -5.216   2.129   0.000  0.00  0.00    +0.000 OA
ATOM     34  N   UNL     1      -4.509   3.370   0.000  0.00  0.00    +0.000 NA
ENDBRANCH  29  32
ENDBRANCH  27  29
ENDBRANCH   9  24
TORSDOF 5
