REMARK  Name = 
REMARK  9 active torsions:
REMARK  status: ('A' for Active; 'I' for Inactive)
REMARK    1  A    between atoms: C_3  and  C_10
REMARK    2  A    between atoms: C_5  and  C_7
REMARK    3  A    between atoms: N_17  and  C_18
REMARK    4  A    between atoms: C_18  and  C_19
REMARK    5  A    between atoms: C_19  and  N_20
REMARK    6  A    between atoms: N_20  and  C_21
REMARK    7  A    between atoms: C_21  and  C_22
REMARK    8  A    between atoms: C_28  and  C_30
REMARK    9  A    between atoms: C_30  and  C_31
REMARK                            x       y       z     vdW  Elec       q    Type
REMARK                         _______ _______ _______ _____ _____    ______ ____
ROOT
ATOM      1  C   UNL     1       1.364  -0.851   0.000  0.00  0.00    +0.000 C 
ATOM      2  C   UNL     1       2.187  -0.912   0.000  0.00  0.00    +0.000 C 
ATOM      3  C   UNL     1       2.748  -0.308   0.000  0.00  0.00    +0.000 C 
ATOM      4  C   UNL     1       2.625   0.508   0.000  0.00  0.00    +0.000 C 
ATOM      5  C   UNL     1       1.910   0.921   0.000  0.00  0.00    +0.000 C 
ATOM      6  C   UNL     1       1.142   0.619   0.000  0.00  0.00    +0.000 C 
ATOM      7  C   UNL     1       0.899  -0.169   0.000  0.00  0.00    +0.000 C 
ATOM      8  N   UNL     1       2.061   0.356   0.000  0.00  0.00    +0.000 NA
ENDROOT
BRANCH   1  11
ATOM      9  C   UNL     1      -0.286  -2.280   0.000  0.00  0.00    +0.000 A 
ATOM     10  C   UNL     1       0.126  -1.565   0.000  0.00  0.00    +0.000 A 
ATOM     11  C   UNL     1       0.951  -1.565   0.000  0.00  0.00    +0.000 A 
ATOM     12  C   UNL     1       1.364  -2.280   0.000  0.00  0.00    +0.000 A 
ATOM     13  C   UNL     1       0.951  -2.994   0.000  0.00  0.00    +0.000 A 
ATOM     14  C   UNL     1       0.126  -2.994   0.000  0.00  0.00    +0.000 A 
BRANCH  13  15
ATOM     15  C   UNL     1       1.364  -3.709   0.000  0.00  0.00    +0.000 C 
ATOM     16  O   UNL     1       0.951  -4.423   0.000  0.00  0.00    +0.000 OA
ATOM     17  N   UNL     1       2.189  -3.709   0.000  0.00  0.00    +0.000 NA
ENDBRANCH  13  15
ENDBRANCH   1  11
BRANCH   8  18
ATOM     18  C   UNL     1       2.473   1.071   0.000  0.00  0.00    +0.000 C 
BRANCH  18  19
ATOM     19  C   UNL     1       2.061   1.786   0.000  0.00  0.00    +0.000 C 
BRANCH  19  20
ATOM     20  N   UNL     1       2.473   2.500   0.000  0.00  0.00    +0.000 N 
ATOM     21  C   UNL     1       3.298   2.500   0.000  0.00  0.00    +0.000 C 
ATOM     22  O   UNL     1       3.711   3.214   0.000  0.00  0.00    +0.000 OA
BRANCH  21  23
ATOM     23  C   UNL     1       3.711   1.786   0.000  0.00  0.00    +0.000 C 
ATOM     24  O   UNL     1       3.298   1.071   0.000  0.00  0.00    +0.000 OA
BRANCH  23  25
ATOM     25  C   UNL     1       4.536   1.786   0.000  0.00  0.00    +0.000 C 
ATOM     26  O   UNL     1       4.948   1.071   0.000  0.00  0.00    +0.000 OA
ENDBRANCH  23  25
ENDBRANCH  21  23
BRANCH  20  27
ATOM     27  C   UNL     1       2.061   3.214   0.000  0.00  0.00    +0.000 C 
BRANCH  27  28
ATOM     28  C   UNL     1       2.473   3.929   0.000  0.00  0.00    +0.000 C 
ATOM     29  C   UNL     1       2.061   4.643   0.000  0.00  0.00    +0.000 C 
ATOM     30  C   UNL     1       2.473   5.358   0.000  0.00  0.00    +0.000 C 
ATOM     31  C   UNL     1       3.298   5.358   0.000  0.00  0.00    +0.000 C 
ATOM     32  C   UNL     1       3.711   4.643   0.000  0.00  0.00    +0.000 C 
ATOM     33  C   UNL     1       3.298   3.929   0.000  0.00  0.00    +0.000 C 
ENDBRANCH  27  28
ENDBRANCH  20  27
ENDBRANCH  19  20
ENDBRANCH  18  19
ENDBRANCH   8  18
TORSDOF 9
