REMARK  Name = 
REMARK  9 active torsions:
REMARK  status: ('A' for Active; 'I' for Inactive)
REMARK    1  A    between atoms: C_2  and  C_4
REMARK    2  A    between atoms: C_5  and  C_6
REMARK    3  A    between atoms: C_6  and  C_7
REMARK    4  A    between atoms: C_7  and  C_8
REMARK    5  A    between atoms: C_13  and  O_14
REMARK    6  A    between atoms: O_14  and  C_15
REMARK    7  A    between atoms: C_15  and  C_16
REMARK    8  A    between atoms: C_24  and  C_26
REMARK    9  A    between atoms: C_29  and  C_32
REMARK                            x       y       z     vdW  Elec       q    Type
REMARK                         _______ _______ _______ _____ _____    ______ ____
ROOT
ATOM      1  C   UNL     1      -1.296  -1.795   0.000  0.00  0.00    +0.000 A 
ATOM      2  C   UNL     1      -0.475  -1.708   0.000  0.00  0.00    +0.000 A 
ATOM      3  S   UNL     1      -0.304  -0.901   0.000  0.00  0.00    +0.000 S 
ATOM      4  C   UNL     1      -1.018  -0.489   0.000  0.00  0.00    +0.000 A 
ATOM      5  N   UNL     1      -1.631  -1.041   0.000  0.00  0.00    +0.000 NA
ENDROOT
BRANCH   4   6
ATOM      6  C   UNL     1      -1.104   0.332   0.000  0.00  0.00    +0.000 A 
ATOM      7  C   UNL     1      -1.858   0.667   0.000  0.00  0.00    +0.000 A 
ATOM      8  C   UNL     1      -1.944   1.488   0.000  0.00  0.00    +0.000 A 
ATOM      9  C   UNL     1      -1.277   1.972   0.000  0.00  0.00    +0.000 A 
ATOM     10  C   UNL     1      -0.523   1.637   0.000  0.00  0.00    +0.000 A 
ATOM     11  C   UNL     1      -0.437   0.816   0.000  0.00  0.00    +0.000 A 
BRANCH   9  12
ATOM     12  C   UNL     1      -1.363   2.793   0.000  0.00  0.00    +0.000 C 
ATOM     13  F   UNL     1      -1.449   3.613   0.000  0.00  0.00    +0.000 F 
ATOM     14  F   UNL     1      -0.543   2.879   0.000  0.00  0.00    +0.000 F 
ATOM     15  F   UNL     1      -2.184   2.707   0.000  0.00  0.00    +0.000 F 
ENDBRANCH   9  12
ENDBRANCH   4   6
BRANCH   1  17
ATOM     16  C   UNL     1      -1.296  -3.224   0.000  0.00  0.00    +0.000 C 
ATOM     17  C   UNL     1      -1.708  -2.509   0.000  0.00  0.00    +0.000 C 
ATOM     18  C   UNL     1      -2.533  -2.509   0.000  0.00  0.00    +0.000 C 
ENDBRANCH   1  17
BRANCH   2  19
ATOM     19  C   UNL     1       0.077  -2.321   0.000  0.00  0.00    +0.000 C 
BRANCH  19  20
ATOM     20  C   UNL     1       0.884  -2.150   0.000  0.00  0.00    +0.000 C 
BRANCH  20  21
ATOM     21  C   UNL     1       1.139  -1.365   0.000  0.00  0.00    +0.000 A 
ATOM     22  N   UNL     1       0.654  -0.698   0.000  0.00  0.00    +0.000 NA
ATOM     23  O   UNL     1       1.139  -0.030   0.000  0.00  0.00    +0.000 OA
ATOM     24  C   UNL     1       1.923  -0.285   0.000  0.00  0.00    +0.000 A 
ATOM     25  C   UNL     1       2.638   0.127   0.000  0.00  0.00    +0.000 A 
ATOM     26  C   UNL     1       3.352  -0.285   0.000  0.00  0.00    +0.000 A 
ATOM     27  C   UNL     1       3.352  -1.110   0.000  0.00  0.00    +0.000 A 
ATOM     28  C   UNL     1       4.067  -1.523   0.000  0.00  0.00    +0.000 C 
ATOM     29  C   UNL     1       2.638  -1.523   0.000  0.00  0.00    +0.000 A 
ATOM     30  C   UNL     1       1.923  -1.110   0.000  0.00  0.00    +0.000 A 
BRANCH  26  31
ATOM     31  O   UNL     1       4.067   0.127   0.000  0.00  0.00    +0.000 OA
BRANCH  31  32
ATOM     32  C   UNL     1       4.781  -0.285   0.000  0.00  0.00    +0.000 C 
BRANCH  32  33
ATOM     33  C   UNL     1       5.496   0.127   0.000  0.00  0.00    +0.000 C 
ATOM     34  O   UNL     1       6.210  -0.285   0.000  0.00  0.00    +0.000 OA
ATOM     35  O   UNL     1       5.496   0.952   0.000  0.00  0.00    +0.000 OA
ENDBRANCH  32  33
ENDBRANCH  31  32
ENDBRANCH  26  31
ENDBRANCH  20  21
ENDBRANCH  19  20
ENDBRANCH   2  19
TORSDOF 9
