REMARK  Name = 
REMARK  10 active torsions:
REMARK  status: ('A' for Active; 'I' for Inactive)
REMARK    1  A    between atoms: C_1  and  C_41
REMARK    2  A    between atoms: C_19  and  C_20
REMARK    3  A    between atoms: C_21  and  C_22
REMARK    4  A    between atoms: C_24  and  C_25
REMARK    5  A    between atoms: C_26  and  C_27
REMARK    6  A    between atoms: C_29  and  C_30
REMARK    7  A    between atoms: C_31  and  C_32
REMARK    8  A    between atoms: C_33  and  C_35
REMARK    9  A    between atoms: C_36  and  C_37
REMARK   10  A    between atoms: C_38  and  C_40
REMARK                            x       y       z     vdW  Elec       q    Type
REMARK                         _______ _______ _______ _____ _____    ______ ____
ROOT
ATOM      1  C   UNL     1       0.086   0.207   0.000  0.00  0.00    +0.000 C 
ATOM      2  C   UNL     1       0.795  -0.206   0.000  0.00  0.00    +0.000 C 
ENDROOT
BRANCH   1   5
ATOM      3  C   UNL     1      -1.341   0.209   0.000  0.00  0.00    +0.000 C 
ATOM      4  C   UNL     1      -1.338   1.034   0.000  0.00  0.00    +0.000 C 
ATOM      5  C   UNL     1      -0.632  -0.204   0.000  0.00  0.00    +0.000 C 
BRANCH   3   7
ATOM      6  C   UNL     1      -2.776   0.210   0.000  0.00  0.00    +0.000 C 
ATOM      7  C   UNL     1      -2.059  -0.203   0.000  0.00  0.00    +0.000 C 
BRANCH   6  10
ATOM      8  C   UNL     1      -4.204   0.212   0.000  0.00  0.00    +0.000 C 
ATOM      9  C   UNL     1      -4.205   1.037   0.000  0.00  0.00    +0.000 C 
ATOM     10  C   UNL     1      -3.486  -0.201   0.000  0.00  0.00    +0.000 C 
BRANCH   8  12
ATOM     11  C   UNL     1      -5.631   0.213   0.000  0.00  0.00    +0.000 C 
ATOM     12  C   UNL     1      -4.913  -0.200   0.000  0.00  0.00    +0.000 C 
BRANCH  11  22
ATOM     13  C   UNL     1      -7.740   0.718   0.000  0.00  0.00    +0.000 C 
ATOM     14  C   UNL     1      -7.060   0.211   0.000  0.00  0.00    +0.000 C 
ATOM     15  C   UNL     1      -6.377   0.721   0.000  0.00  0.00    +0.000 C 
ATOM     16  C   UNL     1      -7.776  -0.206   0.000  0.00  0.00    +0.000 C 
ATOM     17  C   UNL     1      -7.771  -1.026   0.000  0.00  0.00    +0.000 C 
ATOM     18  O   UNL     1      -8.484  -1.441   0.000  0.00  0.00    +0.000 OA
ATOM     19  C   UNL     1      -7.056  -1.437   0.000  0.00  0.00    +0.000 C 
ATOM     20  C   UNL     1      -6.345  -1.028   0.000  0.00  0.00    +0.000 C 
ATOM     21  C   UNL     1      -5.631  -1.441   0.000  0.00  0.00    +0.000 C 
ATOM     22  C   UNL     1      -6.345  -0.200   0.000  0.00  0.00    +0.000 C 
ENDBRANCH  11  22
ENDBRANCH   8  12
ENDBRANCH   6  10
ENDBRANCH   3   7
ENDBRANCH   1   5
BRANCH   2  23
ATOM     23  C   UNL     1       1.514   0.206   0.000  0.00  0.00    +0.000 C 
ATOM     24  C   UNL     1       2.231  -0.207   0.000  0.00  0.00    +0.000 C 
ATOM     25  C   UNL     1       2.232  -1.032   0.000  0.00  0.00    +0.000 C 
BRANCH  24  26
ATOM     26  C   UNL     1       2.941   0.205   0.000  0.00  0.00    +0.000 C 
ATOM     27  C   UNL     1       3.658  -0.208   0.000  0.00  0.00    +0.000 C 
BRANCH  27  28
ATOM     28  C   UNL     1       4.368   0.203   0.000  0.00  0.00    +0.000 C 
ATOM     29  C   UNL     1       5.085  -0.210   0.000  0.00  0.00    +0.000 C 
ATOM     30  C   UNL     1       5.086  -0.705   0.000  0.00  0.00    +0.000 C 
BRANCH  29  31
ATOM     31  C   UNL     1       5.800   0.203   0.000  0.00  0.00    +0.000 C 
ATOM     32  C   UNL     1       6.422  -0.184   0.000  0.00  0.00    +0.000 C 
BRANCH  32  33
ATOM     33  C   UNL     1       7.054   0.185   0.000  0.00  0.00    +0.000 C 
ATOM     34  C   UNL     1       7.057   1.013   0.000  0.00  0.00    +0.000 C 
ATOM     35  C   UNL     1       6.347   1.441   0.000  0.00  0.00    +0.000 C 
ATOM     36  C   UNL     1       7.769   1.421   0.000  0.00  0.00    +0.000 C 
ATOM     37  C   UNL     1       8.483   1.007   0.000  0.00  0.00    +0.000 C 
ATOM     38  C   UNL     1       8.484   0.186   0.000  0.00  0.00    +0.000 C 
ATOM     39  C   UNL     1       7.768  -0.228   0.000  0.00  0.00    +0.000 C 
ATOM     40  C   UNL     1       7.041  -0.646   0.000  0.00  0.00    +0.000 C 
ATOM     41  C   UNL     1       8.480  -0.726   0.000  0.00  0.00    +0.000 C 
ENDBRANCH  32  33
ENDBRANCH  29  31
ENDBRANCH  27  28
ENDBRANCH  24  26
ENDBRANCH   2  23
TORSDOF 10
