REMARK  Name = 
REMARK  2 active torsions:
REMARK  status: ('A' for Active; 'I' for Inactive)
REMARK    1  A    between atoms: C_11  and  S_12
REMARK    2  A    between atoms: S_12  and  N_15
REMARK                            x       y       z     vdW  Elec       q    Type
REMARK                         _______ _______ _______ _____ _____    ______ ____
ROOT
ATOM      1  O   UNL     1      -0.825   2.968   0.000  0.00  0.00    +0.000 OA
ATOM      2  C   UNL     1      -0.825   2.143   0.000  0.00  0.00    +0.000 A 
ATOM      3  N   UNL     1      -1.537   1.727   0.000  0.00  0.00    +0.000 NA
ATOM      4  C   UNL     1      -1.537   0.902   0.000  0.00  0.00    +0.000 A 
ATOM      5  C   UNL     1      -0.825   0.493   0.000  0.00  0.00    +0.000 A 
ATOM      6  C   UNL     1      -0.107   0.902   0.000  0.00  0.00    +0.000 A 
ATOM      7  C   UNL     1      -0.107   1.727   0.000  0.00  0.00    +0.000 A 
ATOM      8  C   UNL     1       0.605   2.143   0.000  0.00  0.00    +0.000 A 
ATOM      9  C   UNL     1       1.323   1.727   0.000  0.00  0.00    +0.000 A 
ATOM     10  C   UNL     1       1.323   0.902   0.000  0.00  0.00    +0.000 A 
ATOM     11  C   UNL     1       0.605   0.493   0.000  0.00  0.00    +0.000 A 
ENDROOT
BRANCH  11  12
ATOM     12  S   UNL     1       0.605  -0.332   0.000  0.00  0.00    +0.000 S 
ATOM     13  O   UNL     1      -0.220  -0.332   0.000  0.00  0.00    +0.000 OA
ATOM     14  O   UNL     1       1.430  -0.332   0.000  0.00  0.00    +0.000 OA
BRANCH  12  15
ATOM     15  N   UNL     1       0.605  -1.157   0.000  0.00  0.00    +0.000 NA
ATOM     16  C   UNL     1      -0.137  -1.519   0.000  0.00  0.00    +0.000 C 
ATOM     17  C   UNL     1      -0.320  -2.321   0.000  0.00  0.00    +0.000 C 
ATOM     18  N   UNL     1       0.196  -2.968   0.000  0.00  0.00    +0.000 NA
ATOM     19  C   UNL     1       1.021  -2.968   0.000  0.00  0.00    +0.000 C 
ATOM     20  C   UNL     1       1.537  -2.321   0.000  0.00  0.00    +0.000 C 
ATOM     21  C   UNL     1       1.353  -1.519   0.000  0.00  0.00    +0.000 C 
ENDBRANCH  12  15
ENDBRANCH  11  12
TORSDOF 2
