REMARK  Name = 
REMARK  6 active torsions:
REMARK  status: ('A' for Active; 'I' for Inactive)
REMARK    1  A    between atoms: CA_3  and  C_15
REMARK    2  A    between atoms: C_4  and  C_14
REMARK    3  A    between atoms: CA_7  and  N_9
REMARK    4  A    between atoms: C_10  and  C_13
REMARK    5  A    between atoms: C_13  and  C_18
REMARK    6  A    between atoms: C_14  and  N_20
REMARK                            x       y       z     vdW  Elec       q    Type
REMARK                         _______ _______ _______ _____ _____    ______ ____
ROOT
ATOM      1  C   UNL     1       0.364   0.827   0.000  0.00  0.00    +0.000 C 
ATOM      2  N   UNL     1       0.364   0.002   0.000  0.00  0.00    +0.000 N 
ATOM      3  CA  UNL     1       1.078  -0.410   0.000  0.00  0.00    +0.000 C 
ATOM      4  C   UNL     1       1.792   0.002   0.000  0.00  0.00    +0.000 C 
ATOM      5  C   UNL     1       1.792   0.827   0.000  0.00  0.00    +0.000 C 
ATOM      6  S   UNL     1       1.078   1.239   0.000  0.00  0.00    +0.000 S 
ATOM      7  CA  UNL     1      -0.461   0.827   0.000  0.00  0.00    +0.000 C 
ATOM      8  C   UNL     1      -0.461   0.002   0.000  0.00  0.00    +0.000 C 
ATOM      9  O   UNL     1      -1.175  -0.410   0.000  0.00  0.00    +0.000 OA
ENDROOT
BRANCH   7  10
ATOM     10  N   UNL     1      -1.175   1.239   0.000  0.00  0.00    +0.000 NA
ATOM     11  C   UNL     1      -1.889   0.827   0.000  0.00  0.00    +0.000 C 
ATOM     12  O   UNL     1      -1.889   0.002   0.000  0.00  0.00    +0.000 OA
BRANCH  11  13
ATOM     13  C   UNL     1      -2.603   1.239   0.000  0.00  0.00    +0.000 C 
BRANCH  13  14
ATOM     14  C   UNL     1      -3.328   0.820   0.000  0.00  0.00    +0.000 A 
ATOM     15  S   UNL     1      -3.990   1.311   0.000  0.00  0.00    +0.000 S 
ATOM     16  C   UNL     1      -4.663   0.832   0.000  0.00  0.00    +0.000 A 
ATOM     17  C   UNL     1      -4.415   0.045   0.000  0.00  0.00    +0.000 A 
ATOM     18  C   UNL     1      -3.590   0.037   0.000  0.00  0.00    +0.000 A 
ENDBRANCH  13  14
ENDBRANCH  11  13
ENDBRANCH   7  10
BRANCH   3  19
ATOM     19  C   UNL     1       1.078  -1.234   0.000  0.00  0.00    +0.000 C 
ATOM     20  O   UNL     1       0.354  -1.652   0.000  0.00  0.00    +0.000 OA
ATOM     21  OXT UNL     1       1.782  -1.641   0.000  0.00  0.00    +0.000 OA
ENDBRANCH   3  19
BRANCH   4  22
ATOM     22  C   UNL     1       2.517  -0.416   0.000  0.00  0.00    +0.000 C 
BRANCH  22  23
ATOM     23  N   UNL     1       3.234  -0.003   0.000  0.00  0.00    +0.000 N 
ATOM     24  C   UNL     1       3.948  -0.415   0.000  0.00  0.00    +0.000 A 
ATOM     25  C   UNL     1       4.663  -0.003   0.000  0.00  0.00    +0.000 A 
ATOM     26  C   UNL     1       4.663   0.823   0.000  0.00  0.00    +0.000 A 
ATOM     27  C   UNL     1       3.948   1.235   0.000  0.00  0.00    +0.000 A 
ATOM     28  C   UNL     1       3.234   0.823   0.000  0.00  0.00    +0.000 A 
ENDBRANCH  22  23
ENDBRANCH   4  22
TORSDOF 6
