REMARK  Name = 
REMARK  6 active torsions:
REMARK  status: ('A' for Active; 'I' for Inactive)
REMARK    1  A    between atoms: C_5  and  C_6
REMARK    2  A    between atoms: C_5  and  C_11
REMARK    3  A    between atoms: C_6  and  C_12
REMARK    4  A    between atoms: C_9  and  N_15
REMARK    5  A    between atoms: C_10  and  S_23
REMARK    6  A    between atoms: N_16  and  S_23
REMARK                            x       y       z     vdW  Elec       q    Type
REMARK                         _______ _______ _______ _____ _____    ______ ____
ROOT
ATOM      1  C   UNL     1       0.000   0.000   0.000  0.00  0.00    +0.000 A 
ATOM      2  C   UNL     1       0.715   1.238   0.000  0.00  0.00    +0.000 A 
ATOM      3  C   UNL     1       0.715  -0.412   0.000  0.00  0.00    +0.000 A 
ATOM      4  C   UNL     1       1.429   0.825   0.000  0.00  0.00    +0.000 A 
ATOM      5  C   UNL     1       0.000   0.825   0.000  0.00  0.00    +0.000 A 
ATOM      6  C   UNL     1       1.429   0.000   0.000  0.00  0.00    +0.000 A 
ENDROOT
BRANCH   5   8
ATOM      7  C   UNL     1      -1.429   0.825   0.000  0.00  0.00    +0.000 C 
ATOM      8  N   UNL     1      -0.715   1.238   0.000  0.00  0.00    +0.000 NA
ATOM      9  O   UNL     1      -1.429   0.000   0.000  0.00  0.00    +0.000 OA
BRANCH   7  10
ATOM     10  C   UNL     1      -2.143   1.238   0.000  0.00  0.00    +0.000 C 
BRANCH  10  11
ATOM     11  C   UNL     1      -2.858   0.825   0.000  0.00  0.00    +0.000 C 
BRANCH  11  12
ATOM     12  C   UNL     1      -3.572   1.238   0.000  0.00  0.00    +0.000 C 
ATOM     13  O   UNL     1      -4.287   0.825   0.000  0.00  0.00    +0.000 OA
ATOM     14  O   UNL     1      -3.572   2.062   0.000  0.00  0.00    +0.000 OA
ENDBRANCH  11  12
ENDBRANCH  10  11
ENDBRANCH   7  10
ENDBRANCH   5   8
BRANCH   6  17
ATOM     15  O   UNL     1       2.556   0.302   0.000  0.00  0.00    +0.000 OA
ATOM     16  O   UNL     1       1.731  -1.127   0.000  0.00  0.00    +0.000 OA
ATOM     17  S   UNL     1       2.143  -0.412   0.000  0.00  0.00    +0.000 S 
BRANCH  17  22
ATOM     18  C   UNL     1       4.878  -0.135   0.000  0.00  0.00    +0.000 A 
ATOM     19  C   UNL     1       4.466   0.580   0.000  0.00  0.00    +0.000 A 
ATOM     20  C   UNL     1       3.572  -0.412   0.000  0.00  0.00    +0.000 A 
ATOM     21  N   UNL     1       4.326  -0.748   0.000  0.00  0.00    +0.000 NA
ATOM     22  N   UNL     1       2.858  -0.825   0.000  0.00  0.00    +0.000 NA
ATOM     23  S   UNL     1       3.659   0.408   0.000  0.00  0.00    +0.000 S 
ENDBRANCH  17  22
ENDBRANCH   6  17
TORSDOF 6
