REMARK  Name = 
REMARK  12 active torsions:
REMARK  status: ('A' for Active; 'I' for Inactive)
REMARK    1  A    between atoms: C_1  and  C_10
REMARK    2  A    between atoms: C_6  and  C_7
REMARK    3  A    between atoms: C_10  and  C_11
REMARK    4  A    between atoms: C_11  and  N_12
REMARK    5  A    between atoms: C_11  and  C_13
REMARK    6  A    between atoms: N_21  and  S_22
REMARK    7  A    between atoms: N_21  and  C_36
REMARK    8  A    between atoms: S_22  and  C_25
REMARK    9  A    between atoms: C_28  and  O_34
REMARK   10  A    between atoms: C_36  and  C_37
REMARK   11  A    between atoms: C_36  and  C_41
REMARK   12  A    between atoms: C_37  and  C_38
REMARK                            x       y       z     vdW  Elec       q    Type
REMARK                         _______ _______ _______ _____ _____    ______ ____
ROOT
ATOM      1  N   UNL     1       0.357   0.619   0.000  0.00  0.00    +0.000 NA
ATOM      2  C   UNL     1       0.357  -0.206   0.000  0.00  0.00    +0.000 C 
ATOM      3  O   UNL     1       1.072  -0.619   0.000  0.00  0.00    +0.000 OA
ENDROOT
BRANCH   1   4
ATOM      4  C   UNL     1       1.072   1.031   0.000  0.00  0.00    +0.000 C 
BRANCH   4   5
ATOM      5  C   UNL     1       1.786   0.619   0.000  0.00  0.00    +0.000 C 
ATOM      6  O   UNL     1       1.786  -0.206   0.000  0.00  0.00    +0.000 OA
ATOM      7  N   UNL     1       2.501   1.031   0.000  0.00  0.00    +0.000 N 
ATOM      8  C   UNL     1       3.215   0.619   0.000  0.00  0.00    +0.000 C 
ATOM      9  C   UNL     1       3.930   1.031   0.000  0.00  0.00    +0.000 C 
ATOM     10  C   UNL     1       3.930   1.856   0.000  0.00  0.00    +0.000 C 
ATOM     11  C   UNL     1       3.215   2.269   0.000  0.00  0.00    +0.000 C 
ATOM     12  C   UNL     1       2.501   1.856   0.000  0.00  0.00    +0.000 C 
ENDBRANCH   4   5
BRANCH   4  13
ATOM     13  C   UNL     1       1.072   1.856   0.000  0.00  0.00    +0.000 C 
BRANCH  13  14
ATOM     14  C   UNL     1       0.357   2.269   0.000  0.00  0.00    +0.000 A 
ATOM     15  C   UNL     1      -0.357   1.856   0.000  0.00  0.00    +0.000 A 
ATOM     16  C   UNL     1      -1.072   2.269   0.000  0.00  0.00    +0.000 A 
ATOM     17  C   UNL     1      -0.357   3.506   0.000  0.00  0.00    +0.000 A 
ATOM     18  C   UNL     1       0.357   3.094   0.000  0.00  0.00    +0.000 A 
ATOM     19  C   UNL     1      -1.072   3.094   0.000  0.00  0.00    +0.000 A 
BRANCH  19  20
ATOM     20  C   UNL     1      -1.786   3.506   0.000  0.00  0.00    +0.000 C 
ATOM     21  N   UNL     1      -1.786   4.331   0.000  0.00  0.00    +0.000 NA
ATOM     22  N   UNL     1      -2.501   3.094   0.000  0.00  0.00    +0.000 NA
ENDBRANCH  19  20
ENDBRANCH  13  14
ENDBRANCH   4  13
ENDBRANCH   1   4
BRANCH   2  23
ATOM     23  C   UNL     1      -0.357  -0.619   0.000  0.00  0.00    +0.000 C 
BRANCH  23  24
ATOM     24  C   UNL     1      -1.072  -0.206   0.000  0.00  0.00    +0.000 C 
BRANCH  24  25
ATOM     25  C   UNL     1      -1.072   0.619   0.000  0.00  0.00    +0.000 C 
ATOM     26  O   UNL     1      -0.357   1.031   0.000  0.00  0.00    +0.000 OA
ATOM     27  O   UNL     1      -1.786   1.031   0.000  0.00  0.00    +0.000 OA
ENDBRANCH  24  25
ENDBRANCH  23  24
BRANCH  23  28
ATOM     28  N   UNL     1      -0.357  -1.444   0.000  0.00  0.00    +0.000 NA
BRANCH  28  29
ATOM     29  S   UNL     1      -1.072  -1.856   0.000  0.00  0.00    +0.000 S 
ATOM     30  O   UNL     1      -1.484  -1.142   0.000  0.00  0.00    +0.000 OA
ATOM     31  O   UNL     1      -0.659  -2.571   0.000  0.00  0.00    +0.000 OA
BRANCH  29  32
ATOM     32  C   UNL     1      -1.786  -2.269   0.000  0.00  0.00    +0.000 A 
ATOM     33  C   UNL     1      -1.786  -3.094   0.000  0.00  0.00    +0.000 A 
ATOM     34  C   UNL     1      -2.501  -3.506   0.000  0.00  0.00    +0.000 A 
ATOM     35  C   UNL     1      -3.215  -3.094   0.000  0.00  0.00    +0.000 A 
ATOM     36  C   UNL     1      -3.215  -2.269   0.000  0.00  0.00    +0.000 A 
ATOM     37  C   UNL     1      -2.501  -1.856   0.000  0.00  0.00    +0.000 A 
ATOM     38  C   UNL     1      -1.072  -3.506   0.000  0.00  0.00    +0.000 C 
ATOM     39  C   UNL     1      -2.501  -4.331   0.000  0.00  0.00    +0.000 C 
ATOM     40  C   UNL     1      -2.501  -1.031   0.000  0.00  0.00    +0.000 C 
BRANCH  35  41
ATOM     41  O   UNL     1      -3.930  -3.506   0.000  0.00  0.00    +0.000 OA
ATOM     42  C   UNL     1      -3.930  -4.331   0.000  0.00  0.00    +0.000 C 
ENDBRANCH  35  41
ENDBRANCH  29  32
ENDBRANCH  28  29
ENDBRANCH  23  28
ENDBRANCH   2  23
TORSDOF 12
