REMARK  Name = 
REMARK  13 active torsions:
REMARK  status: ('A' for Active; 'I' for Inactive)
REMARK    1  A    between atoms: C_1  and  O_7
REMARK    2  A    between atoms: C_11  and  C_12
REMARK    3  A    between atoms: N_14  and  C_15
REMARK    4  A    between atoms: C_15  and  C_16
REMARK    5  A    between atoms: C_15  and  C_20
REMARK    6  A    between atoms: C_16  and  C_17
REMARK    7  A    between atoms: N_22  and  C_23
REMARK    8  A    between atoms: C_23  and  C_24
REMARK    9  A    between atoms: C_23  and  C_25
REMARK   10  A    between atoms: C_24  and  C_28
REMARK   11  A    between atoms: C_25  and  C_27
REMARK   12  A    between atoms: C_27  and  O_35
REMARK   13  A    between atoms: O_35  and  P_36
REMARK                            x       y       z     vdW  Elec       q    Type
REMARK                         _______ _______ _______ _____ _____    ______ ____
ROOT
ATOM      1  C   UNL     1       1.918  -0.685   0.000  0.00  0.00    +0.000 C 
ENDROOT
BRANCH   1   2
ATOM      2  C   UNL     1       2.653  -0.311   0.000  0.00  0.00    +0.000 C 
ATOM      3  O   UNL     1       2.696   0.513   0.000  0.00  0.00    +0.000 OA
ATOM      4  N   UNL     1       3.345  -0.760   0.000  0.00  0.00    +0.000 NA
BRANCH   4   5
ATOM      5  C   UNL     1       4.060  -0.348   0.000  0.00  0.00    +0.000 C 
BRANCH   5   6
ATOM      6  C   UNL     1       4.774  -0.760   0.000  0.00  0.00    +0.000 C 
ATOM      7  O   UNL     1       4.774  -1.585   0.000  0.00  0.00    +0.000 OA
BRANCH   6   8
ATOM      8  C   UNL     1       5.489  -0.348   0.000  0.00  0.00    +0.000 C 
BRANCH   8   9
ATOM      9  O   UNL     1       6.203  -0.760   0.000  0.00  0.00    +0.000 OA
BRANCH   9  10
ATOM     10  P   UNL     1       7.028  -0.760   0.000  0.00  0.00    +0.000 P 
ATOM     11  O   UNL     1       7.028   0.065   0.000  0.00  0.00    +0.000 OA
ATOM     12  O   UNL     1       7.853  -0.760   0.000  0.00  0.00    +0.000 OA
ATOM     13  O   UNL     1       7.028  -1.585   0.000  0.00  0.00    +0.000 OA
ENDBRANCH   9  10
ENDBRANCH   8   9
ENDBRANCH   6   8
ENDBRANCH   5   6
BRANCH   5  14
ATOM     14  C   UNL     1       4.060   0.477   0.000  0.00  0.00    +0.000 C 
BRANCH  14  15
ATOM     15  C   UNL     1       4.673   1.029   0.000  0.00  0.00    +0.000 C 
ATOM     16  C   UNL     1       5.480   0.858   0.000  0.00  0.00    +0.000 C 
ATOM     17  C   UNL     1       5.892   1.572   0.000  0.00  0.00    +0.000 C 
ATOM     18  N   UNL     1       5.340   2.185   0.000  0.00  0.00    +0.000 NA
ATOM     19  C   UNL     1       4.587   1.850   0.000  0.00  0.00    +0.000 C 
ATOM     20  O   UNL     1       3.872   2.262   0.000  0.00  0.00    +0.000 OA
ENDBRANCH  14  15
ENDBRANCH   5  14
ENDBRANCH   4   5
ENDBRANCH   1   2
BRANCH   1  23
ATOM     21  C   UNL     1       0.536  -0.613   0.000  0.00  0.00    +0.000 C 
ATOM     22  O   UNL     1       0.536  -1.438   0.000  0.00  0.00    +0.000 OA
ATOM     23  N   UNL     1       1.251  -0.200   0.000  0.00  0.00    +0.000 NA
BRANCH  21  32
ATOM     24  C   UNL     1      -2.321   1.037   0.000  0.00  0.00    +0.000 A 
ATOM     25  C   UNL     1      -3.036   0.625   0.000  0.00  0.00    +0.000 A 
ATOM     26  C   UNL     1      -3.036  -0.200   0.000  0.00  0.00    +0.000 A 
ATOM     27  C   UNL     1      -2.321  -0.613   0.000  0.00  0.00    +0.000 A 
ATOM     28  C   UNL     1      -1.607  -0.200   0.000  0.00  0.00    +0.000 A 
ATOM     29  C   UNL     1      -1.607   0.625   0.000  0.00  0.00    +0.000 A 
ATOM     30  N   UNL     1      -0.892  -0.613   0.000  0.00  0.00    +0.000 NA
ATOM     31  C   UNL     1      -0.178   0.625   0.000  0.00  0.00    +0.000 A 
ATOM     32  C   UNL     1      -0.178  -0.200   0.000  0.00  0.00    +0.000 A 
BRANCH  24  33
ATOM     33  O   UNL     1      -2.321   1.862   0.000  0.00  0.00    +0.000 OA
ATOM     34  C   UNL     1      -3.036   2.275   0.000  0.00  0.00    +0.000 C 
ENDBRANCH  24  33
ENDBRANCH  21  32
ENDBRANCH   1  23
BRANCH   1  35
ATOM     35  C   UNL     1       1.918  -1.510   0.000  0.00  0.00    +0.000 C 
BRANCH  35  36
ATOM     36  C   UNL     1       2.531  -2.062   0.000  0.00  0.00    +0.000 C 
ATOM     37  C   UNL     1       2.360  -2.869   0.000  0.00  0.00    +0.000 C 
ATOM     38  C   UNL     1       3.316  -1.807   0.000  0.00  0.00    +0.000 C 
ENDBRANCH  35  36
ENDBRANCH   1  35
TORSDOF 13
