REMARK  Name = 
REMARK  13 active torsions:
REMARK  status: ('A' for Active; 'I' for Inactive)
REMARK    1  A    between atoms: N_1  and  C_2
REMARK    2  A    between atoms: N_1  and  C_14
REMARK    3  A    between atoms: C_4  and  C_11
REMARK    4  A    between atoms: C_17  and  O_21
REMARK    5  A    between atoms: O_21  and  C_22
REMARK    6  A    between atoms: C_25  and  O_30
REMARK    7  A    between atoms: C_27  and  C_28
REMARK    8  A    between atoms: O_30  and  C_31
REMARK    9  A    between atoms: C_31  and  C_32
REMARK   10  A    between atoms: C_31  and  C_38
REMARK   11  A    between atoms: C_32  and  C_34
REMARK   12  A    between atoms: C_34  and  C_35
REMARK   13  A    between atoms: C_38  and  C_40
REMARK                            x       y       z     vdW  Elec       q    Type
REMARK                         _______ _______ _______ _____ _____    ______ ____
ROOT
ATOM      1  O   UNL     1      -0.357  -0.659   0.000  0.00  0.00    +0.000 OA
ENDROOT
BRANCH   1   5
ATOM      2  C   UNL     1      -2.501   0.578   0.000  0.00  0.00    +0.000 C 
ATOM      3  C   UNL     1      -2.501  -0.246   0.000  0.00  0.00    +0.000 C 
ATOM      4  C   UNL     1      -1.786  -0.659   0.000  0.00  0.00    +0.000 C 
ATOM      5  C   UNL     1      -1.072  -0.246   0.000  0.00  0.00    +0.000 C 
ATOM      6  O   UNL     1      -1.072   0.578   0.000  0.00  0.00    +0.000 OA
ATOM      7  C   UNL     1      -1.786   0.991   0.000  0.00  0.00    +0.000 C 
ATOM      8  C   UNL     1      -1.748   1.722   0.000  0.00  0.00    +0.000 C 
ATOM      9  O   UNL     1      -1.786  -1.567   0.000  0.00  0.00    +0.000 OA
ATOM     10  O   UNL     1      -3.215  -0.659   0.000  0.00  0.00    +0.000 OA
BRANCH   2  11
ATOM     11  N   UNL     1      -3.215   0.991   0.000  0.00  0.00    +0.000 NA
BRANCH  11  12
ATOM     12  C   UNL     1      -3.929   0.578   0.000  0.00  0.00    +0.000 C 
ATOM     13  C   UNL     1      -3.929  -0.246   0.000  0.00  0.00    +0.000 C 
ATOM     14  C   UNL     1      -4.644  -0.659   0.000  0.00  0.00    +0.000 C 
ATOM     15  C   UNL     1      -5.359  -0.246   0.000  0.00  0.00    +0.000 C 
ATOM     16  C   UNL     1      -5.359   0.578   0.000  0.00  0.00    +0.000 C 
ATOM     17  C   UNL     1      -4.644   0.991   0.000  0.00  0.00    +0.000 C 
ATOM     18  O   UNL     1      -4.652   1.897   0.000  0.00  0.00    +0.000 OA
ATOM     19  O   UNL     1      -6.073   0.991   0.000  0.00  0.00    +0.000 OA
ATOM     20  O   UNL     1      -6.073  -0.659   0.000  0.00  0.00    +0.000 OA
BRANCH  14  21
ATOM     21  C   UNL     1      -4.644  -1.484   0.000  0.00  0.00    +0.000 C 
ATOM     22  O   UNL     1      -5.359  -1.897   0.000  0.00  0.00    +0.000 OA
ENDBRANCH  14  21
ENDBRANCH  11  12
ENDBRANCH   2  11
ENDBRANCH   1   5
BRANCH   1  23
ATOM     23  C   UNL     1       0.357  -0.246   0.000  0.00  0.00    +0.000 C 
ATOM     24  C   UNL     1       0.357   0.578   0.000  0.00  0.00    +0.000 C 
ATOM     25  C   UNL     1       1.072   0.991   0.000  0.00  0.00    +0.000 C 
ATOM     26  C   UNL     1       1.786   0.578   0.000  0.00  0.00    +0.000 C 
ATOM     27  O   UNL     1       1.786  -0.246   0.000  0.00  0.00    +0.000 OA
ATOM     28  C   UNL     1       1.072  -0.659   0.000  0.00  0.00    +0.000 C 
ATOM     29  O   UNL     1       1.072   1.816   0.000  0.00  0.00    +0.000 OA
ATOM     30  O   UNL     1      -0.357   0.991   0.000  0.00  0.00    +0.000 OA
BRANCH  28  31
ATOM     31  C   UNL     1       1.072  -1.484   0.000  0.00  0.00    +0.000 C 
ATOM     32  O   UNL     1       0.357  -1.869   0.000  0.00  0.00    +0.000 OA
ENDBRANCH  28  31
BRANCH  26  33
ATOM     33  O   UNL     1       2.501   0.991   0.000  0.00  0.00    +0.000 OA
BRANCH  33  34
ATOM     34  C   UNL     1       3.215   0.578   0.000  0.00  0.00    +0.000 C 
BRANCH  34  35
ATOM     35  C   UNL     1       3.215  -0.246   0.000  0.00  0.00    +0.000 C 
ATOM     36  O   UNL     1       2.501  -0.659   0.000  0.00  0.00    +0.000 OA
BRANCH  35  37
ATOM     37  C   UNL     1       3.930  -0.659   0.000  0.00  0.00    +0.000 C 
ATOM     38  O   UNL     1       3.930  -1.484   0.000  0.00  0.00    +0.000 OA
ENDBRANCH  35  37
ENDBRANCH  34  35
BRANCH  34  39
ATOM     39  C   UNL     1       3.930   0.991   0.000  0.00  0.00    +0.000 C 
ATOM     40  O   UNL     1       3.930   1.816   0.000  0.00  0.00    +0.000 OA
BRANCH  39  41
ATOM     41  C   UNL     1       4.644   0.578   0.000  0.00  0.00    +0.000 C 
ATOM     42  O   UNL     1       4.644  -0.246   0.000  0.00  0.00    +0.000 OA
BRANCH  41  43
ATOM     43  C   UNL     1       5.359   0.991   0.000  0.00  0.00    +0.000 C 
ATOM     44  O   UNL     1       5.359   1.816   0.000  0.00  0.00    +0.000 OA
ENDBRANCH  41  43
ENDBRANCH  39  41
ENDBRANCH  34  39
ENDBRANCH  33  34
ENDBRANCH  26  33
ENDBRANCH   1  23
TORSDOF 13
