REMARK  Name = 
REMARK  5 active torsions:
REMARK  status: ('A' for Active; 'I' for Inactive)
REMARK    1  A    between atoms: O_1  and  C_9
REMARK    2  A    between atoms: O_1  and  B_13
REMARK    3  A    between atoms: N_4  and  C_8
REMARK    4  A    between atoms: C_7  and  C_8
REMARK    5  A    between atoms: C_7  and  C_9
REMARK                            x       y       z     vdW  Elec       q    Type
REMARK                         _______ _______ _______ _____ _____    ______ ____
ROOT
ATOM      1  N   UNL     1      -0.112  -1.538   0.000  0.00  0.00    +0.000 N 
ATOM      2  N   UNL     1      -0.827  -2.776   0.000  0.00  0.00    +0.000 N 
ATOM      3  N   UNL     1      -1.541  -1.538   0.000  0.00  0.00    +0.000 N 
ATOM      4  C   UNL     1      -0.827  -1.951   0.000  0.00  0.00    +0.000 C 
ATOM      5  H   UNL     1       0.331  -1.794   0.000  0.00  0.00    +0.000 HD
ATOM      6  H   UNL     1      -0.384  -3.032   0.000  0.00  0.00    +0.000 HD
ATOM      7  H   UNL     1      -1.270  -3.032   0.000  0.00  0.00    +0.000 HD
ATOM      8  H   UNL     1      -1.541  -1.027   0.000  0.00  0.00    +0.000 HD
ATOM      9  H   UNL     1      -1.984  -1.794   0.000  0.00  0.00    +0.000 HD
ENDROOT
BRANCH   1  10
ATOM     10  C   UNL     1      -0.112  -0.713   0.000  0.00  0.00    +0.000 C 
BRANCH  10  11
ATOM     11  C   UNL     1       0.602  -0.301   0.000  0.00  0.00    +0.000 C 
BRANCH  11  12
ATOM     12  C   UNL     1       0.602   0.524   0.000  0.00  0.00    +0.000 C 
BRANCH  12  13
ATOM     13  O   UNL     1       1.317   0.937   0.000  0.00  0.00    +0.000 OA
BRANCH  13  18
ATOM     14  O   UNL     1       0.649   2.247   0.000  0.00  0.00    +0.000 OA
ATOM     15  O   UNL     1       1.984   2.247   0.000  0.00  0.00    +0.000 OA
ATOM     16  C   UNL     1       0.904   3.032   0.000  0.00  0.00    +0.000 C 
ATOM     17  C   UNL     1       1.729   3.032   0.000  0.00  0.00    +0.000 C 
ATOM     18  B   UNL     1       1.317   1.762   0.000  0.00  0.00    +0.000 B 
ENDBRANCH  13  18
ENDBRANCH  12  13
ENDBRANCH  11  12
ENDBRANCH  10  11
ENDBRANCH   1  10
TORSDOF 5
