REMARK  Name = 
REMARK  6 active torsions:
REMARK  status: ('A' for Active; 'I' for Inactive)
REMARK    1  A    between atoms: O_3  and  C_11
REMARK    2  A    between atoms: O_3  and  C_15
REMARK    3  A    between atoms: O_4  and  C_12
REMARK    4  A    between atoms: O_4  and  C_16
REMARK    5  A    between atoms: C_21  and  C_27
REMARK    6  A    between atoms: C_25  and  C_28
REMARK                            x       y       z     vdW  Elec       q    Type
REMARK                         _______ _______ _______ _____ _____    ______ ____
ROOT
ATOM      1  O   UNL     1      -0.990  -0.310   0.000  0.00  0.00    +0.000 OA
ATOM      2  O   UNL     1       0.575   1.021   0.000  0.00  0.00    +0.000 OA
ATOM      3  C   UNL     1      -0.205   0.769   0.000  0.00  0.00    +0.000 C 
ATOM      4  C   UNL     1      -0.205  -0.056   0.000  0.00  0.00    +0.000 C 
ATOM      5  C   UNL     1      -0.990   1.024   0.000  0.00  0.00    +0.000 C 
ATOM      6  C   UNL     1       0.575  -0.307   0.000  0.00  0.00    +0.000 C 
ATOM      7  C   UNL     1      -1.475   0.357   0.000  0.00  0.00    +0.000 C 
ATOM      8  C   UNL     1       1.057   0.357   0.000  0.00  0.00    +0.000 C 
ENDROOT
BRANCH   6   9
ATOM      9  O   UNL     1       0.832  -1.091   0.000  0.00  0.00    +0.000 OA
BRANCH   9  10
ATOM     10  C   UNL     1       1.639  -1.261   0.000  0.00  0.00    +0.000 A 
ATOM     11  C   UNL     1       2.190  -0.647   0.000  0.00  0.00    +0.000 A 
ATOM     12  C   UNL     1       1.895  -2.046   0.000  0.00  0.00    +0.000 A 
ATOM     13  C   UNL     1       2.997  -0.817   0.000  0.00  0.00    +0.000 A 
ATOM     14  C   UNL     1       2.703  -2.216   0.000  0.00  0.00    +0.000 A 
ATOM     15  C   UNL     1       3.253  -1.602   0.000  0.00  0.00    +0.000 A 
BRANCH  15  18
ATOM     16  N   UNL     1       4.317  -2.556   0.000  0.00  0.00    +0.000 N 
ATOM     17  N   UNL     1       4.612  -1.158   0.000  0.00  0.00    +0.000 NA
ATOM     18  C   UNL     1       4.061  -1.772   0.000  0.00  0.00    +0.000 C 
ATOM     19  H   UNL     1       3.975  -2.937   0.000  0.00  0.00    +0.000 HD
ATOM     20  H   UNL     1       4.818  -2.662   0.000  0.00  0.00    +0.000 HD
ATOM     21  H   UNL     1       5.112  -1.263   0.000  0.00  0.00    +0.000 HD
ENDBRANCH  15  18
ENDBRANCH   9  10
ENDBRANCH   6   9
BRANCH   5  22
ATOM     22  O   UNL     1      -1.245   1.809   0.000  0.00  0.00    +0.000 OA
BRANCH  22  23
ATOM     23  C   UNL     1      -2.052   1.981   0.000  0.00  0.00    +0.000 A 
ATOM     24  C   UNL     1      -2.604   1.367   0.000  0.00  0.00    +0.000 A 
ATOM     25  C   UNL     1      -2.307   2.765   0.000  0.00  0.00    +0.000 A 
ATOM     26  C   UNL     1      -3.411   1.539   0.000  0.00  0.00    +0.000 A 
ATOM     27  C   UNL     1      -3.114   2.937   0.000  0.00  0.00    +0.000 A 
ATOM     28  C   UNL     1      -3.666   2.324   0.000  0.00  0.00    +0.000 A 
BRANCH  26  31
ATOM     29  N   UNL     1      -4.770   1.097   0.000  0.00  0.00    +0.000 N 
ATOM     30  N   UNL     1      -3.708   0.141   0.000  0.00  0.00    +0.000 NA
ATOM     31  C   UNL     1      -3.963   0.926   0.000  0.00  0.00    +0.000 C 
ATOM     32  H   UNL     1      -4.928   1.584   0.000  0.00  0.00    +0.000 HD
ATOM     33  H   UNL     1      -5.112   0.717   0.000  0.00  0.00    +0.000 HD
ATOM     34  H   UNL     1      -4.050  -0.239   0.000  0.00  0.00    +0.000 HD
ENDBRANCH  26  31
ENDBRANCH  22  23
ENDBRANCH   5  22
TORSDOF 6
