REMARK  Name = 
REMARK  8 active torsions:
REMARK  status: ('A' for Active; 'I' for Inactive)
REMARK    1  A    between atoms: N_4  and  C_23
REMARK    2  A    between atoms: N_7  and  C_10
REMARK    3  A    between atoms: C_13  and  C_19
REMARK    4  A    between atoms: C_14  and  C_17
REMARK    5  A    between atoms: C_26  and  C_27
REMARK    6  A    between atoms: C_27  and  C_28
REMARK    7  A    between atoms: C_28  and  C_29
REMARK    8  A    between atoms: C_29  and  C_30
REMARK                            x       y       z     vdW  Elec       q    Type
REMARK                         _______ _______ _______ _____ _____    ______ ____
ROOT
ATOM      1  C   UNL     1       1.266  -0.624   0.000  0.00  0.00    +0.000 C 
ATOM      2  C   UNL     1       0.715  -1.238   0.000  0.00  0.00    +0.000 C 
ATOM      3  C   UNL     1       0.162  -0.624   0.000  0.00  0.00    +0.000 C 
ATOM      4  N   UNL     1       1.382  -1.722   0.000  0.00  0.00    +0.000 N 
ATOM      5  C   UNL     1       1.127  -2.507   0.000  0.00  0.00    +0.000 C 
ATOM      6  S   UNL     1       1.612  -3.175   0.000  0.00  0.00    +0.000 S 
ATOM      7  N   UNL     1       0.302  -2.507   0.000  0.00  0.00    +0.000 N 
ATOM      8  C   UNL     1       0.047  -1.722   0.000  0.00  0.00    +0.000 C 
ATOM      9  O   UNL     1      -0.738  -1.468   0.000  0.00  0.00    +0.000 OA
ENDROOT
BRANCH   7  10
ATOM     10  C   UNL     1      -0.183  -3.175   0.000  0.00  0.00    +0.000 A 
ATOM     11  C   UNL     1       0.153  -3.928   0.000  0.00  0.00    +0.000 A 
ATOM     12  F   UNL     1       0.973  -4.014   0.000  0.00  0.00    +0.000 F 
ATOM     13  C   UNL     1      -0.332  -4.596   0.000  0.00  0.00    +0.000 A 
ATOM     14  C   UNL     1      -1.153  -4.509   0.000  0.00  0.00    +0.000 A 
ATOM     15  C   UNL     1      -1.488  -3.756   0.000  0.00  0.00    +0.000 A 
ATOM     16  C   UNL     1      -1.003  -3.088   0.000  0.00  0.00    +0.000 A 
BRANCH  13  17
ATOM     17  C   UNL     1       0.003  -5.349   0.000  0.00  0.00    +0.000 C 
ATOM     18  F   UNL     1       0.339  -6.103   0.000  0.00  0.00    +0.000 F 
ATOM     19  F   UNL     1      -0.750  -5.685   0.000  0.00  0.00    +0.000 F 
ATOM     20  F   UNL     1       0.757  -5.014   0.000  0.00  0.00    +0.000 F 
ENDBRANCH  13  17
BRANCH  14  21
ATOM     21  C   UNL     1      -1.638  -5.177   0.000  0.00  0.00    +0.000 C 
ATOM     22  N   UNL     1      -2.123  -5.844   0.000  0.00  0.00    +0.000 NA
ENDBRANCH  14  21
ENDBRANCH   7  10
BRANCH   4  23
ATOM     23  C   UNL     1       2.167  -1.468   0.000  0.00  0.00    +0.000 A 
ATOM     24  C   UNL     1       2.338  -0.660   0.000  0.00  0.00    +0.000 A 
ATOM     25  N   UNL     1       3.123  -0.406   0.000  0.00  0.00    +0.000 NA
ATOM     26  C   UNL     1       3.736  -0.958   0.000  0.00  0.00    +0.000 A 
ATOM     27  C   UNL     1       3.564  -1.765   0.000  0.00  0.00    +0.000 A 
ATOM     28  C   UNL     1       2.780  -2.019   0.000  0.00  0.00    +0.000 A 
BRANCH  26  29
ATOM     29  C   UNL     1       4.520  -0.703   0.000  0.00  0.00    +0.000 C 
BRANCH  29  30
ATOM     30  C   UNL     1       5.133  -1.255   0.000  0.00  0.00    +0.000 C 
BRANCH  30  31
ATOM     31  C   UNL     1       5.918  -1.000   0.000  0.00  0.00    +0.000 C 
BRANCH  31  32
ATOM     32  C   UNL     1       6.531  -1.552   0.000  0.00  0.00    +0.000 A 
ATOM     33  N   UNL     1       7.338  -1.380   0.000  0.00  0.00    +0.000 NA
ATOM     34  C   UNL     1       7.751  -2.095   0.000  0.00  0.00    +0.000 A 
ATOM     35  C   UNL     1       7.199  -2.708   0.000  0.00  0.00    +0.000 A 
ATOM     36  O   UNL     1       6.445  -2.372   0.000  0.00  0.00    +0.000 OA
ENDBRANCH  31  32
ENDBRANCH  30  31
ENDBRANCH  29  30
ENDBRANCH  26  29
ENDBRANCH   4  23
TORSDOF 8
