REMARK  Name = 
REMARK  11 active torsions:
REMARK  status: ('A' for Active; 'I' for Inactive)
REMARK    1  A    between atoms: C_2  and  N_4
REMARK    2  A    between atoms: C_7  and  C_10
REMARK    3  A    between atoms: C_12  and  O_23
REMARK    4  A    between atoms: C_16  and  O_21
REMARK    5  A    between atoms: O_23  and  C_24
REMARK    6  A    between atoms: C_30  and  P_54
REMARK    7  A    between atoms: C_40  and  N_45
REMARK    8  A    between atoms: C_46  and  O_48
REMARK    9  A    between atoms: O_48  and  C_49
REMARK   10  A    between atoms: P_54  and  C_56
REMARK   11  A    between atoms: C_56  and  C_57
REMARK                            x       y       z     vdW  Elec       q    Type
REMARK                         _______ _______ _______ _____ _____    ______ ____
ROOT
ATOM      1  C   UNL     1       3.534   1.699   0.000  0.00  0.00    +0.000 C 
ATOM      2  C   UNL     1       4.171   2.223   0.000  0.00  0.00    +0.000 C 
ATOM      3  C   UNL     1       4.867   1.780   0.000  0.00  0.00    +0.000 C 
ATOM      4  C   UNL     1       5.662   2.000   0.000  0.00  0.00    +0.000 C 
ATOM      5  O   UNL     1       5.868   2.799   0.000  0.00  0.00    +0.000 OA
ATOM      6  N   UNL     1       6.250   1.422   0.000  0.00  0.00    +0.000 NA
ATOM      7  C   UNL     1       7.045   1.642   0.000  0.00  0.00    +0.000 C 
ATOM      8  C   UNL     1       7.840   1.863   0.000  0.00  0.00    +0.000 C 
ATOM      9  C   UNL     1       7.633   1.064   0.000  0.00  0.00    +0.000 C 
ATOM     10  C   UNL     1       7.426   0.265   0.000  0.00  0.00    +0.000 C 
ATOM     11  C   UNL     1       8.015  -0.313   0.000  0.00  0.00    +0.000 C 
ATOM     12  C   UNL     1       7.808  -1.112   0.000  0.00  0.00    +0.000 C 
ATOM     13  C   UNL     1       6.949  -1.390   0.000  0.00  0.00    +0.000 C 
ATOM     14  C   UNL     1       6.506  -2.086   0.000  0.00  0.00    +0.000 C 
ATOM     15  C   UNL     1       5.707  -1.879   0.000  0.00  0.00    +0.000 C 
ATOM     16  C   UNL     1       5.657  -1.056   0.000  0.00  0.00    +0.000 C 
ATOM     17  C   UNL     1       5.041  -0.396   0.000  0.00  0.00    +0.000 C 
ATOM     18  C   UNL     1       5.248   0.403   0.000  0.00  0.00    +0.000 C 
ATOM     19  O   UNL     1       6.043   0.623   0.000  0.00  0.00    +0.000 OA
ATOM     20  N   UNL     1       4.660   0.981   0.000  0.00  0.00    +0.000 N 
ATOM     21  C   UNL     1       3.836   0.931   0.000  0.00  0.00    +0.000 C 
ENDROOT
BRANCH   7  22
ATOM     22  P   UNL     1       6.825   2.437   0.000  0.00  0.00    +0.000 P 
ATOM     23  O   UNL     1       7.620   2.658   0.000  0.00  0.00    +0.000 OA
ATOM     24  O   UNL     1       6.029   2.217   0.000  0.00  0.00    +0.000 OA
BRANCH  22  25
ATOM     25  C   UNL     1       6.604   3.232   0.000  0.00  0.00    +0.000 C 
BRANCH  25  26
ATOM     26  C   UNL     1       7.183   3.821   0.000  0.00  0.00    +0.000 A 
ATOM     27  C   UNL     1       6.962   4.616   0.000  0.00  0.00    +0.000 A 
ATOM     28  C   UNL     1       7.541   5.204   0.000  0.00  0.00    +0.000 A 
ATOM     29  C   UNL     1       8.339   4.997   0.000  0.00  0.00    +0.000 A 
ATOM     30  C   UNL     1       8.560   4.202   0.000  0.00  0.00    +0.000 A 
ATOM     31  C   UNL     1       7.981   3.614   0.000  0.00  0.00    +0.000 A 
ATOM     32  F   UNL     1       8.202   2.819   0.000  0.00  0.00    +0.000 F 
ATOM     33  F   UNL     1       6.164   4.822   0.000  0.00  0.00    +0.000 F 
ENDBRANCH  25  26
ENDBRANCH  22  25
ENDBRANCH   7  22
BRANCH  17  34
ATOM     34  N   UNL     1       4.242  -0.599   0.000  0.00  0.00    +0.000 NA
ATOM     35  C   UNL     1       4.018  -1.393   0.000  0.00  0.00    +0.000 C 
ATOM     36  O   UNL     1       3.218  -1.596   0.000  0.00  0.00    +0.000 OA
BRANCH  35  37
ATOM     37  O   UNL     1       4.593  -1.984   0.000  0.00  0.00    +0.000 OA
BRANCH  37  38
ATOM     38  C   UNL     1       4.369  -2.778   0.000  0.00  0.00    +0.000 C 
ATOM     39  C   UNL     1       4.880  -3.426   0.000  0.00  0.00    +0.000 C 
ATOM     40  C   UNL     1       4.422  -4.112   0.000  0.00  0.00    +0.000 C 
ATOM     41  C   UNL     1       3.628  -3.888   0.000  0.00  0.00    +0.000 C 
ATOM     42  C   UNL     1       3.595  -3.063   0.000  0.00  0.00    +0.000 C 
ENDBRANCH  37  38
ENDBRANCH  35  37
ENDBRANCH  17  34
BRANCH   1  43
ATOM     43  O   UNL     1       2.735   1.905   0.000  0.00  0.00    +0.000 OA
BRANCH  43  46
ATOM     44  C   UNL     1       2.873   4.084   0.000  0.00  0.00    +0.000 A 
ATOM     45  C   UNL     1       3.093   3.289   0.000  0.00  0.00    +0.000 A 
ATOM     46  C   UNL     1       2.515   2.700   0.000  0.00  0.00    +0.000 A 
ATOM     47  C   UNL     1       1.716   2.907   0.000  0.00  0.00    +0.000 A 
ATOM     48  C   UNL     1       1.138   2.319   0.000  0.00  0.00    +0.000 A 
ATOM     49  C   UNL     1       0.339   2.526   0.000  0.00  0.00    +0.000 A 
ATOM     50  C   UNL     1       0.119   3.321   0.000  0.00  0.00    +0.000 A 
ATOM     51  C   UNL     1       0.697   3.909   0.000  0.00  0.00    +0.000 A 
ATOM     52  C   UNL     1       1.496   3.702   0.000  0.00  0.00    +0.000 A 
ATOM     53  N   UNL     1       2.074   4.291   0.000  0.00  0.00    +0.000 NA
ATOM     54 CL   UNL     1       0.477   4.704   0.000  0.00  0.00    +0.000 Cl
BRANCH  44  58
ATOM     55  N   UNL     1       5.449   5.424   0.000  0.00  0.00    +0.000 NA
ATOM     56  C   UNL     1       4.636   5.288   0.000  0.00  0.00    +0.000 A 
ATOM     57  N   UNL     1       4.267   4.550   0.000  0.00  0.00    +0.000 NA
ATOM     58  C   UNL     1       3.451   4.672   0.000  0.00  0.00    +0.000 A 
ATOM     59  C   UNL     1       3.316   5.486   0.000  0.00  0.00    +0.000 A 
ATOM     60  S   UNL     1       4.047   5.867   0.000  0.00  0.00    +0.000 S 
BRANCH  55  62
ATOM     61  C   UNL     1       6.552   6.333   0.000  0.00  0.00    +0.000 C 
ATOM     62  C   UNL     1       5.738   6.197   0.000  0.00  0.00    +0.000 C 
ATOM     63  C   UNL     1       5.214   6.834   0.000  0.00  0.00    +0.000 C 
ENDBRANCH  55  62
ENDBRANCH  44  58
BRANCH  50  64
ATOM     64  O   UNL     1      -0.680   3.527   0.000  0.00  0.00    +0.000 OA
ATOM     65  C   UNL     1      -0.900   4.322   0.000  0.00  0.00    +0.000 C 
ENDBRANCH  50  64
ENDBRANCH  43  46
ENDBRANCH   1  43
TORSDOF 11
