REMARK  Name = 
REMARK  1 active torsions:
REMARK  status: ('A' for Active; 'I' for Inactive)
REMARK    1  A    between atoms: C_24  and  C_26
REMARK                            x       y       z     vdW  Elec       q    Type
REMARK                         _______ _______ _______ _____ _____    ______ ____
ROOT
ATOM      1  C   UNL     1      -0.183   0.626   0.000  0.00  0.00    +0.000 C 
ATOM      2  C   UNL     1       0.531  -1.436   0.000  0.00  0.00    +0.000 C 
ATOM      3  C   UNL     1      -0.897  -1.436   0.000  0.00  0.00    +0.000 C 
ATOM      4  C   UNL     1      -1.612  -0.199   0.000  0.00  0.00    +0.000 C 
ATOM      5  C   UNL     1       0.531   1.039   0.000  0.00  0.00    +0.000 C 
ATOM      6  C   UNL     1       2.030  -0.454   0.000  0.00  0.00    +0.000 C 
ATOM      7  C   UNL     1      -0.183  -1.849   0.000  0.00  0.00    +0.000 C 
ATOM      8  C   UNL     1      -1.612  -1.849   0.000  0.00  0.00    +0.000 C 
ATOM      9  C   UNL     1      -2.326  -0.611   0.000  0.00  0.00    +0.000 C 
ATOM     10  C   UNL     1       2.515   0.214   0.000  0.00  0.00    +0.000 C 
ATOM     11  C   UNL     1      -2.326  -1.436   0.000  0.00  0.00    +0.000 C 
ATOM     12  O   UNL     1      -3.041  -1.849   0.000  0.00  0.00    +0.000 OA
ATOM     13  C   UNL     1      -0.183  -0.199   0.000  0.00  0.00    +0.000 C 
ATOM     14  C   UNL     1       1.246  -0.199   0.000  0.00  0.00    +0.000 C 
ATOM     15  C   UNL     1       0.531  -0.611   0.000  0.00  0.00    +0.000 C 
ATOM     16  C   UNL     1      -0.897  -0.611   0.000  0.00  0.00    +0.000 C 
ATOM     17  C   UNL     1      -0.897   0.214   0.000  0.00  0.00    +0.000 C 
ATOM     18  C   UNL     1       1.246   0.626   0.000  0.00  0.00    +0.000 C 
ATOM     19  C   UNL     1       1.246   1.451   0.000  0.00  0.00    +0.000 C 
ATOM     20  C   UNL     1       2.030   0.881   0.000  0.00  0.00    +0.000 C 
ENDROOT
BRANCH  20  22
ATOM     21  C   UNL     1       3.041   1.891   0.000  0.00  0.00    +0.000 C 
ATOM     22  C   UNL     1       2.244   1.678   0.000  0.00  0.00    +0.000 C 
ATOM     23  O   UNL     1       1.661   2.261   0.000  0.00  0.00    +0.000 OA
ENDBRANCH  20  22
TORSDOF 1
