REMARK  Name = 
REMARK  0 active torsions:
REMARK  status: ('A' for Active; 'I' for Inactive)
REMARK                            x       y       z     vdW  Elec       q    Type
REMARK                         _______ _______ _______ _____ _____    ______ ____
ROOT
ATOM      1  C   UNL     1       0.388  -0.640   0.000  0.00  0.00    +0.000 C 
ATOM      2  C   UNL     1      -0.412  -0.631   0.000  0.00  0.00    +0.000 A 
ATOM      3  C   UNL     1       0.373   0.797   0.000  0.00  0.00    +0.000 C 
ATOM      4  C   UNL     1       0.800   0.091   0.000  0.00  0.00    +0.000 C 
ATOM      5  N   UNL     1       0.383   1.710   0.000  0.00  0.00    +0.000 NA
ATOM      6  C   UNL     1      -0.849   0.076   0.000  0.00  0.00    +0.000 A 
ATOM      7  C   UNL     1      -0.437   0.797   0.000  0.00  0.00    +0.000 C 
ATOM      8  C   UNL     1      -0.172  -0.233   0.000  0.00  0.00    +0.000 C 
ATOM      9  C   UNL     1      -0.172   1.298   0.000  0.00  0.00    +0.000 C 
ATOM     10  C   UNL     1      -0.834  -1.347   0.000  0.00  0.00    +0.000 A 
ATOM     11  C   UNL     1      -1.659   0.076   0.000  0.00  0.00    +0.000 A 
ATOM     12  C   UNL     1      -1.644  -1.347   0.000  0.00  0.00    +0.000 A 
ATOM     13  C   UNL     1       0.815  -1.322   0.000  0.00  0.00    +0.000 C 
ATOM     14  C   UNL     1      -2.061  -0.631   0.000  0.00  0.00    +0.000 A 
ATOM     15  C   UNL     1       1.006   2.054   0.000  0.00  0.00    +0.000 C 
ATOM     16  C   UNL     1       1.624   0.091   0.000  0.00  0.00    +0.000 C 
ATOM     17  O   UNL     1      -2.041  -2.054   0.000  0.00  0.00    +0.000 OA
ATOM     18  C   UNL     1       1.649  -1.322   0.000  0.00  0.00    +0.000 C 
ATOM     19  C   UNL     1       2.061  -0.601   0.000  0.00  0.00    +0.000 C 
ENDROOT
TORSDOF 0
