REMARK  Name = 
REMARK  6 active torsions:
REMARK  status: ('A' for Active; 'I' for Inactive)
REMARK    1  A    between atoms: C_2  and  C_4
REMARK    2  A    between atoms: C_4  and  C_5
REMARK    3  A    between atoms: N_7  and  C_8
REMARK    4  A    between atoms: C_10  and  C_14
REMARK    5  A    between atoms: C_20  and  C_21
REMARK    6  A    between atoms: C_24  and  C_30
REMARK                            x       y       z     vdW  Elec       q    Type
REMARK                         _______ _______ _______ _____ _____    ______ ____
ROOT
ATOM      1  C   UNL     1      -1.098   1.329   0.000  0.00  0.00    +0.000 A 
ATOM      2  C   UNL     1      -0.485   0.776   0.000  0.00  0.00    +0.000 A 
ATOM      3  C   UNL     1      -0.656  -0.030   0.000  0.00  0.00    +0.000 A 
ATOM      4  C   UNL     1      -1.441  -0.285   0.000  0.00  0.00    +0.000 A 
ATOM      5  N   UNL     1      -1.441  -1.110   0.000  0.00  0.00    +0.000 NA
ATOM      6  N   UNL     1      -0.656  -1.365   0.000  0.00  0.00    +0.000 NA
ATOM      7  C   UNL     1      -0.171  -0.698   0.000  0.00  0.00    +0.000 A 
ATOM      8  C   UNL     1      -2.054   0.267   0.000  0.00  0.00    +0.000 A 
ATOM      9  C   UNL     1      -1.882   1.074   0.000  0.00  0.00    +0.000 A 
ENDROOT
BRANCH   7  10
ATOM     10  C   UNL     1       0.654  -0.698   0.000  0.00  0.00    +0.000 A 
ATOM     11  N   UNL     1       1.139  -0.030   0.000  0.00  0.00    +0.000 NA
ATOM     12  C   UNL     1       1.923  -0.285   0.000  0.00  0.00    +0.000 A 
ATOM     13  C   UNL     1       2.638   0.127   0.000  0.00  0.00    +0.000 A 
ATOM     14  C   UNL     1       3.352  -0.285   0.000  0.00  0.00    +0.000 A 
ATOM     15  N   UNL     1       3.352  -1.110   0.000  0.00  0.00    +0.000 NA
ATOM     16  C   UNL     1       2.638  -1.523   0.000  0.00  0.00    +0.000 A 
ATOM     17  C   UNL     1       1.923  -1.110   0.000  0.00  0.00    +0.000 A 
ATOM     18  N   UNL     1       1.139  -1.365   0.000  0.00  0.00    +0.000 NA
BRANCH  13  19
ATOM     19  C   UNL     1       2.638   0.952   0.000  0.00  0.00    +0.000 A 
ATOM     20  C   UNL     1       1.923   1.365   0.000  0.00  0.00    +0.000 A 
ATOM     21  C   UNL     1       1.923   2.190   0.000  0.00  0.00    +0.000 A 
ATOM     22  C   UNL     1       2.638   2.602   0.000  0.00  0.00    +0.000 A 
ATOM     23  C   UNL     1       3.352   2.190   0.000  0.00  0.00    +0.000 A 
ATOM     24  F   UNL     1       4.067   2.602   0.000  0.00  0.00    +0.000 F 
ATOM     25  C   UNL     1       3.352   1.365   0.000  0.00  0.00    +0.000 A 
ENDBRANCH  13  19
ENDBRANCH   7  10
BRANCH   1  28
ATOM     26  C   UNL     1       0.030   3.197   0.000  0.00  0.00    +0.000 A 
ATOM     27  C   UNL     1      -0.141   2.390   0.000  0.00  0.00    +0.000 A 
ATOM     28  C   UNL     1      -0.926   2.135   0.000  0.00  0.00    +0.000 A 
ATOM     29  C   UNL     1      -1.539   2.688   0.000  0.00  0.00    +0.000 A 
ATOM     30  N   UNL     1      -1.368   3.494   0.000  0.00  0.00    +0.000 NA
ATOM     31  C   UNL     1      -0.583   3.749   0.000  0.00  0.00    +0.000 A 
BRANCH  26  34
ATOM     32  C   UNL     1       0.986   4.259   0.000  0.00  0.00    +0.000 C 
ATOM     33  O   UNL     1       0.373   4.811   0.000  0.00  0.00    +0.000 OA
ATOM     34  N   UNL     1       0.815   3.452   0.000  0.00  0.00    +0.000 NA
BRANCH  32  35
ATOM     35  C   UNL     1       1.771   4.514   0.000  0.00  0.00    +0.000 C 
BRANCH  35  37
ATOM     36  C   UNL     1       2.727   5.576   0.000  0.00  0.00    +0.000 C 
ATOM     37  C   UNL     1       1.942   5.321   0.000  0.00  0.00    +0.000 C 
ATOM     38  C   UNL     1       1.329   5.873   0.000  0.00  0.00    +0.000 C 
ENDBRANCH  35  37
ENDBRANCH  32  35
ENDBRANCH  26  34
ENDBRANCH   1  28
TORSDOF 6
