REMARK  Name = 
REMARK  3 active torsions:
REMARK  status: ('A' for Active; 'I' for Inactive)
REMARK    1  A    between atoms: C_1  and  C_2
REMARK    2  A    between atoms: C_2  and  C_5
REMARK    3  A    between atoms: C_10  and  C_12
REMARK                            x       y       z     vdW  Elec       q    Type
REMARK                         _______ _______ _______ _____ _____    ______ ____
ROOT
ATOM      1  C   UNL     1      -0.354  -1.030   0.000  0.00  0.00    +0.000 C 
ATOM      2  O   UNL     1      -0.354  -1.854   0.000  0.00  0.00    +0.000 OA
ENDROOT
BRANCH   1   3
ATOM      3  C   UNL     1      -1.068  -0.621   0.000  0.00  0.00    +0.000 A 
ATOM      4  C   UNL     1      -1.782  -1.030   0.000  0.00  0.00    +0.000 A 
ATOM      5  C   UNL     1      -1.068   0.206   0.000  0.00  0.00    +0.000 A 
ATOM      6  C   UNL     1      -2.499  -0.621   0.000  0.00  0.00    +0.000 A 
ATOM      7  O   UNL     1      -1.782  -1.857   0.000  0.00  0.00    +0.000 OA
ATOM      8  C   UNL     1      -1.782   0.621   0.000  0.00  0.00    +0.000 A 
ATOM      9  C   UNL     1      -2.499   0.206   0.000  0.00  0.00    +0.000 A 
ATOM     10  O   UNL     1      -3.213   0.621   0.000  0.00  0.00    +0.000 OA
ENDBRANCH   1   3
BRANCH   1  11
ATOM     11  C   UNL     1       0.357  -0.618   0.000  0.00  0.00    +0.000 C 
ATOM     12  C   UNL     1       0.357   0.206   0.000  0.00  0.00    +0.000 C 
BRANCH  12  13
ATOM     13  C   UNL     1       1.075   0.621   0.000  0.00  0.00    +0.000 A 
ATOM     14  C   UNL     1       1.785   0.206   0.000  0.00  0.00    +0.000 A 
ATOM     15  C   UNL     1       1.068   1.445   0.000  0.00  0.00    +0.000 A 
ATOM     16  C   UNL     1       2.499   0.621   0.000  0.00  0.00    +0.000 A 
ATOM     17  C   UNL     1       1.782   1.857   0.000  0.00  0.00    +0.000 A 
ATOM     18  C   UNL     1       2.499   1.445   0.000  0.00  0.00    +0.000 A 
ATOM     19  O   UNL     1       3.213   1.857   0.000  0.00  0.00    +0.000 OA
ENDBRANCH  12  13
ENDBRANCH   1  11
TORSDOF 3
