REMARK  Name = 
REMARK  6 active torsions:
REMARK  status: ('A' for Active; 'I' for Inactive)
REMARK    1  A    between atoms: N_2  and  C_6
REMARK    2  A    between atoms: C_6  and  C_12
REMARK    3  A    between atoms: C_9  and  S_14
REMARK    4  A    between atoms: C_12  and  C_17
REMARK    5  A    between atoms: C_17  and  N_22
REMARK    6  A    between atoms: C_27  and  C_28
REMARK                            x       y       z     vdW  Elec       q    Type
REMARK                         _______ _______ _______ _____ _____    ______ ____
ROOT
ATOM      1  C   UNL     1      -1.113   1.856   0.000  0.00  0.00    +0.000 A 
ATOM      2  N   UNL     1      -0.399   1.444   0.000  0.00  0.00    +0.000 N 
ATOM      3  C   UNL     1      -1.113   2.681   0.000  0.00  0.00    +0.000 A 
ATOM      4  C   UNL     1      -1.827   1.444   0.000  0.00  0.00    +0.000 A 
ATOM      5  C   UNL     1       0.316   1.856   0.000  0.00  0.00    +0.000 A 
ATOM      6  S   UNL     1      -0.399   3.094   0.000  0.00  0.00    +0.000 S 
ATOM      7  C   UNL     1      -1.827   3.094   0.000  0.00  0.00    +0.000 A 
ATOM      8  C   UNL     1      -2.542   1.856   0.000  0.00  0.00    +0.000 A 
ATOM      9  C   UNL     1       0.316   2.681   0.000  0.00  0.00    +0.000 A 
ATOM     10  C   UNL     1       1.030   1.444   0.000  0.00  0.00    +0.000 A 
ATOM     11  C   UNL     1      -2.542   2.681   0.000  0.00  0.00    +0.000 A 
ATOM     12  C   UNL     1       1.030   3.094   0.000  0.00  0.00    +0.000 A 
ATOM     13  C   UNL     1       1.745   1.856   0.000  0.00  0.00    +0.000 A 
ATOM     14  C   UNL     1       1.745   2.681   0.000  0.00  0.00    +0.000 A 
ENDROOT
BRANCH   8  15
ATOM     15  S   UNL     1      -3.256   1.444   0.000  0.00  0.00    +0.000 S 
ATOM     16  C   UNL     1      -3.840   2.027   0.000  0.00  0.00    +0.000 C 
ATOM     17  O   UNL     1      -2.783   0.768   0.000  0.00  0.00    +0.000 OA
ATOM     18  O   UNL     1      -3.888   0.913   0.000  0.00  0.00    +0.000 OA
ENDBRANCH   8  15
BRANCH   2  19
ATOM     19  C   UNL     1      -0.398   0.619   0.000  0.00  0.00    +0.000 C 
BRANCH  19  20
ATOM     20  C   UNL     1       0.316   0.206   0.000  0.00  0.00    +0.000 C 
BRANCH  20  21
ATOM     21  C   UNL     1       0.316  -0.619   0.000  0.00  0.00    +0.000 C 
BRANCH  21  22
ATOM     22  N   UNL     1       1.030  -1.031   0.000  0.00  0.00    +0.000 NA
ATOM     23  C   UNL     1       1.030  -1.856   0.000  0.00  0.00    +0.000 C 
ATOM     24  C   UNL     1       1.745  -0.619   0.000  0.00  0.00    +0.000 C 
ATOM     25  C   UNL     1       1.745  -2.269   0.000  0.00  0.00    +0.000 C 
ATOM     26  C   UNL     1       2.459  -1.031   0.000  0.00  0.00    +0.000 C 
ATOM     27  C   UNL     1       2.459  -1.856   0.000  0.00  0.00    +0.000 C 
BRANCH  27  28
ATOM     28  C   UNL     1       3.174  -2.269   0.000  0.00  0.00    +0.000 C 
ATOM     29  N   UNL     1       3.888  -1.856   0.000  0.00  0.00    +0.000 NA
ATOM     30  O   UNL     1       3.174  -3.094   0.000  0.00  0.00    +0.000 OA
ENDBRANCH  27  28
ENDBRANCH  21  22
ENDBRANCH  20  21
ENDBRANCH  19  20
ENDBRANCH   2  19
TORSDOF 6
