REMARK  Name = 
REMARK  3 active torsions:
REMARK  status: ('A' for Active; 'I' for Inactive)
REMARK    1  A    between atoms: N_14  and  C_15
REMARK    2  A    between atoms: C_15  and  C_16
REMARK    3  A    between atoms: C_16  and  C_17
REMARK                            x       y       z     vdW  Elec       q    Type
REMARK                         _______ _______ _______ _____ _____    ______ ____
ROOT
ATOM      1  C   UNL     1       2.258   0.814   0.000  0.00  0.00    +0.000 C 
ATOM      2  C   UNL     1       1.472   0.564   0.000  0.00  0.00    +0.000 C 
ATOM      3  C   UNL     1       0.876  -0.374   0.000  0.00  0.00    +0.000 C 
ATOM      4  C   UNL     1       1.699  -0.315   0.000  0.00  0.00    +0.000 C 
ATOM      5  C   UNL     1       2.239   0.309   0.000  0.00  0.00    +0.000 A 
ATOM      6  C   UNL     1       2.981  -0.051   0.000  0.00  0.00    +0.000 A 
ATOM      7  C   UNL     1       3.664   0.411   0.000  0.00  0.00    +0.000 A 
ATOM      8  C   UNL     1       3.605   1.234   0.000  0.00  0.00    +0.000 A 
ATOM      9  C   UNL     1       2.863   1.595   0.000  0.00  0.00    +0.000 A 
ATOM     10  C   UNL     1       2.180   1.132   0.000  0.00  0.00    +0.000 A 
ATOM     11  C   UNL     1       1.556   1.672   0.000  0.00  0.00    +0.000 C 
ATOM     12  C   UNL     1       0.733   1.613   0.000  0.00  0.00    +0.000 C 
ATOM     13  C   UNL     1       0.193   0.989   0.000  0.00  0.00    +0.000 C 
ATOM     14  N   UNL     1       0.252   0.166   0.000  0.00  0.00    +0.000 NA
ATOM     15  C   UNL     1       1.816   2.455   0.000  0.00  0.00    +0.000 C 
ATOM     16  O   UNL     1       4.288   1.697   0.000  0.00  0.00    +0.000 OA
ENDROOT
BRANCH  14  17
ATOM     17  C   UNL     1      -0.485  -0.203   0.000  0.00  0.00    +0.000 C 
BRANCH  17  18
ATOM     18  C   UNL     1      -1.174   0.251   0.000  0.00  0.00    +0.000 C 
BRANCH  18  19
ATOM     19  C   UNL     1      -1.912  -0.119   0.000  0.00  0.00    +0.000 A 
ATOM     20  C   UNL     1      -1.960  -0.943   0.000  0.00  0.00    +0.000 A 
ATOM     21  C   UNL     1      -2.698  -1.312   0.000  0.00  0.00    +0.000 A 
ATOM     22  C   UNL     1      -3.387  -0.858   0.000  0.00  0.00    +0.000 A 
ATOM     23  C   UNL     1      -3.338  -0.035   0.000  0.00  0.00    +0.000 A 
ATOM     24  C   UNL     1      -2.601   0.335   0.000  0.00  0.00    +0.000 A 
ENDBRANCH  18  19
ENDBRANCH  17  18
ENDBRANCH  14  17
TORSDOF 3
