REMARK  Name = 
REMARK  3 active torsions:
REMARK  status: ('A' for Active; 'I' for Inactive)
REMARK    1  A    between atoms: S_1  and  C_2
REMARK    2  A    between atoms: C_4  and  C_5
REMARK    3  A    between atoms: N_6  and  N_7
REMARK                            x       y       z     vdW  Elec       q    Type
REMARK                         _______ _______ _______ _____ _____    ______ ____
ROOT
ATOM      1  C   UNL     1      -0.510   1.158   0.000  0.00  0.00    +0.000 C 
ATOM      2  N   UNL     1      -1.243   0.697   0.000  0.00  0.00    +0.000 NA
ATOM      3  O   UNL     1      -0.510   1.987   0.000  0.00  0.00    +0.000 OA
ENDROOT
BRANCH   2   4
ATOM      4  N   UNL     1      -1.243  -0.346   0.000  0.00  0.00    +0.000 N 
ATOM      5  C   UNL     1      -1.919  -0.796   0.000  0.00  0.00    +0.000 A 
ATOM      6  C   UNL     1      -1.919  -1.568   0.000  0.00  0.00    +0.000 A 
ATOM      7  C   UNL     1      -2.615  -1.987   0.000  0.00  0.00    +0.000 A 
ATOM      8  C   UNL     1      -3.293  -1.557   0.000  0.00  0.00    +0.000 A 
ATOM      9  C   UNL     1      -3.293  -0.745   0.000  0.00  0.00    +0.000 A 
ATOM     10  C   UNL     1      -2.637  -0.346   0.000  0.00  0.00    +0.000 A 
ATOM     11  C   UNL     1      -0.539  -1.568   0.000  0.00  0.00    +0.000 C 
ATOM     12  C   UNL     1      -0.539  -0.805   0.000  0.00  0.00    +0.000 C 
ATOM     13  C   UNL     1       0.199  -0.346   0.000  0.00  0.00    +0.000 C 
ENDBRANCH   2   4
BRANCH   1  16
ATOM     14  C   UNL     1       1.679   0.417   0.000  0.00  0.00    +0.000 A 
ATOM     15  C   UNL     1       0.864   0.417   0.000  0.00  0.00    +0.000 A 
ATOM     16  C   UNL     1       0.423   1.158   0.000  0.00  0.00    +0.000 A 
ATOM     17  C   UNL     1       0.810   1.882   0.000  0.00  0.00    +0.000 A 
ATOM     18  C   UNL     1       1.650   1.882   0.000  0.00  0.00    +0.000 A 
ATOM     19  C   UNL     1       2.100   1.158   0.000  0.00  0.00    +0.000 A 
ATOM     20 CL   UNL     1       3.293   1.158   0.000  0.00  0.00    +0.000 Cl
BRANCH  14  21
ATOM     21  S   UNL     1       2.168  -0.168   0.000  0.00  0.00    +0.000 S 
ATOM     22  O   UNL     1       1.551  -0.576   0.000  0.00  0.00    +0.000 OA
ATOM     23  O   UNL     1       2.748   0.197   0.000  0.00  0.00    +0.000 OA
ATOM     24  N   UNL     1       2.643  -0.768   0.000  0.00  0.00    +0.000 NA
ENDBRANCH  14  21
ENDBRANCH   1  16
TORSDOF 3
