REMARK  Name = 
REMARK  0 active torsions:
REMARK  status: ('A' for Active; 'I' for Inactive)
REMARK                            x       y       z     vdW  Elec       q    Type
REMARK                         _______ _______ _______ _____ _____    ______ ____
ROOT
ATOM      1  O   UNL     1       2.440   1.902   0.000  0.00  0.00    +0.000 OA
ATOM      2  O   UNL     1      -3.046  -1.651   0.000  0.00  0.00    +0.000 OA
ATOM      3  C   UNL     1       1.403   0.042   0.000  0.00  0.00    +0.000 C 
ATOM      4  C   UNL     1       1.403   0.867   0.000  0.00  0.00    +0.000 C 
ATOM      5  C   UNL     1       0.689  -0.370   0.000  0.00  0.00    +0.000 C 
ATOM      6  C   UNL     1      -0.025   0.042   0.000  0.00  0.00    +0.000 C 
ATOM      7  C   UNL     1      -0.776  -0.376   0.000  0.00  0.00    +0.000 C 
ATOM      8  C   UNL     1       0.689   1.279   0.000  0.00  0.00    +0.000 C 
ATOM      9  C   UNL     1      -0.025   0.867   0.000  0.00  0.00    +0.000 C 
ATOM     10  C   UNL     1       2.184   1.118   0.000  0.00  0.00    +0.000 C 
ATOM     11  C   UNL     1       2.184  -0.209   0.000  0.00  0.00    +0.000 C 
ATOM     12  C   UNL     1       0.702  -1.230   0.000  0.00  0.00    +0.000 C 
ATOM     13  C   UNL     1       2.665   0.454   0.000  0.00  0.00    +0.000 C 
ATOM     14  C   UNL     1      -0.783  -1.235   0.000  0.00  0.00    +0.000 C 
ATOM     15  C   UNL     1      -0.039  -1.665   0.000  0.00  0.00    +0.000 C 
ATOM     16  C   UNL     1       1.403   1.692   0.000  0.00  0.00    +0.000 C 
ATOM     17  C   UNL     1      -1.541   0.089   0.000  0.00  0.00    +0.000 C 
ATOM     18  C   UNL     1      -0.770   0.449   0.000  0.00  0.00    +0.000 C 
ATOM     19  C   UNL     1      -2.323  -0.346   0.000  0.00  0.00    +0.000 C 
ATOM     20  C   UNL     1      -1.554  -1.689   0.000  0.00  0.00    +0.000 C 
ATOM     21  C   UNL     1      -2.329  -1.241   0.000  0.00  0.00    +0.000 C 
ENDROOT
TORSDOF 0
