REMARK  Name = 
REMARK  4 active torsions:
REMARK  status: ('A' for Active; 'I' for Inactive)
REMARK    1  A    between atoms: C_1  and  C_2
REMARK    2  A    between atoms: C_7  and  C_11
REMARK    3  A    between atoms: C_12  and  N_14
REMARK    4  A    between atoms: N_13  and  N_15
REMARK                            x       y       z     vdW  Elec       q    Type
REMARK                         _______ _______ _______ _____ _____    ______ ____
ROOT
ATOM      1  C   UNL     1      -0.924  -0.522   0.000  0.00  0.00    +0.000 A 
ATOM      2  O   UNL     1      -0.257  -0.034   0.000  0.00  0.00    +0.000 OA
ATOM      3  C   UNL     1      -0.674  -1.282   0.000  0.00  0.00    +0.000 A 
ATOM      4  C   UNL     1       0.405  -0.496   0.000  0.00  0.00    +0.000 A 
ATOM      5  C   UNL     1       0.160  -1.282   0.000  0.00  0.00    +0.000 A 
ENDROOT
BRANCH   1   6
ATOM      6  C   UNL     1      -1.710  -0.266   0.000  0.00  0.00    +0.000 A 
ATOM      7  C   UNL     1      -1.890   0.530   0.000  0.00  0.00    +0.000 A 
ATOM      8  C   UNL     1      -2.330  -0.831   0.000  0.00  0.00    +0.000 A 
ATOM      9  C   UNL     1      -2.684   0.778   0.000  0.00  0.00    +0.000 A 
ATOM     10  C   UNL     1      -3.122  -0.580   0.000  0.00  0.00    +0.000 A 
ATOM     11  C   UNL     1      -3.296   0.222   0.000  0.00  0.00    +0.000 A 
BRANCH  11  12
ATOM     12  N   UNL     1      -4.082   0.472   0.000  0.00  0.00    +0.000 N 
ATOM     13  O   UNL     1      -4.694  -0.076   0.000  0.00  0.00    +0.000 OA
ATOM     14  O   UNL     1      -4.261   1.282   0.000  0.00  0.00    +0.000 OA
ENDBRANCH  11  12
ENDBRANCH   1   6
BRANCH   4  15
ATOM     15  C   UNL     1       1.180  -0.235   0.000  0.00  0.00    +0.000 C 
ATOM     16  N   UNL     1       1.800  -0.781   0.000  0.00  0.00    +0.000 NA
BRANCH  16  17
ATOM     17  N   UNL     1       2.578  -0.506   0.000  0.00  0.00    +0.000 N 
ATOM     18  C   UNL     1       3.261  -0.981   0.000  0.00  0.00    +0.000 C 
ATOM     19  C   UNL     1       2.832   0.287   0.000  0.00  0.00    +0.000 C 
ATOM     20  C   UNL     1       3.908  -0.477   0.000  0.00  0.00    +0.000 C 
ATOM     21  N   UNL     1       3.639   0.301   0.000  0.00  0.00    +0.000 NA
ATOM     22  O   UNL     1       2.344   0.947   0.000  0.00  0.00    +0.000 OA
ATOM     23  O   UNL     1       4.694  -0.712   0.000  0.00  0.00    +0.000 OA
ENDBRANCH  16  17
ENDBRANCH   4  15
TORSDOF 4
