REMARK  Name = 
REMARK  3 active torsions:
REMARK  status: ('A' for Active; 'I' for Inactive)
REMARK    1  A    between atoms: O_2  and  C_3
REMARK    2  A    between atoms: C_5  and  C_6
REMARK    3  A    between atoms: C_17  and  C_18
REMARK                            x       y       z     vdW  Elec       q    Type
REMARK                         _______ _______ _______ _____ _____    ______ ____
ROOT
ATOM      1  C   UNL     1      -1.226  -1.292   0.000  0.00  0.00    +0.000 C 
ATOM      2  C   UNL     1      -0.435  -1.546   0.000  0.00  0.00    +0.000 C 
ATOM      3  C   UNL     1       0.050  -0.876   0.000  0.00  0.00    +0.000 C 
ATOM      4  N   UNL     1      -0.438  -0.206   0.000  0.00  0.00    +0.000 NA
ATOM      5  C   UNL     1      -1.221  -0.464   0.000  0.00  0.00    +0.000 C 
ATOM      6  C   UNL     1      -1.891   0.022   0.000  0.00  0.00    +0.000 C 
ENDROOT
BRANCH   3   7
ATOM      7  C   UNL     1       0.875  -0.876   0.000  0.00  0.00    +0.000 A 
ATOM      8  C   UNL     1       1.360  -1.542   0.000  0.00  0.00    +0.000 A 
ATOM      9  C   UNL     1       2.146  -1.290   0.000  0.00  0.00    +0.000 A 
ATOM     10  C   UNL     1       2.861  -1.702   0.000  0.00  0.00    +0.000 A 
ATOM     11  C   UNL     1       3.575  -1.290   0.000  0.00  0.00    +0.000 A 
ATOM     12  C   UNL     1       3.575  -0.465   0.000  0.00  0.00    +0.000 A 
ATOM     13  C   UNL     1       2.861  -0.052   0.000  0.00  0.00    +0.000 A 
ATOM     14  C   UNL     1       2.146  -0.465   0.000  0.00  0.00    +0.000 A 
ATOM     15  N   UNL     1       1.360  -0.207   0.000  0.00  0.00    +0.000 NA
ENDBRANCH   3   7
BRANCH   6  16
ATOM     16  C   UNL     1      -1.807   0.841   0.000  0.00  0.00    +0.000 A 
ATOM     17  N   UNL     1      -1.093   1.254   0.000  0.00  0.00    +0.000 NA
ATOM     18  C   UNL     1      -1.266   2.066   0.000  0.00  0.00    +0.000 A 
ATOM     19  C   UNL     1      -0.715   2.679   0.000  0.00  0.00    +0.000 C 
ATOM     20  C   UNL     1      -2.086   2.149   0.000  0.00  0.00    +0.000 A 
ATOM     21  C   UNL     1      -2.421   1.393   0.000  0.00  0.00    +0.000 A 
ATOM     22  C   UNL     1      -3.227   1.222   0.000  0.00  0.00    +0.000 C 
ENDBRANCH   6  16
BRANCH   1  24
ATOM     23  C   UNL     1      -1.806  -2.599   0.000  0.00  0.00    +0.000 C 
ATOM     24  O   UNL     1      -1.892  -1.776   0.000  0.00  0.00    +0.000 OA
ENDBRANCH   1  24
TORSDOF 3
