REMARK  Name = 
REMARK  2 active torsions:
REMARK  status: ('A' for Active; 'I' for Inactive)
REMARK    1  A    between atoms: O_1  and  C_12
REMARK    2  A    between atoms: O_1  and  C_23
REMARK                            x       y       z     vdW  Elec       q    Type
REMARK                         _______ _______ _______ _____ _____    ______ ____
ROOT
ATOM      1  O   UNL     1      -3.222  -2.452   0.000  0.00  0.00    +0.000 OA
ATOM      2  C   UNL     1       0.348  -1.221   0.000  0.00  0.00    +0.000 C 
ATOM      3  C   UNL     1       1.063  -0.815   0.000  0.00  0.00    +0.000 C 
ATOM      4  C   UNL     1      -0.361  -0.809   0.000  0.00  0.00    +0.000 C 
ATOM      5  C   UNL     1       1.070   0.010   0.000  0.00  0.00    +0.000 C 
ATOM      6  C   UNL     1      -1.076  -1.215   0.000  0.00  0.00    +0.000 C 
ATOM      7  C   UNL     1       0.348  -2.046   0.000  0.00  0.00    +0.000 C 
ATOM      8  C   UNL     1      -0.354   0.016   0.000  0.00  0.00    +0.000 C 
ATOM      9  C   UNL     1      -1.083  -2.046   0.000  0.00  0.00    +0.000 C 
ATOM     10  C   UNL     1       1.785   0.416   0.000  0.00  0.00    +0.000 C 
ATOM     11  C   UNL     1       0.361   0.422   0.000  0.00  0.00    +0.000 C 
ATOM     12  C   UNL     1       2.488  -0.835   0.000  0.00  0.00    +0.000 C 
ATOM     13  C   UNL     1      -0.367  -2.459   0.000  0.00  0.00    +0.000 C 
ATOM     14  C   UNL     1       2.501  -0.003   0.000  0.00  0.00    +0.000 C 
ATOM     15  C   UNL     1      -1.792  -0.802   0.000  0.00  0.00    +0.000 C 
ATOM     16  C   UNL     1       1.070   0.841   0.000  0.00  0.00    +0.000 C 
ATOM     17  C   UNL     1      -1.792  -2.459   0.000  0.00  0.00    +0.000 C 
ATOM     18  C   UNL     1       1.076  -2.471   0.000  0.00  0.00    +0.000 C 
ATOM     19  C   UNL     1      -2.501  -1.215   0.000  0.00  0.00    +0.000 C 
ATOM     20  C   UNL     1      -2.501  -2.046   0.000  0.00  0.00    +0.000 C 
ENDROOT
BRANCH  10  21
ATOM     21  O   UNL     1       1.792   1.241   0.000  0.00  0.00    +0.000 OA
BRANCH  21  23
ATOM     22  O   UNL     1       2.501   2.471   0.000  0.00  0.00    +0.000 OA
ATOM     23  C   UNL     1       2.507   1.653   0.000  0.00  0.00    +0.000 C 
ATOM     24  C   UNL     1       3.222   1.241   0.000  0.00  0.00    +0.000 C 
ENDBRANCH  21  23
ENDBRANCH  10  21
TORSDOF 2
