REMARK  Name = 
REMARK  8 active torsions:
REMARK  status: ('A' for Active; 'I' for Inactive)
REMARK    1  A    between atoms: O_1  and  C_10
REMARK    2  A    between atoms: N_3  and  C_11
REMARK    3  A    between atoms: N_4  and  C_5
REMARK    4  A    between atoms: N_4  and  C_12
REMARK    5  A    between atoms: C_5  and  C_10
REMARK    6  A    between atoms: C_11  and  C_14
REMARK    7  A    between atoms: C_13  and  C_15
REMARK    8  A    between atoms: C_14  and  C_18
REMARK                            x       y       z     vdW  Elec       q    Type
REMARK                         _______ _______ _______ _____ _____    ______ ____
ROOT
ATOM      1  N   UNL     1      -0.619  -0.398   0.000  0.00  0.00    +0.000 NA
ATOM      2  C   UNL     1      -0.619   1.252   0.000  0.00  0.00    +0.000 C 
ATOM      3  C   UNL     1      -1.333   0.840   0.000  0.00  0.00    +0.000 C 
ATOM      4  C   UNL     1       0.096   0.840   0.000  0.00  0.00    +0.000 C 
ATOM      5  C   UNL     1      -1.333   0.015   0.000  0.00  0.00    +0.000 C 
ATOM      6  C   UNL     1       0.096   0.015   0.000  0.00  0.00    +0.000 C 
ENDROOT
BRANCH   2   8
ATOM      7  O   UNL     1      -1.444   2.681   0.000  0.00  0.00    +0.000 OA
ATOM      8  N   UNL     1      -0.206   1.967   0.000  0.00  0.00    +0.000 N 
ATOM      9  C   UNL     1      -0.619   2.681   0.000  0.00  0.00    +0.000 C 
BRANCH   8  10
ATOM     10  C   UNL     1       0.619   1.967   0.000  0.00  0.00    +0.000 A 
ATOM     11  C   UNL     1       1.031   2.681   0.000  0.00  0.00    +0.000 A 
ATOM     12  C   UNL     1       1.031   1.252   0.000  0.00  0.00    +0.000 A 
ATOM     13  C   UNL     1       1.856   2.681   0.000  0.00  0.00    +0.000 A 
ATOM     14  C   UNL     1       1.856   1.252   0.000  0.00  0.00    +0.000 A 
ATOM     15  C   UNL     1       2.269   1.967   0.000  0.00  0.00    +0.000 A 
ENDBRANCH   8  10
BRANCH   9  16
ATOM     16  C   UNL     1      -0.206   3.396   0.000  0.00  0.00    +0.000 C 
ATOM     17  C   UNL     1      -0.619   4.110   0.000  0.00  0.00    +0.000 C 
ENDBRANCH   9  16
ENDBRANCH   2   8
BRANCH   2  18
ATOM     18  C   UNL     1      -1.031   1.967   0.000  0.00  0.00    +0.000 C 
BRANCH  18  19
ATOM     19  O   UNL     1      -1.856   1.967   0.000  0.00  0.00    +0.000 OA
ATOM     20  C   UNL     1      -2.269   2.681   0.000  0.00  0.00    +0.000 C 
ENDBRANCH  18  19
ENDBRANCH   2  18
BRANCH   1  21
ATOM     21  C   UNL     1      -0.619  -1.223   0.000  0.00  0.00    +0.000 C 
BRANCH  21  22
ATOM     22  C   UNL     1      -1.333  -1.635   0.000  0.00  0.00    +0.000 C 
BRANCH  22  23
ATOM     23  C   UNL     1      -1.333  -2.460   0.000  0.00  0.00    +0.000 A 
ATOM     24  C   UNL     1      -0.619  -2.873   0.000  0.00  0.00    +0.000 A 
ATOM     25  C   UNL     1      -2.048  -2.873   0.000  0.00  0.00    +0.000 A 
ATOM     26  C   UNL     1      -0.619  -3.698   0.000  0.00  0.00    +0.000 A 
ATOM     27  C   UNL     1      -2.048  -3.698   0.000  0.00  0.00    +0.000 A 
ATOM     28  C   UNL     1      -1.333  -4.110   0.000  0.00  0.00    +0.000 A 
ENDBRANCH  22  23
ENDBRANCH  21  22
ENDBRANCH   1  21
TORSDOF 8
