REMARK  Name = 
REMARK  6 active torsions:
REMARK  status: ('A' for Active; 'I' for Inactive)
REMARK    1  A    between atoms: C_14  and  C_15
REMARK    2  A    between atoms: C_17  and  C_19
REMARK    3  A    between atoms: C_23  and  N_28
REMARK    4  A    between atoms: N_31  and  C_32
REMARK    5  A    between atoms: C_39  and  C_41
REMARK    6  A    between atoms: C_45  and  C_57
REMARK                            x       y       z     vdW  Elec       q    Type
REMARK                         _______ _______ _______ _____ _____    ______ ____
ROOT
ATOM      1  N   UNL     1      10.487   1.927   0.000  0.00  0.00    +0.000 NA
ATOM      2  C   UNL     1       9.935   1.314   0.000  0.00  0.00    +0.000 C 
ATOM      3  O   UNL     1      10.190   0.529   0.000  0.00  0.00    +0.000 OA
ATOM      4  N   UNL     1       9.128   1.485   0.000  0.00  0.00    +0.000 NA
ENDROOT
BRANCH   1   9
ATOM      5  C   UNL     1      13.575   0.256   0.000  0.00  0.00    +0.000 A 
ATOM      6  C   UNL     1      12.768   0.085   0.000  0.00  0.00    +0.000 A 
ATOM      7  C   UNL     1      12.356   0.799   0.000  0.00  0.00    +0.000 A 
ATOM      8  C   UNL     1      11.549   0.971   0.000  0.00  0.00    +0.000 A 
ATOM      9  C   UNL     1      11.294   1.755   0.000  0.00  0.00    +0.000 A 
ATOM     10  C   UNL     1      11.846   2.368   0.000  0.00  0.00    +0.000 A 
ATOM     11  C   UNL     1      12.653   2.197   0.000  0.00  0.00    +0.000 A 
ATOM     12  C   UNL     1      12.908   1.412   0.000  0.00  0.00    +0.000 A 
ATOM     13  N   UNL     1      13.661   1.077   0.000  0.00  0.00    +0.000 NA
BRANCH   5  28
ATOM     14  C   UNL     1      17.885   1.077   0.000  0.00  0.00    +0.000 C 
ATOM     15  C   UNL     1      17.272   1.630   0.000  0.00  0.00    +0.000 A 
ATOM     16  C   UNL     1      17.358   2.450   0.000  0.00  0.00    +0.000 A 
ATOM     17  N   UNL     1      16.605   2.786   0.000  0.00  0.00    +0.000 NA
ATOM     18  C   UNL     1      16.053   2.172   0.000  0.00  0.00    +0.000 A 
ATOM     19  C   UNL     1      16.465   1.458   0.000  0.00  0.00    +0.000 A 
ATOM     20  C   UNL     1      16.053   0.744   0.000  0.00  0.00    +0.000 A 
ATOM     21  C   UNL     1      15.228   0.744   0.000  0.00  0.00    +0.000 A 
ATOM     22  C   UNL     1      14.815   1.458   0.000  0.00  0.00    +0.000 A 
ATOM     23  C   UNL     1      15.228   2.172   0.000  0.00  0.00    +0.000 A 
ATOM     24  O   UNL     1      14.815   2.887   0.000  0.00  0.00    +0.000 OA
ATOM     25  N   UNL     1      14.973  -0.041   0.000  0.00  0.00    +0.000 N 
ATOM     26  C   UNL     1      15.640  -0.526   0.000  0.00  0.00    +0.000 C 
ATOM     27  C   UNL     1      16.308  -0.041   0.000  0.00  0.00    +0.000 C 
ATOM     28  C   UNL     1      14.188  -0.296   0.000  0.00  0.00    +0.000 C 
ATOM     29  O   UNL     1      14.017  -1.103   0.000  0.00  0.00    +0.000 OA
BRANCH  27  30
ATOM     30  C   UNL     1      17.092  -0.296   0.000  0.00  0.00    +0.000 C 
ATOM     31 CL   UNL     1      17.706   0.256   0.000  0.00  0.00    +0.000 Cl
ENDBRANCH  27  30
ENDBRANCH   5  28
ENDBRANCH   1   9
BRANCH   4  32
ATOM     32  C   UNL     1       8.576   0.872   0.000  0.00  0.00    +0.000 A 
ATOM     33  C   UNL     1       8.831   0.087   0.000  0.00  0.00    +0.000 A 
ATOM     34  C   UNL     1       8.279  -0.526   0.000  0.00  0.00    +0.000 A 
ATOM     35  C   UNL     1       7.472  -0.354   0.000  0.00  0.00    +0.000 A 
ATOM     36  C   UNL     1       7.217   0.430   0.000  0.00  0.00    +0.000 A 
ATOM     37  C   UNL     1       7.769   1.044   0.000  0.00  0.00    +0.000 A 
ATOM     38  C   UNL     1       6.392   0.430   0.000  0.00  0.00    +0.000 A 
ATOM     39  C   UNL     1       6.137  -0.354   0.000  0.00  0.00    +0.000 A 
ATOM     40  N   UNL     1       6.804  -0.839   0.000  0.00  0.00    +0.000 NA
BRANCH  39  41
ATOM     41  C   UNL     1       5.352  -0.609   0.000  0.00  0.00    +0.000 C 
ATOM     42  O   UNL     1       5.181  -1.416   0.000  0.00  0.00    +0.000 OA
ATOM     43  N   UNL     1       4.739  -0.057   0.000  0.00  0.00    +0.000 N 
ATOM     44  C   UNL     1       4.825   0.763   0.000  0.00  0.00    +0.000 C 
ATOM     45  C   UNL     1       4.072   1.099   0.000  0.00  0.00    +0.000 C 
ATOM     46  C   UNL     1       3.520   0.486   0.000  0.00  0.00    +0.000 A 
ATOM     47  C   UNL     1       3.932  -0.229   0.000  0.00  0.00    +0.000 A 
ATOM     48  C   UNL     1       3.520  -0.943   0.000  0.00  0.00    +0.000 A 
ATOM     49  C   UNL     1       2.695  -0.943   0.000  0.00  0.00    +0.000 A 
ATOM     50  C   UNL     1       2.282  -0.229   0.000  0.00  0.00    +0.000 A 
ATOM     51  C   UNL     1       2.695   0.486   0.000  0.00  0.00    +0.000 A 
ATOM     52  C   UNL     1       2.143   1.099   0.000  0.00  0.00    +0.000 A 
ATOM     53  C   UNL     1       1.389   0.763   0.000  0.00  0.00    +0.000 A 
ATOM     54  N   UNL     1       1.475  -0.057   0.000  0.00  0.00    +0.000 NA
ATOM     55  C   UNL     1       2.314   1.906   0.000  0.00  0.00    +0.000 C 
ATOM     56  O   UNL     1       2.282  -1.658   0.000  0.00  0.00    +0.000 OA
BRANCH  45  57
ATOM     57  C   UNL     1       3.900   1.906   0.000  0.00  0.00    +0.000 C 
ATOM     58 CL   UNL     1       3.115   2.161   0.000  0.00  0.00    +0.000 Cl
ENDBRANCH  45  57
ENDBRANCH  39  41
ENDBRANCH   4  32
TORSDOF 6
