REMARK  Name = 
REMARK  13 active torsions:
REMARK  status: ('A' for Active; 'I' for Inactive)
REMARK    1  A    between atoms: O_2  and  C_3
REMARK    2  A    between atoms: C_5  and  O_6
REMARK    3  A    between atoms: C_9  and  C_10
REMARK    4  A    between atoms: C_10  and  O_11
REMARK    5  A    between atoms: O_11  and  C_12
REMARK    6  A    between atoms: C_19  and  C_20
REMARK    7  A    between atoms: C_20  and  C_22
REMARK    8  A    between atoms: C_22  and  C_23
REMARK    9  A    between atoms: C_23  and  C_24
REMARK   10  A    between atoms: N_27  and  C_28
REMARK   11  A    between atoms: C_28  and  C_29
REMARK   12  A    between atoms: C_29  and  N_30
REMARK   13  A    between atoms: N_30  and  S_31
REMARK                            x       y       z     vdW  Elec       q    Type
REMARK                         _______ _______ _______ _____ _____    ______ ____
ROOT
ATOM      1  C   UNL     1       0.715  -0.412   0.000  0.00  0.00    +0.000 A 
ATOM      2  C   UNL     1       0.715  -1.238   0.000  0.00  0.00    +0.000 A 
ATOM      3  C   UNL     1       0.000  -1.650   0.000  0.00  0.00    +0.000 A 
ATOM      4  N   UNL     1       0.000  -2.475   0.000  0.00  0.00    +0.000 NA
ATOM      5  C   UNL     1      -0.715  -1.238   0.000  0.00  0.00    +0.000 A 
ATOM      6 CL   UNL     1      -1.429  -1.650   0.000  0.00  0.00    +0.000 Cl
ATOM      7  C   UNL     1      -0.715  -0.412   0.000  0.00  0.00    +0.000 A 
ATOM      8  C   UNL     1       0.000   0.000   0.000  0.00  0.00    +0.000 A 
ENDROOT
BRANCH   8   9
ATOM      9  C   UNL     1       0.000   0.825   0.000  0.00  0.00    +0.000 C 
ATOM     10  O   UNL     1      -0.715   1.238   0.000  0.00  0.00    +0.000 OA
BRANCH   9  11
ATOM     11  C   UNL     1       0.715   1.238   0.000  0.00  0.00    +0.000 C 
BRANCH  11  12
ATOM     12  C   UNL     1       0.715   2.062   0.000  0.00  0.00    +0.000 C 
BRANCH  12  13
ATOM     13  C   UNL     1       1.429   2.475   0.000  0.00  0.00    +0.000 C 
ATOM     14  C   UNL     1       1.429   3.300   0.000  0.00  0.00    +0.000 C 
ATOM     15  C   UNL     1       2.143   3.712   0.000  0.00  0.00    +0.000 C 
ATOM     16  N   UNL     1       2.858   3.300   0.000  0.00  0.00    +0.000 NA
ATOM     17  C   UNL     1       2.858   2.475   0.000  0.00  0.00    +0.000 C 
ATOM     18  C   UNL     1       2.143   2.062   0.000  0.00  0.00    +0.000 C 
BRANCH  16  19
ATOM     19  C   UNL     1       3.572   3.712   0.000  0.00  0.00    +0.000 C 
BRANCH  19  20
ATOM     20  C   UNL     1       3.572   4.537   0.000  0.00  0.00    +0.000 C 
BRANCH  20  21
ATOM     21  N   UNL     1       4.287   4.950   0.000  0.00  0.00    +0.000 NA
BRANCH  21  22
ATOM     22  S   UNL     1       4.287   5.775   0.000  0.00  0.00    +0.000 S 
ATOM     23  C   UNL     1       4.287   6.600   0.000  0.00  0.00    +0.000 C 
ATOM     24  O   UNL     1       5.112   5.775   0.000  0.00  0.00    +0.000 OA
ATOM     25  O   UNL     1       3.462   5.775   0.000  0.00  0.00    +0.000 OA
ENDBRANCH  21  22
ENDBRANCH  20  21
ENDBRANCH  19  20
ENDBRANCH  16  19
ENDBRANCH  12  13
ENDBRANCH  11  12
ENDBRANCH   9  11
ENDBRANCH   8   9
BRANCH   1  26
ATOM     26  O   UNL     1       1.429   0.000   0.000  0.00  0.00    +0.000 OA
BRANCH  26  27
ATOM     27  C   UNL     1       2.143  -0.412   0.000  0.00  0.00    +0.000 C 
BRANCH  27  32
ATOM     28  C   UNL     1       3.572   1.238   0.000  0.00  0.00    +0.000 A 
ATOM     29  C   UNL     1       4.287   0.825   0.000  0.00  0.00    +0.000 A 
ATOM     30  C   UNL     1       4.287   0.000   0.000  0.00  0.00    +0.000 A 
ATOM     31  C   UNL     1       3.572  -0.412   0.000  0.00  0.00    +0.000 A 
ATOM     32  C   UNL     1       2.858   0.000   0.000  0.00  0.00    +0.000 A 
ATOM     33  C   UNL     1       2.858   0.825   0.000  0.00  0.00    +0.000 A 
BRANCH  28  35
ATOM     34  C   UNL     1       4.287   2.475   0.000  0.00  0.00    +0.000 C 
ATOM     35  O   UNL     1       3.572   2.062   0.000  0.00  0.00    +0.000 OA
ENDBRANCH  28  35
BRANCH  30  36
ATOM     36  O   UNL     1       5.001  -0.412   0.000  0.00  0.00    +0.000 OA
ATOM     37  C   UNL     1       5.001  -1.238   0.000  0.00  0.00    +0.000 C 
ENDBRANCH  30  36
ENDBRANCH  27  32
ENDBRANCH  26  27
ENDBRANCH   1  26
TORSDOF 13
