REMARK  Name = 
REMARK  6 active torsions:
REMARK  status: ('A' for Active; 'I' for Inactive)
REMARK    1  A    between atoms: C_6  and  C_7
REMARK    2  A    between atoms: C_6  and  C_8
REMARK    3  A    between atoms: C_7  and  C_9
REMARK    4  A    between atoms: C_8  and  C_10
REMARK    5  A    between atoms: C_9  and  C_11
REMARK    6  A    between atoms: C_10  and  C_12
REMARK                            x       y       z     vdW  Elec       q    Type
REMARK                         _______ _______ _______ _____ _____    ______ ____
ROOT
ATOM      1  S   UNL     1       3.331  -0.792   0.000  0.00  0.00    +0.000 S 
ATOM      2  O   UNL     1       1.835   1.522   0.000  0.00  0.00    +0.000 OA
ATOM      3  O   UNL     1       0.406  -0.953   0.000  0.00  0.00    +0.000 OA
ATOM      4  O   UNL     1       1.835  -1.778   0.000  0.00  0.00    +0.000 OA
ATOM      5  N   UNL     1       3.331   0.536   0.000  0.00  0.00    +0.000 NA
ATOM      6  C   UNL     1       1.121   0.285   0.000  0.00  0.00    +0.000 C 
ATOM      7  C   UNL     1       1.835   0.697   0.000  0.00  0.00    +0.000 C 
ATOM      8  C   UNL     1       1.121  -0.540   0.000  0.00  0.00    +0.000 C 
ATOM      9  C   UNL     1       2.550   0.285   0.000  0.00  0.00    +0.000 A 
ATOM     10  C   UNL     1       2.550  -0.540   0.000  0.00  0.00    +0.000 A 
ATOM     11  C   UNL     1       1.835  -0.953   0.000  0.00  0.00    +0.000 C 
ATOM     12  C   UNL     1       3.812  -0.128   0.000  0.00  0.00    +0.000 A 
ENDROOT
BRANCH   6  13
ATOM     13  C   UNL     1       0.406   0.697   0.000  0.00  0.00    +0.000 C 
BRANCH  13  14
ATOM     14  C   UNL     1      -0.308   0.285   0.000  0.00  0.00    +0.000 C 
BRANCH  14  15
ATOM     15  C   UNL     1      -1.023   0.697   0.000  0.00  0.00    +0.000 C 
BRANCH  15  16
ATOM     16  C   UNL     1      -1.737   0.285   0.000  0.00  0.00    +0.000 C 
BRANCH  16  17
ATOM     17  C   UNL     1      -2.452   0.697   0.000  0.00  0.00    +0.000 C 
BRANCH  17  18
ATOM     18  C   UNL     1      -3.166   0.285   0.000  0.00  0.00    +0.000 C 
ATOM     19  C   UNL     1      -3.881   0.697   0.000  0.00  0.00    +0.000 C 
ENDBRANCH  17  18
ENDBRANCH  16  17
ENDBRANCH  15  16
ENDBRANCH  14  15
ENDBRANCH  13  14
ENDBRANCH   6  13
TORSDOF 6
