REMARK  Name = 
REMARK  7 active torsions:
REMARK  status: ('A' for Active; 'I' for Inactive)
REMARK    1  A    between atoms: C_2  and  C_4
REMARK    2  A    between atoms: C_4  and  C_18
REMARK    3  A    between atoms: C_7  and  N_9
REMARK    4  A    between atoms: N_9  and  C_10
REMARK    5  A    between atoms: C_15  and  O_16
REMARK    6  A    between atoms: C_18  and  N_19
REMARK    7  A    between atoms: C_25  and  C_28
REMARK                            x       y       z     vdW  Elec       q    Type
REMARK                         _______ _______ _______ _____ _____    ______ ____
ROOT
ATOM      1  C   UNL     1      -2.143  -0.412   0.000  0.00  0.00    +0.000 C 
ATOM      2  C   UNL     1      -1.659  -1.080   0.000  0.00  0.00    +0.000 C 
ATOM      3  C   UNL     1      -2.143  -1.747   0.000  0.00  0.00    +0.000 C 
ATOM      4  C   UNL     1      -2.928  -1.492   0.000  0.00  0.00    +0.000 C 
ATOM      5  C   UNL     1      -2.928  -0.667   0.000  0.00  0.00    +0.000 C 
ENDROOT
BRANCH   1   7
ATOM      6  C   UNL     1      -3.300   0.427   0.000  0.00  0.00    +0.000 C 
ATOM      7  C   UNL     1      -2.479   0.341   0.000  0.00  0.00    +0.000 C 
ATOM      8  C   UNL     1      -1.994   1.009   0.000  0.00  0.00    +0.000 C 
ENDBRANCH   1   7
BRANCH   1   9
ATOM      9  C   UNL     1      -1.429   0.000   0.000  0.00  0.00    +0.000 C 
BRANCH   9  10
ATOM     10  N   UNL     1      -0.715  -0.412   0.000  0.00  0.00    +0.000 NA
ATOM     11  C   UNL     1      -0.715  -1.238   0.000  0.00  0.00    +0.000 C 
ATOM     12  C   UNL     1       0.000  -1.650   0.000  0.00  0.00    +0.000 C 
ATOM     13  C   UNL     1       0.715  -1.238   0.000  0.00  0.00    +0.000 A 
ATOM     14  C   UNL     1       0.715  -0.412   0.000  0.00  0.00    +0.000 A 
ATOM     15  C   UNL     1       1.429   0.000   0.000  0.00  0.00    +0.000 A 
ATOM     16  C   UNL     1       2.143  -0.412   0.000  0.00  0.00    +0.000 A 
ATOM     17  C   UNL     1       2.143  -1.238   0.000  0.00  0.00    +0.000 A 
ATOM     18  N   UNL     1       1.429  -1.650   0.000  0.00  0.00    +0.000 NA
ATOM     19  C   UNL     1       0.000   0.000   0.000  0.00  0.00    +0.000 C 
BRANCH  16  20
ATOM     20  C   UNL     1       2.858   0.000   0.000  0.00  0.00    +0.000 C 
ATOM     21  F   UNL     1       3.572   0.412   0.000  0.00  0.00    +0.000 F 
ATOM     22  F   UNL     1       3.270  -0.715   0.000  0.00  0.00    +0.000 F 
ATOM     23  F   UNL     1       2.445   0.715   0.000  0.00  0.00    +0.000 F 
ENDBRANCH  16  20
ENDBRANCH   9  10
ENDBRANCH   1   9
BRANCH   4  24
ATOM     24  N   UNL     1      -3.595  -1.977   0.000  0.00  0.00    +0.000 NA
BRANCH  24  25
ATOM     25  C   UNL     1      -3.509  -2.798   0.000  0.00  0.00    +0.000 C 
ATOM     26  C   UNL     1      -2.756  -3.133   0.000  0.00  0.00    +0.000 C 
ATOM     27  C   UNL     1      -2.669  -3.954   0.000  0.00  0.00    +0.000 C 
ATOM     28  O   UNL     1      -3.337  -4.439   0.000  0.00  0.00    +0.000 OA
ATOM     29  C   UNL     1      -4.090  -4.103   0.000  0.00  0.00    +0.000 C 
ATOM     30  C   UNL     1      -4.177  -3.283   0.000  0.00  0.00    +0.000 C 
BRANCH  30  31
ATOM     31  O   UNL     1      -4.930  -2.947   0.000  0.00  0.00    +0.000 OA
ATOM     32  C   UNL     1      -5.017  -2.127   0.000  0.00  0.00    +0.000 C 
ENDBRANCH  30  31
ENDBRANCH  24  25
ENDBRANCH   4  24
TORSDOF 7
