REMARK  Name = 
REMARK  5 active torsions:
REMARK  status: ('A' for Active; 'I' for Inactive)
REMARK    1  A    between atoms: C_2  and  N_4
REMARK    2  A    between atoms: C_7  and  N_10
REMARK    3  A    between atoms: N_14  and  C_17
REMARK    4  A    between atoms: C_21  and  C_23
REMARK    5  A    between atoms: N_25  and  C_26
REMARK                            x       y       z     vdW  Elec       q    Type
REMARK                         _______ _______ _______ _____ _____    ______ ____
ROOT
ATOM      1  N   UNL     1       0.278  -3.773   0.000  0.00  0.00    +0.000 NA
ATOM      2  C   UNL     1       1.021  -4.131   0.000  0.00  0.00    +0.000 C 
ATOM      3  C   UNL     1       1.205  -4.935   0.000  0.00  0.00    +0.000 C 
ATOM      4  C   UNL     1       0.690  -5.580   0.000  0.00  0.00    +0.000 C 
ATOM      5  N   UNL     1      -0.135  -5.580   0.000  0.00  0.00    +0.000 N 
ATOM      6  C   UNL     1      -0.649  -4.935   0.000  0.00  0.00    +0.000 C 
ATOM      7  C   UNL     1      -0.465  -4.131   0.000  0.00  0.00    +0.000 C 
ENDROOT
BRANCH   1  11
ATOM      8  N   UNL     1       0.278  -1.298   0.000  0.00  0.00    +0.000 NA
ATOM      9  C   UNL     1       0.992  -1.710   0.000  0.00  0.00    +0.000 C 
ATOM     10  C   UNL     1       0.992  -2.535   0.000  0.00  0.00    +0.000 C 
ATOM     11  C   UNL     1       0.278  -2.948   0.000  0.00  0.00    +0.000 C 
ATOM     12  C   UNL     1      -0.437  -2.535   0.000  0.00  0.00    +0.000 C 
ATOM     13  C   UNL     1      -0.437  -1.710   0.000  0.00  0.00    +0.000 C 
BRANCH   8  15
ATOM     14  C   UNL     1      -0.437  -0.060   0.000  0.00  0.00    +0.000 C 
ATOM     15  C   UNL     1       0.278  -0.473   0.000  0.00  0.00    +0.000 C 
ATOM     16  C   UNL     1       0.992  -0.060   0.000  0.00  0.00    +0.000 C 
ENDBRANCH   8  15
ENDBRANCH   1  11
BRANCH   5  17
ATOM     17  C   UNL     1      -0.493  -6.324   0.000  0.00  0.00    +0.000 A 
ATOM     18  C   UNL     1      -0.028  -7.005   0.000  0.00  0.00    +0.000 A 
ATOM     19  C   UNL     1      -0.386  -7.748   0.000  0.00  0.00    +0.000 A 
ATOM     20  C   UNL     1      -1.208  -7.810   0.000  0.00  0.00    +0.000 A 
ATOM     21  C   UNL     1      -1.673  -7.128   0.000  0.00  0.00    +0.000 A 
ATOM     22  N   UNL     1      -1.315  -6.385   0.000  0.00  0.00    +0.000 NA
BRANCH  21  23
ATOM     23  C   UNL     1      -2.496  -7.190   0.000  0.00  0.00    +0.000 C 
ATOM     24  O   UNL     1      -2.961  -6.508   0.000  0.00  0.00    +0.000 OA
ATOM     25  N   UNL     1      -2.854  -7.934   0.000  0.00  0.00    +0.000 NA
BRANCH  25  26
ATOM     26  C   UNL     1      -3.677  -7.995   0.000  0.00  0.00    +0.000 A 
ATOM     27  C   UNL     1      -4.035  -8.738   0.000  0.00  0.00    +0.000 A 
ATOM     28  C   UNL     1      -4.857  -8.800   0.000  0.00  0.00    +0.000 A 
ATOM     29  N   UNL     1      -5.322  -8.118   0.000  0.00  0.00    +0.000 NA
ATOM     30  C   UNL     1      -4.964  -7.375   0.000  0.00  0.00    +0.000 A 
ATOM     31  C   UNL     1      -4.141  -7.314   0.000  0.00  0.00    +0.000 A 
ENDBRANCH  25  26
ENDBRANCH  21  23
ENDBRANCH   5  17
TORSDOF 5
