REMARK  Name = 
REMARK  5 active torsions:
REMARK  status: ('A' for Active; 'I' for Inactive)
REMARK    1  A    between atoms: N_4  and  C_17
REMARK    2  A    between atoms: C_7  and  C_10
REMARK    3  A    between atoms: C_9  and  B_19
REMARK    4  A    between atoms: C_11  and  C_12
REMARK    5  A    between atoms: C_12  and  C_17
REMARK                            x       y       z     vdW  Elec       q    Type
REMARK                         _______ _______ _______ _____ _____    ______ ____
ROOT
ATOM      1  C   UNL     1       0.632   0.638   0.000  0.00  0.00    +0.000 A 
ATOM      2  C   UNL     1       0.632  -1.012   0.000  0.00  0.00    +0.000 A 
ATOM      3  C   UNL     1       1.347   0.226   0.000  0.00  0.00    +0.000 A 
ATOM      4  C   UNL     1      -0.082   0.226   0.000  0.00  0.00    +0.000 A 
ATOM      5  C   UNL     1       1.347  -0.599   0.000  0.00  0.00    +0.000 A 
ATOM      6  C   UNL     1      -0.082  -0.599   0.000  0.00  0.00    +0.000 A 
ENDROOT
BRANCH   1  11
ATOM      7  O   UNL     1       1.300   1.948   0.000  0.00  0.00    +0.000 OA
ATOM      8  O   UNL     1      -0.035   1.948   0.000  0.00  0.00    +0.000 OA
ATOM      9  C   UNL     1       1.045   2.733   0.000  0.00  0.00    +0.000 C 
ATOM     10  C   UNL     1       0.220   2.733   0.000  0.00  0.00    +0.000 C 
ATOM     11  B   UNL     1       0.632   1.463   0.000  0.00  0.00    +0.000 B 
BRANCH   9  13
ATOM     12  O   UNL     1       1.194   4.154   0.000  0.00  0.00    +0.000 OA
ATOM     13  C   UNL     1       1.530   3.400   0.000  0.00  0.00    +0.000 C 
ENDBRANCH   9  13
ENDBRANCH   1  11
BRANCH   2  14
ATOM     14  C   UNL     1       0.632  -1.837   0.000  0.00  0.00    +0.000 C 
BRANCH  14  15
ATOM     15  C   UNL     1      -0.082  -2.249   0.000  0.00  0.00    +0.000 C 
BRANCH  15  16
ATOM     16  N   UNL     1      -0.082  -3.075   0.000  0.00  0.00    +0.000 NA
ATOM     17  N   UNL     1      -0.796  -4.312   0.000  0.00  0.00    +0.000 NA
ATOM     18  N   UNL     1      -1.511  -3.075   0.000  0.00  0.00    +0.000 NA
ATOM     19  C   UNL     1      -0.796  -3.487   0.000  0.00  0.00    +0.000 C 
ENDBRANCH  15  16
ENDBRANCH  14  15
ENDBRANCH   2  14
TORSDOF 5
