REMARK  Name = 
REMARK  4 active torsions:
REMARK  status: ('A' for Active; 'I' for Inactive)
REMARK    1  A    between atoms: N_3  and  C_6
REMARK    2  A    between atoms: N_3  and  C_16
REMARK    3  A    between atoms: C_16  and  C_17
REMARK    4  A    between atoms: C_18  and  C_22
REMARK                            x       y       z     vdW  Elec       q    Type
REMARK                         _______ _______ _______ _____ _____    ______ ____
ROOT
ATOM      1  N   UNL     1       3.030   0.065   0.000  0.00  0.00    +0.000 NA
ENDROOT
BRANCH   1   3
ATOM      2  O   UNL     1       4.304  -2.538   0.000  0.00  0.00    +0.000 OA
ATOM      3  C   UNL     1       3.030  -0.760   0.000  0.00  0.00    +0.000 C 
ATOM      4  C   UNL     1       3.720  -1.955   0.000  0.00  0.00    +0.000 C 
ATOM      5  C   UNL     1       2.341  -1.955   0.000  0.00  0.00    +0.000 C 
ATOM      6  C   UNL     1       2.460  -2.314   0.000  0.00  0.00    +0.000 C 
ATOM      7  C   UNL     1       3.720  -1.158   0.000  0.00  0.00    +0.000 C 
ATOM      8  C   UNL     1       2.341  -1.158   0.000  0.00  0.00    +0.000 C 
ATOM      9  C   UNL     1       2.460  -1.452   0.000  0.00  0.00    +0.000 C 
ATOM     10  C   UNL     1       3.030  -2.205   0.000  0.00  0.00    +0.000 C 
ATOM     11  C   UNL     1       3.207  -2.707   0.000  0.00  0.00    +0.000 C 
ATOM     12  C   UNL     1       1.650  -2.353   0.000  0.00  0.00    +0.000 C 
ENDBRANCH   1   3
BRANCH   1  13
ATOM     13  C   UNL     1       3.745   0.478   0.000  0.00  0.00    +0.000 C 
BRANCH  13  16
ATOM     14  O   UNL     1       3.030   1.715   0.000  0.00  0.00    +0.000 OA
ATOM     15  N   UNL     1       4.459   1.715   0.000  0.00  0.00    +0.000 N 
ATOM     16  C   UNL     1       3.745   1.303   0.000  0.00  0.00    +0.000 C 
ATOM     17  C   UNL     1       5.213   1.380   0.000  0.00  0.00    +0.000 C 
ATOM     18  C   UNL     1       4.546   2.536   0.000  0.00  0.00    +0.000 C 
ATOM     19  C   UNL     1       5.765   1.993   0.000  0.00  0.00    +0.000 C 
ATOM     20  C   UNL     1       5.353   2.707   0.000  0.00  0.00    +0.000 C 
BRANCH  17  22
ATOM     21  N   UNL     1       5.556  -0.234   0.000  0.00  0.00    +0.000 NA
ATOM     22  C   UNL     1       5.385   0.573   0.000  0.00  0.00    +0.000 C 
ENDBRANCH  17  22
ENDBRANCH  13  16
ENDBRANCH   1  13
TORSDOF 4
