REMARK  Name = 
REMARK  4 active torsions:
REMARK  status: ('A' for Active; 'I' for Inactive)
REMARK    1  A    between atoms: C_1  and  P_2
REMARK    2  A    between atoms: C_1  and  P_3
REMARK    3  A    between atoms: C_1  and  N_4
REMARK    4  A    between atoms: N_4  and  C_11
REMARK                            x       y       z     vdW  Elec       q    Type
REMARK                         _______ _______ _______ _____ _____    ______ ____
ROOT
ATOM      1  C   UNL     1      -1.013   0.428   0.000  0.00  0.00    +0.000 C 
ENDROOT
BRANCH   1   2
ATOM      2  P   UNL     1      -1.013   1.178   0.000  0.00  0.00    +0.000 P 
ATOM      3  O   UNL     1      -0.306   1.237   0.000  0.00  0.00    +0.000 OA
ATOM      4  O   UNL     1      -1.017   1.920   0.000  0.00  0.00    +0.000 OA
ATOM      5  O   UNL     1      -1.767   1.178   0.000  0.00  0.00    +0.000 OA
ENDBRANCH   1   2
BRANCH   1   6
ATOM      6  P   UNL     1      -1.013  -0.318   0.000  0.00  0.00    +0.000 P 
ATOM      7  O   UNL     1      -0.271  -0.326   0.000  0.00  0.00    +0.000 OA
ATOM      8  O   UNL     1      -1.017  -1.068   0.000  0.00  0.00    +0.000 OA
ATOM      9  O   UNL     1      -1.767  -0.314   0.000  0.00  0.00    +0.000 OA
ENDBRANCH   1   6
BRANCH   1  10
ATOM     10  N   UNL     1      -0.236   0.365   0.000  0.00  0.00    +0.000 NA
BRANCH  10  11
ATOM     11  C   UNL     1       0.294  -0.267   0.000  0.00  0.00    +0.000 C 
ATOM     12  C   UNL     1       1.084  -0.067   0.000  0.00  0.00    +0.000 C 
ATOM     13  C   UNL     1      -0.051  -1.021   0.000  0.00  0.00    +0.000 C 
ATOM     14  C   UNL     1       1.744  -0.566   0.000  0.00  0.00    +0.000 C 
ATOM     15  C   UNL     1       0.326  -1.755   0.000  0.00  0.00    +0.000 C 
ATOM     16  C   UNL     1       1.767  -1.390   0.000  0.00  0.00    +0.000 C 
ATOM     17  C   UNL     1       1.131  -1.920   0.000  0.00  0.00    +0.000 C 
ENDBRANCH  10  11
ENDBRANCH   1  10
TORSDOF 4
