REMARK  Name = 
REMARK  8 active torsions:
REMARK  status: ('A' for Active; 'I' for Inactive)
REMARK    1  A    between atoms: C_2  and  C_3
REMARK    2  A    between atoms: C_2  and  C_10
REMARK    3  A    between atoms: C_3  and  C_11
REMARK    4  A    between atoms: C_10  and  N_27
REMARK    5  A    between atoms: C_11  and  N_28
REMARK    6  A    between atoms: C_16  and  C_20
REMARK    7  A    between atoms: C_18  and  C_21
REMARK    8  A    between atoms: N_25  and  N_29
REMARK                            x       y       z     vdW  Elec       q    Type
REMARK                         _______ _______ _______ _____ _____    ______ ____
ROOT
ATOM      1  C   UNL     1      -0.428   0.193   0.000  0.00  0.00    +0.000 C 
ATOM      2  C   UNL     1      -0.683  -0.591   0.000  0.00  0.00    +0.000 C 
ATOM      3  C   UNL     1       0.652  -0.591   0.000  0.00  0.00    +0.000 C 
ATOM      4  N   UNL     1      -0.015  -1.076   0.000  0.00  0.00    +0.000 N 
ATOM      5  N   UNL     1       0.397   0.193   0.000  0.00  0.00    +0.000 N 
ATOM      6  O   UNL     1      -1.467  -0.846   0.000  0.00  0.00    +0.000 OA
ATOM      7  O   UNL     1       1.437  -0.846   0.000  0.00  0.00    +0.000 OA
ENDROOT
BRANCH   5   9
ATOM      8  C   UNL     1       0.547   1.614   0.000  0.00  0.00    +0.000 C 
ATOM      9  N   UNL     1       0.882   0.861   0.000  0.00  0.00    +0.000 NA
BRANCH   8  12
ATOM     10  C   UNL     1       1.857   2.282   0.000  0.00  0.00    +0.000 A 
ATOM     11  C   UNL     1       2.111   3.066   0.000  0.00  0.00    +0.000 A 
ATOM     12  C   UNL     1       1.032   2.282   0.000  0.00  0.00    +0.000 A 
ATOM     13  C   UNL     1       1.444   3.551   0.000  0.00  0.00    +0.000 A 
ATOM     14  O   UNL     1       0.777   3.066   0.000  0.00  0.00    +0.000 OA
BRANCH  13  19
ATOM     15  C   UNL     1       2.159   4.789   0.000  0.00  0.00    +0.000 A 
ATOM     16  C   UNL     1       0.730   4.789   0.000  0.00  0.00    +0.000 A 
ATOM     17  C   UNL     1       2.159   5.614   0.000  0.00  0.00    +0.000 A 
ATOM     18  C   UNL     1       0.730   5.614   0.000  0.00  0.00    +0.000 A 
ATOM     19  C   UNL     1       1.444   4.376   0.000  0.00  0.00    +0.000 A 
ATOM     20  C   UNL     1       1.444   6.026   0.000  0.00  0.00    +0.000 A 
ATOM     21 CL   UNL     1       1.444   6.851   0.000  0.00  0.00    +0.000 Cl
ENDBRANCH  13  19
ENDBRANCH   8  12
ENDBRANCH   5   9
BRANCH   4  22
ATOM     22  C   UNL     1      -0.015  -1.901   0.000  0.00  0.00    +0.000 C 
BRANCH  22  23
ATOM     23  C   UNL     1      -0.730  -2.314   0.000  0.00  0.00    +0.000 C 
BRANCH  23  24
ATOM     24  C   UNL     1      -0.730  -3.139   0.000  0.00  0.00    +0.000 C 
BRANCH  24  25
ATOM     25  C   UNL     1      -1.444  -3.551   0.000  0.00  0.00    +0.000 C 
BRANCH  25  32
ATOM     26  C   UNL     1      -1.444  -6.851   0.000  0.00  0.00    +0.000 C 
ATOM     27  C   UNL     1      -0.730  -5.614   0.000  0.00  0.00    +0.000 C 
ATOM     28  C   UNL     1      -2.159  -5.614   0.000  0.00  0.00    +0.000 C 
ATOM     29  C   UNL     1      -0.730  -4.789   0.000  0.00  0.00    +0.000 C 
ATOM     30  C   UNL     1      -2.159  -4.789   0.000  0.00  0.00    +0.000 C 
ATOM     31  N   UNL     1      -1.444  -6.026   0.000  0.00  0.00    +0.000 NA
ATOM     32  N   UNL     1      -1.444  -4.376   0.000  0.00  0.00    +0.000 NA
ENDBRANCH  25  32
ENDBRANCH  24  25
ENDBRANCH  23  24
ENDBRANCH  22  23
ENDBRANCH   4  22
TORSDOF 8
