REMARK  Name = 
REMARK  11 active torsions:
REMARK  status: ('A' for Active; 'I' for Inactive)
REMARK    1  A    between atoms: C_2  and  C_4
REMARK    2  A    between atoms: C_4  and  N_5
REMARK    3  A    between atoms: N_5  and  C_6
REMARK    4  A    between atoms: N_5  and  C_10
REMARK    5  A    between atoms: C_6  and  C_7
REMARK    6  A    between atoms: C_10  and  C_11
REMARK    7  A    between atoms: C_11  and  N_12
REMARK    8  A    between atoms: N_12  and  C_13
REMARK    9  A    between atoms: N_12  and  C_17
REMARK   10  A    between atoms: C_13  and  C_14
REMARK   11  A    between atoms: C_17  and  C_18
REMARK                            x       y       z     vdW  Elec       q    Type
REMARK                         _______ _______ _______ _____ _____    ______ ____
ROOT
ATOM      1  C   UNL     1       0.357  -0.206   0.000  0.00  0.00    +0.000 C 
ENDROOT
BRANCH   1   2
ATOM      2  N   UNL     1       1.072   0.206   0.000  0.00  0.00    +0.000 NA
BRANCH   2   3
ATOM      3  C   UNL     1       1.786  -0.206   0.000  0.00  0.00    +0.000 C 
BRANCH   3   4
ATOM      4  C   UNL     1       1.786  -1.031   0.000  0.00  0.00    +0.000 C 
ATOM      5  O   UNL     1       2.501  -1.444   0.000  0.00  0.00    +0.000 OA
ATOM      6  O   UNL     1       1.072  -1.444   0.000  0.00  0.00    +0.000 OA
ENDBRANCH   3   4
ENDBRANCH   2   3
BRANCH   2   7
ATOM      7  C   UNL     1       1.072   1.031   0.000  0.00  0.00    +0.000 C 
BRANCH   7   9
ATOM      8  O   UNL     1       1.786   2.269   0.000  0.00  0.00    +0.000 OA
ATOM      9  C   UNL     1       1.786   1.444   0.000  0.00  0.00    +0.000 C 
ATOM     10  O   UNL     1       2.501   1.031   0.000  0.00  0.00    +0.000 OA
ENDBRANCH   7   9
ENDBRANCH   2   7
ENDBRANCH   1   2
BRANCH   1  11
ATOM     11  C   UNL     1      -0.357   0.206   0.000  0.00  0.00    +0.000 C 
BRANCH  11  12
ATOM     12  N   UNL     1      -1.072  -0.206   0.000  0.00  0.00    +0.000 NA
BRANCH  12  13
ATOM     13  C   UNL     1      -1.072  -1.031   0.000  0.00  0.00    +0.000 C 
BRANCH  13  14
ATOM     14  C   UNL     1      -1.786  -1.444   0.000  0.00  0.00    +0.000 C 
ATOM     15  O   UNL     1      -1.786  -2.269   0.000  0.00  0.00    +0.000 OA
ATOM     16  O   UNL     1      -2.501  -1.031   0.000  0.00  0.00    +0.000 OA
ENDBRANCH  13  14
ENDBRANCH  12  13
BRANCH  12  17
ATOM     17  C   UNL     1      -1.786   0.206   0.000  0.00  0.00    +0.000 C 
BRANCH  17  18
ATOM     18  C   UNL     1      -1.786   1.031   0.000  0.00  0.00    +0.000 C 
ATOM     19  O   UNL     1      -2.501   1.444   0.000  0.00  0.00    +0.000 OA
ATOM     20  O   UNL     1      -1.072   1.444   0.000  0.00  0.00    +0.000 OA
ENDBRANCH  17  18
ENDBRANCH  12  17
ENDBRANCH  11  12
ENDBRANCH   1  11
TORSDOF 11
