REMARK  Name = 
REMARK  2 active torsions:
REMARK  status: ('A' for Active; 'I' for Inactive)
REMARK    1  A    between atoms: C_1  and  N_2
REMARK    2  A    between atoms: N_5  and  C_6
REMARK                            x       y       z     vdW  Elec       q    Type
REMARK                         _______ _______ _______ _____ _____    ______ ____
ROOT
ATOM      1  N   UNL     1       0.357  -0.206   0.000  0.00  0.00    +0.000 NA
ATOM      2  N   UNL     1      -0.357   0.206   0.000  0.00  0.00    +0.000 NA
ENDROOT
BRANCH   1   3
ATOM      3  C   UNL     1       1.072   0.206   0.000  0.00  0.00    +0.000 C 
ATOM      4  N   UNL     1       1.786  -0.206   0.000  0.00  0.00    +0.000 NA
ATOM      5  O   UNL     1       1.072   1.031   0.000  0.00  0.00    +0.000 OA
ENDBRANCH   1   3
BRANCH   2   6
ATOM      6  C   UNL     1      -1.072  -0.206   0.000  0.00  0.00    +0.000 C 
ATOM      7  N   UNL     1      -1.072  -1.031   0.000  0.00  0.00    +0.000 NA
ATOM      8  O   UNL     1      -1.786   0.206   0.000  0.00  0.00    +0.000 OA
ENDBRANCH   2   6
TORSDOF 2
