REMARK  Name = 
REMARK  10 active torsions:
REMARK  status: ('A' for Active; 'I' for Inactive)
REMARK    1  A    between atoms: C_10  and  N_19
REMARK    2  A    between atoms: C_13  and  C_16
REMARK    3  A    between atoms: C_69  and  N_78
REMARK    4  A    between atoms: C_72  and  C_75
REMARK    5  A    between atoms: C_103  and  N_112
REMARK    6  A    between atoms: C_106  and  C_109
REMARK    7  A    between atoms: C_137  and  N_146
REMARK    8  A    between atoms: C_140  and  C_143
REMARK    9  A    between atoms: C_171  and  N_180
REMARK   10  A    between atoms: C_174  and  C_177
REMARK                            x       y       z     vdW  Elec       q    Type
REMARK                         _______ _______ _______ _____ _____    ______ ____
ROOT
ATOM      1  C   UNL     1      -1.413  -0.698   0.000  0.00  0.00    +0.000 C 
ATOM      2  C   UNL     1      -2.127  -1.111   0.000  0.00  0.00    +0.000 C 
ATOM      3  O   UNL     1      -2.127  -1.936   0.000  0.00  0.00    +0.000 OA
ATOM      4  C   UNL     1      -2.842  -0.698   0.000  0.00  0.00    +0.000 C 
ATOM      5  C   UNL     1      -2.842   0.127   0.000  0.00  0.00    +0.000 C 
ATOM      6  C   UNL     1      -2.127   0.539   0.000  0.00  0.00    +0.000 C 
ATOM      7  C   UNL     1      -1.413   0.127   0.000  0.00  0.00    +0.000 C 
ATOM      8  C   UNL     1      -0.698   0.539   0.000  0.00  0.00    +0.000 C 
ATOM      9  C   UNL     1       0.016   0.127   0.000  0.00  0.00    +0.000 C 
ATOM     10  O   UNL     1       0.731   0.539   0.000  0.00  0.00    +0.000 OA
ATOM     11  C   UNL     1       0.016  -0.698   0.000  0.00  0.00    +0.000 C 
ATOM     12  C   UNL     1      -0.698  -1.111   0.000  0.00  0.00    +0.000 C 
ATOM     13  O   UNL     1      -0.698  -1.936   0.000  0.00  0.00    +0.000 OA
ATOM     14  C   UNL     1      -3.556   0.539   0.000  0.00  0.00    +0.000 C 
ATOM     15  O   UNL     1      -4.086   1.171   0.000  0.00  0.00    +0.000 OA
ATOM     16  C   UNL     1      -3.143   1.254   0.000  0.00  0.00    +0.000 C 
ATOM     17  C   UNL     1      -4.271   0.127   0.000  0.00  0.00    +0.000 A 
ATOM     18  C   UNL     1      -4.985   0.539   0.000  0.00  0.00    +0.000 A 
ATOM     19  C   UNL     1      -5.700   0.127   0.000  0.00  0.00    +0.000 A 
ATOM     20  C   UNL     1      -5.700  -0.698   0.000  0.00  0.00    +0.000 A 
ATOM     21  C   UNL     1      -4.985  -1.111   0.000  0.00  0.00    +0.000 A 
ATOM     22  O   UNL     1      -4.985  -1.936   0.000  0.00  0.00    +0.000 OA
ATOM     23  C   UNL     1      -4.271  -0.698   0.000  0.00  0.00    +0.000 A 
ATOM     24  C   UNL     1      -3.556  -1.111   0.000  0.00  0.00    +0.000 C 
ATOM     25  O   UNL     1      -3.556  -1.936   0.000  0.00  0.00    +0.000 OA
ATOM     26  O   UNL     1      -1.413  -1.523   0.000  0.00  0.00    +0.000 OA
ENDROOT
BRANCH  11  27
ATOM     27  C   UNL     1       0.731  -1.111   0.000  0.00  0.00    +0.000 C 
ATOM     28  N   UNL     1       1.445  -0.698   0.000  0.00  0.00    +0.000 NA
ATOM     29  O   UNL     1       0.731  -1.936   0.000  0.00  0.00    +0.000 OA
ENDBRANCH  11  27
BRANCH   8  30
ATOM     30  N   UNL     1      -0.698   1.364   0.000  0.00  0.00    +0.000 NA
ATOM     31  C   UNL     1       0.016   1.777   0.000  0.00  0.00    +0.000 C 
ATOM     32  C   UNL     1      -1.413   1.777   0.000  0.00  0.00    +0.000 C 
ENDBRANCH   8  30
TORSDOF 2
REMARK  Name = 
REMARK  10 active torsions:
REMARK  status: ('A' for Active; 'I' for Inactive)
REMARK    1  A    between atoms: C_10  and  N_19
REMARK    2  A    between atoms: C_13  and  C_16
REMARK    3  A    between atoms: C_69  and  N_78
REMARK    4  A    between atoms: C_72  and  C_75
REMARK    5  A    between atoms: C_103  and  N_112
REMARK    6  A    between atoms: C_106  and  C_109
REMARK    7  A    between atoms: C_137  and  N_146
REMARK    8  A    between atoms: C_140  and  C_143
REMARK    9  A    between atoms: C_171  and  N_180
REMARK   10  A    between atoms: C_174  and  C_177
REMARK                            x       y       z     vdW  Elec       q    Type
REMARK                         _______ _______ _______ _____ _____    ______ ____
ROOT
ATOM      1  P   UNL     1       4.823   1.242   0.000  0.00  0.00    +0.000 P 
ATOM      2  O   UNL     1       4.823   2.067   0.000  0.00  0.00    +0.000 OA
ATOM      3  O   UNL     1       3.998   1.242   0.000  0.00  0.00    +0.000 OA
ATOM      4  O   UNL     1       5.406   0.659   0.000  0.00  0.00    +0.000 OA
ENDROOT
TORSDOF 0
REMARK  Name = 
REMARK  10 active torsions:
REMARK  status: ('A' for Active; 'I' for Inactive)
REMARK    1  A    between atoms: C_10  and  N_19
REMARK    2  A    between atoms: C_13  and  C_16
REMARK    3  A    between atoms: C_69  and  N_78
REMARK    4  A    between atoms: C_72  and  C_75
REMARK    5  A    between atoms: C_103  and  N_112
REMARK    6  A    between atoms: C_106  and  C_109
REMARK    7  A    between atoms: C_137  and  N_146
REMARK    8  A    between atoms: C_140  and  C_143
REMARK    9  A    between atoms: C_171  and  N_180
REMARK   10  A    between atoms: C_174  and  C_177
REMARK                            x       y       z     vdW  Elec       q    Type
REMARK                         _______ _______ _______ _____ _____    ______ ____
ROOT
ATOM      1  O   UNL     1       5.162  -2.067   0.000  0.00  0.00    +0.000 OA
ATOM      2  O   UNL     1       3.754  -1.484   0.000  0.00  0.00    +0.000 OA
ATOM      3  O   UNL     1       4.579  -0.659   0.000  0.00  0.00    +0.000 OA
ATOM      4  P   UNL     1       4.579  -1.484   0.000  0.00  0.00    +0.000 P 
ENDROOT
TORSDOF 0
REMARK  Name = 
REMARK  10 active torsions:
REMARK  status: ('A' for Active; 'I' for Inactive)
REMARK    1  A    between atoms: C_10  and  N_19
REMARK    2  A    between atoms: C_13  and  C_16
REMARK    3  A    between atoms: C_69  and  N_78
REMARK    4  A    between atoms: C_72  and  C_75
REMARK    5  A    between atoms: C_103  and  N_112
REMARK    6  A    between atoms: C_106  and  C_109
REMARK    7  A    between atoms: C_137  and  N_146
REMARK    8  A    between atoms: C_140  and  C_143
REMARK    9  A    between atoms: C_171  and  N_180
REMARK   10  A    between atoms: C_174  and  C_177
REMARK                            x       y       z     vdW  Elec       q    Type
REMARK                         _______ _______ _______ _____ _____    ______ ____
ROOT
ATOM      1 NA   UNL     1       5.700  -1.155   0.000  0.00  0.00    +0.000 Na
ENDROOT
TORSDOF 0
REMARK  Name = 
REMARK  10 active torsions:
REMARK  status: ('A' for Active; 'I' for Inactive)
REMARK    1  A    between atoms: C_10  and  N_19
REMARK    2  A    between atoms: C_13  and  C_16
REMARK    3  A    between atoms: C_69  and  N_78
REMARK    4  A    between atoms: C_72  and  C_75
REMARK    5  A    between atoms: C_103  and  N_112
REMARK    6  A    between atoms: C_106  and  C_109
REMARK    7  A    between atoms: C_137  and  N_146
REMARK    8  A    between atoms: C_140  and  C_143
REMARK    9  A    between atoms: C_171  and  N_180
REMARK   10  A    between atoms: C_174  and  C_177
REMARK                            x       y       z     vdW  Elec       q    Type
REMARK                         _______ _______ _______ _____ _____    ______ ____
ROOT
ATOM      1  P   UNL     1       4.823   1.242   0.000  0.00  0.00    +0.000 P 
ATOM      2  O   UNL     1       4.823   2.067   0.000  0.00  0.00    +0.000 OA
ATOM      3  O   UNL     1       3.998   1.242   0.000  0.00  0.00    +0.000 OA
ATOM      4  O   UNL     1       5.406   0.659   0.000  0.00  0.00    +0.000 OA
ENDROOT
TORSDOF 0
REMARK  Name = 
REMARK  10 active torsions:
REMARK  status: ('A' for Active; 'I' for Inactive)
REMARK    1  A    between atoms: C_10  and  N_19
REMARK    2  A    between atoms: C_13  and  C_16
REMARK    3  A    between atoms: C_69  and  N_78
REMARK    4  A    between atoms: C_72  and  C_75
REMARK    5  A    between atoms: C_103  and  N_112
REMARK    6  A    between atoms: C_106  and  C_109
REMARK    7  A    between atoms: C_137  and  N_146
REMARK    8  A    between atoms: C_140  and  C_143
REMARK    9  A    between atoms: C_171  and  N_180
REMARK   10  A    between atoms: C_174  and  C_177
REMARK                            x       y       z     vdW  Elec       q    Type
REMARK                         _______ _______ _______ _____ _____    ______ ____
ROOT
ATOM      1  P   UNL     1       4.823   1.242   0.000  0.00  0.00    +0.000 P 
ATOM      2  O   UNL     1       4.823   2.067   0.000  0.00  0.00    +0.000 OA
ATOM      3  O   UNL     1       3.998   1.242   0.000  0.00  0.00    +0.000 OA
ATOM      4  O   UNL     1       5.406   0.659   0.000  0.00  0.00    +0.000 OA
ENDROOT
TORSDOF 0
REMARK  Name = 
REMARK  10 active torsions:
REMARK  status: ('A' for Active; 'I' for Inactive)
REMARK    1  A    between atoms: C_10  and  N_19
REMARK    2  A    between atoms: C_13  and  C_16
REMARK    3  A    between atoms: C_69  and  N_78
REMARK    4  A    between atoms: C_72  and  C_75
REMARK    5  A    between atoms: C_103  and  N_112
REMARK    6  A    between atoms: C_106  and  C_109
REMARK    7  A    between atoms: C_137  and  N_146
REMARK    8  A    between atoms: C_140  and  C_143
REMARK    9  A    between atoms: C_171  and  N_180
REMARK   10  A    between atoms: C_174  and  C_177
REMARK                            x       y       z     vdW  Elec       q    Type
REMARK                         _______ _______ _______ _____ _____    ______ ____
ROOT
ATOM      1  P   UNL     1       4.823   1.242   0.000  0.00  0.00    +0.000 P 
ATOM      2  O   UNL     1       4.823   2.067   0.000  0.00  0.00    +0.000 OA
ATOM      3  O   UNL     1       3.998   1.242   0.000  0.00  0.00    +0.000 OA
ATOM      4  O   UNL     1       5.406   0.659   0.000  0.00  0.00    +0.000 OA
ENDROOT
TORSDOF 0
REMARK  Name = 
REMARK  10 active torsions:
REMARK  status: ('A' for Active; 'I' for Inactive)
REMARK    1  A    between atoms: C_10  and  N_19
REMARK    2  A    between atoms: C_13  and  C_16
REMARK    3  A    between atoms: C_69  and  N_78
REMARK    4  A    between atoms: C_72  and  C_75
REMARK    5  A    between atoms: C_103  and  N_112
REMARK    6  A    between atoms: C_106  and  C_109
REMARK    7  A    between atoms: C_137  and  N_146
REMARK    8  A    between atoms: C_140  and  C_143
REMARK    9  A    between atoms: C_171  and  N_180
REMARK   10  A    between atoms: C_174  and  C_177
REMARK                            x       y       z     vdW  Elec       q    Type
REMARK                         _______ _______ _______ _____ _____    ______ ____
ROOT
ATOM      1  P   UNL     1       4.823   1.242   0.000  0.00  0.00    +0.000 P 
ATOM      2  O   UNL     1       4.823   2.067   0.000  0.00  0.00    +0.000 OA
ATOM      3  O   UNL     1       3.998   1.242   0.000  0.00  0.00    +0.000 OA
ATOM      4  O   UNL     1       5.406   0.659   0.000  0.00  0.00    +0.000 OA
ENDROOT
TORSDOF 0
REMARK  Name = 
REMARK  10 active torsions:
REMARK  status: ('A' for Active; 'I' for Inactive)
REMARK    1  A    between atoms: C_10  and  N_19
REMARK    2  A    between atoms: C_13  and  C_16
REMARK    3  A    between atoms: C_69  and  N_78
REMARK    4  A    between atoms: C_72  and  C_75
REMARK    5  A    between atoms: C_103  and  N_112
REMARK    6  A    between atoms: C_106  and  C_109
REMARK    7  A    between atoms: C_137  and  N_146
REMARK    8  A    between atoms: C_140  and  C_143
REMARK    9  A    between atoms: C_171  and  N_180
REMARK   10  A    between atoms: C_174  and  C_177
REMARK                            x       y       z     vdW  Elec       q    Type
REMARK                         _______ _______ _______ _____ _____    ______ ____
ROOT
ATOM      1  C   UNL     1      -1.413  -0.698   0.000  0.00  0.00    +0.000 C 
ATOM      2  C   UNL     1      -2.127  -1.111   0.000  0.00  0.00    +0.000 C 
ATOM      3  O   UNL     1      -2.127  -1.936   0.000  0.00  0.00    +0.000 OA
ATOM      4  C   UNL     1      -2.842  -0.698   0.000  0.00  0.00    +0.000 C 
ATOM      5  C   UNL     1      -2.842   0.127   0.000  0.00  0.00    +0.000 C 
ATOM      6  C   UNL     1      -2.127   0.539   0.000  0.00  0.00    +0.000 C 
ATOM      7  C   UNL     1      -1.413   0.127   0.000  0.00  0.00    +0.000 C 
ATOM      8  C   UNL     1      -0.698   0.539   0.000  0.00  0.00    +0.000 C 
ATOM      9  C   UNL     1       0.016   0.127   0.000  0.00  0.00    +0.000 C 
ATOM     10  O   UNL     1       0.731   0.539   0.000  0.00  0.00    +0.000 OA
ATOM     11  C   UNL     1       0.016  -0.698   0.000  0.00  0.00    +0.000 C 
ATOM     12  C   UNL     1      -0.698  -1.111   0.000  0.00  0.00    +0.000 C 
ATOM     13  O   UNL     1      -0.698  -1.936   0.000  0.00  0.00    +0.000 OA
ATOM     14  C   UNL     1      -3.556   0.539   0.000  0.00  0.00    +0.000 C 
ATOM     15  O   UNL     1      -4.086   1.171   0.000  0.00  0.00    +0.000 OA
ATOM     16  C   UNL     1      -3.143   1.254   0.000  0.00  0.00    +0.000 C 
ATOM     17  C   UNL     1      -4.271   0.127   0.000  0.00  0.00    +0.000 A 
ATOM     18  C   UNL     1      -4.985   0.539   0.000  0.00  0.00    +0.000 A 
ATOM     19  C   UNL     1      -5.700   0.127   0.000  0.00  0.00    +0.000 A 
ATOM     20  C   UNL     1      -5.700  -0.698   0.000  0.00  0.00    +0.000 A 
ATOM     21  C   UNL     1      -4.985  -1.111   0.000  0.00  0.00    +0.000 A 
ATOM     22  O   UNL     1      -4.985  -1.936   0.000  0.00  0.00    +0.000 OA
ATOM     23  C   UNL     1      -4.271  -0.698   0.000  0.00  0.00    +0.000 A 
ATOM     24  C   UNL     1      -3.556  -1.111   0.000  0.00  0.00    +0.000 C 
ATOM     25  O   UNL     1      -3.556  -1.936   0.000  0.00  0.00    +0.000 OA
ATOM     26  O   UNL     1      -1.413  -1.523   0.000  0.00  0.00    +0.000 OA
ENDROOT
BRANCH  11  27
ATOM     27  C   UNL     1       0.731  -1.111   0.000  0.00  0.00    +0.000 C 
ATOM     28  N   UNL     1       1.445  -0.698   0.000  0.00  0.00    +0.000 NA
ATOM     29  O   UNL     1       0.731  -1.936   0.000  0.00  0.00    +0.000 OA
ENDBRANCH  11  27
BRANCH   8  30
ATOM     30  N   UNL     1      -0.698   1.364   0.000  0.00  0.00    +0.000 NA
ATOM     31  C   UNL     1       0.016   1.777   0.000  0.00  0.00    +0.000 C 
ATOM     32  C   UNL     1      -1.413   1.777   0.000  0.00  0.00    +0.000 C 
ENDBRANCH   8  30
TORSDOF 2
REMARK  Name = 
REMARK  10 active torsions:
REMARK  status: ('A' for Active; 'I' for Inactive)
REMARK    1  A    between atoms: C_10  and  N_19
REMARK    2  A    between atoms: C_13  and  C_16
REMARK    3  A    between atoms: C_69  and  N_78
REMARK    4  A    between atoms: C_72  and  C_75
REMARK    5  A    between atoms: C_103  and  N_112
REMARK    6  A    between atoms: C_106  and  C_109
REMARK    7  A    between atoms: C_137  and  N_146
REMARK    8  A    between atoms: C_140  and  C_143
REMARK    9  A    between atoms: C_171  and  N_180
REMARK   10  A    between atoms: C_174  and  C_177
REMARK                            x       y       z     vdW  Elec       q    Type
REMARK                         _______ _______ _______ _____ _____    ______ ____
ROOT
ATOM      1  C   UNL     1      -1.413  -0.698   0.000  0.00  0.00    +0.000 C 
ATOM      2  C   UNL     1      -2.127  -1.111   0.000  0.00  0.00    +0.000 C 
ATOM      3  O   UNL     1      -2.127  -1.936   0.000  0.00  0.00    +0.000 OA
ATOM      4  C   UNL     1      -2.842  -0.698   0.000  0.00  0.00    +0.000 C 
ATOM      5  C   UNL     1      -2.842   0.127   0.000  0.00  0.00    +0.000 C 
ATOM      6  C   UNL     1      -2.127   0.539   0.000  0.00  0.00    +0.000 C 
ATOM      7  C   UNL     1      -1.413   0.127   0.000  0.00  0.00    +0.000 C 
ATOM      8  C   UNL     1      -0.698   0.539   0.000  0.00  0.00    +0.000 C 
ATOM      9  C   UNL     1       0.016   0.127   0.000  0.00  0.00    +0.000 C 
ATOM     10  O   UNL     1       0.731   0.539   0.000  0.00  0.00    +0.000 OA
ATOM     11  C   UNL     1       0.016  -0.698   0.000  0.00  0.00    +0.000 C 
ATOM     12  C   UNL     1      -0.698  -1.111   0.000  0.00  0.00    +0.000 C 
ATOM     13  O   UNL     1      -0.698  -1.936   0.000  0.00  0.00    +0.000 OA
ATOM     14  C   UNL     1      -3.556   0.539   0.000  0.00  0.00    +0.000 C 
ATOM     15  O   UNL     1      -4.086   1.171   0.000  0.00  0.00    +0.000 OA
ATOM     16  C   UNL     1      -3.143   1.254   0.000  0.00  0.00    +0.000 C 
ATOM     17  C   UNL     1      -4.271   0.127   0.000  0.00  0.00    +0.000 A 
ATOM     18  C   UNL     1      -4.985   0.539   0.000  0.00  0.00    +0.000 A 
ATOM     19  C   UNL     1      -5.700   0.127   0.000  0.00  0.00    +0.000 A 
ATOM     20  C   UNL     1      -5.700  -0.698   0.000  0.00  0.00    +0.000 A 
ATOM     21  C   UNL     1      -4.985  -1.111   0.000  0.00  0.00    +0.000 A 
ATOM     22  O   UNL     1      -4.985  -1.936   0.000  0.00  0.00    +0.000 OA
ATOM     23  C   UNL     1      -4.271  -0.698   0.000  0.00  0.00    +0.000 A 
ATOM     24  C   UNL     1      -3.556  -1.111   0.000  0.00  0.00    +0.000 C 
ATOM     25  O   UNL     1      -3.556  -1.936   0.000  0.00  0.00    +0.000 OA
ATOM     26  O   UNL     1      -1.413  -1.523   0.000  0.00  0.00    +0.000 OA
ENDROOT
BRANCH  11  27
ATOM     27  C   UNL     1       0.731  -1.111   0.000  0.00  0.00    +0.000 C 
ATOM     28  N   UNL     1       1.445  -0.698   0.000  0.00  0.00    +0.000 NA
ATOM     29  O   UNL     1       0.731  -1.936   0.000  0.00  0.00    +0.000 OA
ENDBRANCH  11  27
BRANCH   8  30
ATOM     30  N   UNL     1      -0.698   1.364   0.000  0.00  0.00    +0.000 NA
ATOM     31  C   UNL     1       0.016   1.777   0.000  0.00  0.00    +0.000 C 
ATOM     32  C   UNL     1      -1.413   1.777   0.000  0.00  0.00    +0.000 C 
ENDBRANCH   8  30
TORSDOF 2
REMARK  Name = 
REMARK  10 active torsions:
REMARK  status: ('A' for Active; 'I' for Inactive)
REMARK    1  A    between atoms: C_10  and  N_19
REMARK    2  A    between atoms: C_13  and  C_16
REMARK    3  A    between atoms: C_69  and  N_78
REMARK    4  A    between atoms: C_72  and  C_75
REMARK    5  A    between atoms: C_103  and  N_112
REMARK    6  A    between atoms: C_106  and  C_109
REMARK    7  A    between atoms: C_137  and  N_146
REMARK    8  A    between atoms: C_140  and  C_143
REMARK    9  A    between atoms: C_171  and  N_180
REMARK   10  A    between atoms: C_174  and  C_177
REMARK                            x       y       z     vdW  Elec       q    Type
REMARK                         _______ _______ _______ _____ _____    ______ ____
ROOT
ATOM      1  C   UNL     1      -1.413  -0.698   0.000  0.00  0.00    +0.000 C 
ATOM      2  C   UNL     1      -2.127  -1.111   0.000  0.00  0.00    +0.000 C 
ATOM      3  O   UNL     1      -2.127  -1.936   0.000  0.00  0.00    +0.000 OA
ATOM      4  C   UNL     1      -2.842  -0.698   0.000  0.00  0.00    +0.000 C 
ATOM      5  C   UNL     1      -2.842   0.127   0.000  0.00  0.00    +0.000 C 
ATOM      6  C   UNL     1      -2.127   0.539   0.000  0.00  0.00    +0.000 C 
ATOM      7  C   UNL     1      -1.413   0.127   0.000  0.00  0.00    +0.000 C 
ATOM      8  C   UNL     1      -0.698   0.539   0.000  0.00  0.00    +0.000 C 
ATOM      9  C   UNL     1       0.016   0.127   0.000  0.00  0.00    +0.000 C 
ATOM     10  O   UNL     1       0.731   0.539   0.000  0.00  0.00    +0.000 OA
ATOM     11  C   UNL     1       0.016  -0.698   0.000  0.00  0.00    +0.000 C 
ATOM     12  C   UNL     1      -0.698  -1.111   0.000  0.00  0.00    +0.000 C 
ATOM     13  O   UNL     1      -0.698  -1.936   0.000  0.00  0.00    +0.000 OA
ATOM     14  C   UNL     1      -3.556   0.539   0.000  0.00  0.00    +0.000 C 
ATOM     15  O   UNL     1      -4.086   1.171   0.000  0.00  0.00    +0.000 OA
ATOM     16  C   UNL     1      -3.143   1.254   0.000  0.00  0.00    +0.000 C 
ATOM     17  C   UNL     1      -4.271   0.127   0.000  0.00  0.00    +0.000 A 
ATOM     18  C   UNL     1      -4.985   0.539   0.000  0.00  0.00    +0.000 A 
ATOM     19  C   UNL     1      -5.700   0.127   0.000  0.00  0.00    +0.000 A 
ATOM     20  C   UNL     1      -5.700  -0.698   0.000  0.00  0.00    +0.000 A 
ATOM     21  C   UNL     1      -4.985  -1.111   0.000  0.00  0.00    +0.000 A 
ATOM     22  O   UNL     1      -4.985  -1.936   0.000  0.00  0.00    +0.000 OA
ATOM     23  C   UNL     1      -4.271  -0.698   0.000  0.00  0.00    +0.000 A 
ATOM     24  C   UNL     1      -3.556  -1.111   0.000  0.00  0.00    +0.000 C 
ATOM     25  O   UNL     1      -3.556  -1.936   0.000  0.00  0.00    +0.000 OA
ATOM     26  O   UNL     1      -1.413  -1.523   0.000  0.00  0.00    +0.000 OA
ENDROOT
BRANCH  11  27
ATOM     27  C   UNL     1       0.731  -1.111   0.000  0.00  0.00    +0.000 C 
ATOM     28  N   UNL     1       1.445  -0.698   0.000  0.00  0.00    +0.000 NA
ATOM     29  O   UNL     1       0.731  -1.936   0.000  0.00  0.00    +0.000 OA
ENDBRANCH  11  27
BRANCH   8  30
ATOM     30  N   UNL     1      -0.698   1.364   0.000  0.00  0.00    +0.000 NA
ATOM     31  C   UNL     1       0.016   1.777   0.000  0.00  0.00    +0.000 C 
ATOM     32  C   UNL     1      -1.413   1.777   0.000  0.00  0.00    +0.000 C 
ENDBRANCH   8  30
TORSDOF 2
REMARK  Name = 
REMARK  10 active torsions:
REMARK  status: ('A' for Active; 'I' for Inactive)
REMARK    1  A    between atoms: C_10  and  N_19
REMARK    2  A    between atoms: C_13  and  C_16
REMARK    3  A    between atoms: C_69  and  N_78
REMARK    4  A    between atoms: C_72  and  C_75
REMARK    5  A    between atoms: C_103  and  N_112
REMARK    6  A    between atoms: C_106  and  C_109
REMARK    7  A    between atoms: C_137  and  N_146
REMARK    8  A    between atoms: C_140  and  C_143
REMARK    9  A    between atoms: C_171  and  N_180
REMARK   10  A    between atoms: C_174  and  C_177
REMARK                            x       y       z     vdW  Elec       q    Type
REMARK                         _______ _______ _______ _____ _____    ______ ____
ROOT
ATOM      1  C   UNL     1      -1.413  -0.698   0.000  0.00  0.00    +0.000 C 
ATOM      2  C   UNL     1      -2.127  -1.111   0.000  0.00  0.00    +0.000 C 
ATOM      3  O   UNL     1      -2.127  -1.936   0.000  0.00  0.00    +0.000 OA
ATOM      4  C   UNL     1      -2.842  -0.698   0.000  0.00  0.00    +0.000 C 
ATOM      5  C   UNL     1      -2.842   0.127   0.000  0.00  0.00    +0.000 C 
ATOM      6  C   UNL     1      -2.127   0.539   0.000  0.00  0.00    +0.000 C 
ATOM      7  C   UNL     1      -1.413   0.127   0.000  0.00  0.00    +0.000 C 
ATOM      8  C   UNL     1      -0.698   0.539   0.000  0.00  0.00    +0.000 C 
ATOM      9  C   UNL     1       0.016   0.127   0.000  0.00  0.00    +0.000 C 
ATOM     10  O   UNL     1       0.731   0.539   0.000  0.00  0.00    +0.000 OA
ATOM     11  C   UNL     1       0.016  -0.698   0.000  0.00  0.00    +0.000 C 
ATOM     12  C   UNL     1      -0.698  -1.111   0.000  0.00  0.00    +0.000 C 
ATOM     13  O   UNL     1      -0.698  -1.936   0.000  0.00  0.00    +0.000 OA
ATOM     14  C   UNL     1      -3.556   0.539   0.000  0.00  0.00    +0.000 C 
ATOM     15  O   UNL     1      -4.086   1.171   0.000  0.00  0.00    +0.000 OA
ATOM     16  C   UNL     1      -3.143   1.254   0.000  0.00  0.00    +0.000 C 
ATOM     17  C   UNL     1      -4.271   0.127   0.000  0.00  0.00    +0.000 A 
ATOM     18  C   UNL     1      -4.985   0.539   0.000  0.00  0.00    +0.000 A 
ATOM     19  C   UNL     1      -5.700   0.127   0.000  0.00  0.00    +0.000 A 
ATOM     20  C   UNL     1      -5.700  -0.698   0.000  0.00  0.00    +0.000 A 
ATOM     21  C   UNL     1      -4.985  -1.111   0.000  0.00  0.00    +0.000 A 
ATOM     22  O   UNL     1      -4.985  -1.936   0.000  0.00  0.00    +0.000 OA
ATOM     23  C   UNL     1      -4.271  -0.698   0.000  0.00  0.00    +0.000 A 
ATOM     24  C   UNL     1      -3.556  -1.111   0.000  0.00  0.00    +0.000 C 
ATOM     25  O   UNL     1      -3.556  -1.936   0.000  0.00  0.00    +0.000 OA
ATOM     26  O   UNL     1      -1.413  -1.523   0.000  0.00  0.00    +0.000 OA
ENDROOT
BRANCH  11  27
ATOM     27  C   UNL     1       0.731  -1.111   0.000  0.00  0.00    +0.000 C 
ATOM     28  N   UNL     1       1.445  -0.698   0.000  0.00  0.00    +0.000 NA
ATOM     29  O   UNL     1       0.731  -1.936   0.000  0.00  0.00    +0.000 OA
ENDBRANCH  11  27
BRANCH   8  30
ATOM     30  N   UNL     1      -0.698   1.364   0.000  0.00  0.00    +0.000 NA
ATOM     31  C   UNL     1       0.016   1.777   0.000  0.00  0.00    +0.000 C 
ATOM     32  C   UNL     1      -1.413   1.777   0.000  0.00  0.00    +0.000 C 
ENDBRANCH   8  30
TORSDOF 2
