REMARK  Name = 
REMARK  6 active torsions:
REMARK  status: ('A' for Active; 'I' for Inactive)
REMARK    1  A    between atoms: C_3  and  O_20
REMARK    2  A    between atoms: C_7  and  C_8
REMARK    3  A    between atoms: C_8  and  S_9
REMARK    4  A    between atoms: S_9  and  C_11
REMARK    5  A    between atoms: O_20  and  C_21
REMARK    6  A    between atoms: C_21  and  C_22
REMARK                            x       y       z     vdW  Elec       q    Type
REMARK                         _______ _______ _______ _____ _____    ______ ____
ROOT
ATOM      1  C   UNL     1      -0.580  -0.770   0.000  0.00  0.00    +0.000 C 
ATOM      2  C   UNL     1      -0.992  -0.055   0.000  0.00  0.00    +0.000 A 
ATOM      3  C   UNL     1      -1.817  -0.055   0.000  0.00  0.00    +0.000 A 
ATOM      4  C   UNL     1      -2.229   0.659   0.000  0.00  0.00    +0.000 A 
ATOM      5  C   UNL     1      -1.817   1.374   0.000  0.00  0.00    +0.000 A 
ATOM      6  N   UNL     1      -0.992   1.374   0.000  0.00  0.00    +0.000 NA
ATOM      7  C   UNL     1      -0.580   0.659   0.000  0.00  0.00    +0.000 A 
ENDROOT
BRANCH   7   8
ATOM      8  C   UNL     1       0.245   0.659   0.000  0.00  0.00    +0.000 C 
BRANCH   8   9
ATOM      9  S   UNL     1       0.658   1.374   0.000  0.00  0.00    +0.000 S 
ATOM     10  O   UNL     1       0.245   2.088   0.000  0.00  0.00    +0.000 OA
BRANCH   9  11
ATOM     11  C   UNL     1       1.483   1.374   0.000  0.00  0.00    +0.000 A 
ATOM     12  N   UNL     1       1.968   2.041   0.000  0.00  0.00    +0.000 NA
ATOM     13  C   UNL     1       2.752   1.786   0.000  0.00  0.00    +0.000 A 
ATOM     14  C   UNL     1       3.467   2.199   0.000  0.00  0.00    +0.000 A 
ATOM     15  C   UNL     1       4.181   1.786   0.000  0.00  0.00    +0.000 A 
ATOM     16  C   UNL     1       4.181   0.961   0.000  0.00  0.00    +0.000 A 
ATOM     17  C   UNL     1       3.467   0.549   0.000  0.00  0.00    +0.000 A 
ATOM     18  C   UNL     1       2.752   0.961   0.000  0.00  0.00    +0.000 A 
ATOM     19  N   UNL     1       1.968   0.706   0.000  0.00  0.00    +0.000 NA
ENDBRANCH   9  11
ENDBRANCH   8   9
ENDBRANCH   7   8
BRANCH   3  20
ATOM     20  O   UNL     1      -2.229  -0.770   0.000  0.00  0.00    +0.000 OA
BRANCH  20  21
ATOM     21  C   UNL     1      -3.054  -0.770   0.000  0.00  0.00    +0.000 C 
BRANCH  21  22
ATOM     22  C   UNL     1      -3.467  -1.484   0.000  0.00  0.00    +0.000 C 
ATOM     23  F   UNL     1      -3.880  -2.199   0.000  0.00  0.00    +0.000 F 
ATOM     24  F   UNL     1      -4.181  -1.072   0.000  0.00  0.00    +0.000 F 
ATOM     25  F   UNL     1      -2.752  -1.897   0.000  0.00  0.00    +0.000 F 
ENDBRANCH  21  22
ENDBRANCH  20  21
ENDBRANCH   3  20
TORSDOF 6
