REMARK  Name = 
REMARK  3 active torsions:
REMARK  status: ('A' for Active; 'I' for Inactive)
REMARK    1  A    between atoms: C_5  and  C_12
REMARK    2  A    between atoms: C_7  and  O_8
REMARK    3  A    between atoms: O_8  and  C_9
REMARK                            x       y       z     vdW  Elec       q    Type
REMARK                         _______ _______ _______ _____ _____    ______ ____
ROOT
ATOM      1  C   UNL     1      -1.265   2.192   0.000  0.00  0.00    +0.000 A 
ATOM      2  C   UNL     1      -0.551   1.779   0.000  0.00  0.00    +0.000 A 
ATOM      3  C   UNL     1      -0.551   0.954   0.000  0.00  0.00    +0.000 A 
ATOM      4  N   UNL     1      -1.265   0.542   0.000  0.00  0.00    +0.000 NA
ATOM      5  C   UNL     1      -1.980   0.954   0.000  0.00  0.00    +0.000 A 
ATOM      6  N   UNL     1      -1.980   1.779   0.000  0.00  0.00    +0.000 NA
ATOM      7  N   UNL     1      -2.694   0.542   0.000  0.00  0.00    +0.000 N 
ATOM      8  C   UNL     1      -2.781  -0.279   0.000  0.00  0.00    +0.000 C 
ATOM      9  C   UNL     1      -3.588  -0.450   0.000  0.00  0.00    +0.000 C 
ATOM     10  C   UNL     1      -4.000   0.264   0.000  0.00  0.00    +0.000 C 
ATOM     11  F   UNL     1      -4.668  -0.221   0.000  0.00  0.00    +0.000 F 
ATOM     12  F   UNL     1      -4.552   0.877   0.000  0.00  0.00    +0.000 F 
ATOM     13  C   UNL     1      -3.448   0.877   0.000  0.00  0.00    +0.000 C 
ATOM     14  N   UNL     1       0.164   0.542   0.000  0.00  0.00    +0.000 N 
ATOM     15  C   UNL     1       0.164  -0.283   0.000  0.00  0.00    +0.000 C 
ATOM     16  C   UNL     1       0.878  -0.696   0.000  0.00  0.00    +0.000 C 
ATOM     17  C   UNL     1       0.672   0.129   0.000  0.00  0.00    +0.000 C 
ATOM     18  C   UNL     1       0.878   0.954   0.000  0.00  0.00    +0.000 C 
ATOM     19  C   UNL     1       1.593   0.542   0.000  0.00  0.00    +0.000 C 
ATOM     20  O   UNL     1       1.593  -0.283   0.000  0.00  0.00    +0.000 OA
ENDROOT
BRANCH   1  25
ATOM     21  N   UNL     1      -1.265   5.492   0.000  0.00  0.00    +0.000 NA
ATOM     22  C   UNL     1      -1.265   4.667   0.000  0.00  0.00    +0.000 A 
ATOM     23  N   UNL     1      -0.551   4.254   0.000  0.00  0.00    +0.000 NA
ATOM     24  C   UNL     1      -0.551   3.429   0.000  0.00  0.00    +0.000 A 
ATOM     25  C   UNL     1      -1.265   3.017   0.000  0.00  0.00    +0.000 A 
ATOM     26  C   UNL     1      -1.980   3.429   0.000  0.00  0.00    +0.000 A 
ATOM     27  C   UNL     1      -1.980   4.254   0.000  0.00  0.00    +0.000 A 
BRANCH  27  28
ATOM     28  O   UNL     1      -2.694   4.667   0.000  0.00  0.00    +0.000 OA
BRANCH  28  29
ATOM     29  C   UNL     1      -2.694   5.492   0.000  0.00  0.00    +0.000 C 
ATOM     30  F   UNL     1      -3.409   5.904   0.000  0.00  0.00    +0.000 F 
ATOM     31  F   UNL     1      -1.980   5.904   0.000  0.00  0.00    +0.000 F 
ENDBRANCH  28  29
ENDBRANCH  27  28
ENDBRANCH   1  25
TORSDOF 3
