REMARK  Name = 
REMARK  3 active torsions:
REMARK  status: ('A' for Active; 'I' for Inactive)
REMARK    1  A    between atoms: N_3  and  N_4
REMARK    2  A    between atoms: N_3  and  C_9
REMARK    3  A    between atoms: C_11  and  C_18
REMARK                            x       y       z     vdW  Elec       q    Type
REMARK                         _______ _______ _______ _____ _____    ______ ____
ROOT
ATOM      1  N   UNL     1      -0.202   0.524   0.000  0.00  0.00    +0.000 NA
ENDROOT
BRANCH   1   2
ATOM      2  N   UNL     1       0.513   0.937   0.000  0.00  0.00    +0.000 NA
ATOM      3  N   UNL     1       0.925   3.031   0.000  0.00  0.00    +0.000 NA
ATOM      4  N   UNL     1       0.100   3.031   0.000  0.00  0.00    +0.000 NA
ATOM      5  N   UNL     1       1.965   1.992   0.000  0.00  0.00    +0.000 NA
ATOM      6  N   UNL     1      -0.939   1.992   0.000  0.00  0.00    +0.000 NA
ATOM      7  C   UNL     1       0.513   1.762   0.000  0.00  0.00    +0.000 C 
ATOM      8  C   UNL     1       1.180   2.247   0.000  0.00  0.00    +0.000 C 
ATOM      9  C   UNL     1      -0.154   2.247   0.000  0.00  0.00    +0.000 C 
ENDBRANCH   1   2
BRANCH   1  10
ATOM     10  C   UNL     1      -0.202  -0.301   0.000  0.00  0.00    +0.000 A 
ATOM     11  C   UNL     1      -0.916  -0.713   0.000  0.00  0.00    +0.000 A 
ATOM     12  C   UNL     1      -0.916  -1.538   0.000  0.00  0.00    +0.000 A 
ATOM     13  C   UNL     1       0.513  -0.713   0.000  0.00  0.00    +0.000 A 
ATOM     14  C   UNL     1      -0.202  -1.951   0.000  0.00  0.00    +0.000 A 
ATOM     15  C   UNL     1       0.513  -1.538   0.000  0.00  0.00    +0.000 A 
BRANCH  12  18
ATOM     16  O   UNL     1      -1.631  -2.776   0.000  0.00  0.00    +0.000 OA
ATOM     17  O   UNL     1      -2.345  -1.538   0.000  0.00  0.00    +0.000 OA
ATOM     18  C   UNL     1      -1.631  -1.951   0.000  0.00  0.00    +0.000 C 
ENDBRANCH  12  18
ENDBRANCH   1  10
TORSDOF 3
