REMARK  Name = 
REMARK  6 active torsions:
REMARK  status: ('A' for Active; 'I' for Inactive)
REMARK    1  A    between atoms: N_2  and  S_4
REMARK    2  A    between atoms: S_4  and  C_7
REMARK    3  A    between atoms: C_12  and  N_13
REMARK    4  A    between atoms: N_17  and  C_18
REMARK    5  A    between atoms: C_21  and  C_22
REMARK    6  A    between atoms: C_22  and  N_23
REMARK                            x       y       z     vdW  Elec       q    Type
REMARK                         _______ _______ _______ _____ _____    ______ ____
ROOT
ATOM      1  N   UNL     1       9.288  -1.238   0.000  0.00  0.00    +0.000 NA
ATOM      2  C   UNL     1      10.003  -1.650   0.000  0.00  0.00    +0.000 A 
ATOM      3  N   UNL     1      10.717  -1.238   0.000  0.00  0.00    +0.000 NA
ATOM      4  C   UNL     1      11.431  -1.650   0.000  0.00  0.00    +0.000 A 
ATOM      5  N   UNL     1      12.146  -1.238   0.000  0.00  0.00    +0.000 NA
ATOM      6  N   UNL     1      11.431  -2.475   0.000  0.00  0.00    +0.000 NA
ATOM      7  C   UNL     1      10.717  -2.888   0.000  0.00  0.00    +0.000 A 
ATOM      8  C   UNL     1      10.003  -2.475   0.000  0.00  0.00    +0.000 A 
ATOM      9 CL   UNL     1       9.288  -2.888   0.000  0.00  0.00    +0.000 Cl
ENDROOT
BRANCH   1  15
ATOM     10  C   UNL     1       7.859  -1.238   0.000  0.00  0.00    +0.000 A 
ATOM     11  C   UNL     1       7.145  -1.650   0.000  0.00  0.00    +0.000 A 
ATOM     12  C   UNL     1       7.145  -2.475   0.000  0.00  0.00    +0.000 A 
ATOM     13  C   UNL     1       7.859  -2.888   0.000  0.00  0.00    +0.000 A 
ATOM     14  C   UNL     1       8.574  -2.475   0.000  0.00  0.00    +0.000 A 
ATOM     15  C   UNL     1       8.574  -1.650   0.000  0.00  0.00    +0.000 A 
BRANCH  10  16
ATOM     16  S   UNL     1       7.859  -0.412   0.000  0.00  0.00    +0.000 S 
ATOM     17  O   UNL     1       7.034  -0.412   0.000  0.00  0.00    +0.000 OA
ATOM     18  O   UNL     1       8.684  -0.412   0.000  0.00  0.00    +0.000 OA
BRANCH  16  20
ATOM     19  C   UNL     1       8.574   0.825   0.000  0.00  0.00    +0.000 C 
ATOM     20  N   UNL     1       7.859   0.412   0.000  0.00  0.00    +0.000 NA
ATOM     21  C   UNL     1       7.145   0.825   0.000  0.00  0.00    +0.000 C 
ENDBRANCH  16  20
ENDBRANCH  10  16
ENDBRANCH   1  15
BRANCH   5  22
ATOM     22  C   UNL     1      12.861  -1.650   0.000  0.00  0.00    +0.000 A 
ATOM     23  C   UNL     1      13.575  -1.238   0.000  0.00  0.00    +0.000 A 
ATOM     24  C   UNL     1      14.289  -1.650   0.000  0.00  0.00    +0.000 A 
ATOM     25  C   UNL     1      14.289  -2.475   0.000  0.00  0.00    +0.000 A 
ATOM     26  C   UNL     1      13.575  -2.888   0.000  0.00  0.00    +0.000 A 
ATOM     27  C   UNL     1      12.861  -2.475   0.000  0.00  0.00    +0.000 A 
BRANCH  25  28
ATOM     28  C   UNL     1      15.004  -2.888   0.000  0.00  0.00    +0.000 C 
BRANCH  28  29
ATOM     29  N   UNL     1      15.004  -3.712   0.000  0.00  0.00    +0.000 NA
ATOM     30  C   UNL     1      15.718  -4.125   0.000  0.00  0.00    +0.000 C 
ATOM     31  C   UNL     1      15.718  -4.950   0.000  0.00  0.00    +0.000 C 
ATOM     32  N   UNL     1      15.004  -5.362   0.000  0.00  0.00    +0.000 NA
ATOM     33  C   UNL     1      15.004  -6.188   0.000  0.00  0.00    +0.000 C 
ATOM     34  C   UNL     1      14.289  -4.950   0.000  0.00  0.00    +0.000 C 
ATOM     35  C   UNL     1      14.289  -4.125   0.000  0.00  0.00    +0.000 C 
ENDBRANCH  28  29
ENDBRANCH  25  28
ENDBRANCH   5  22
TORSDOF 6
