REMARK  Name = 
REMARK  10 active torsions:
REMARK  status: ('A' for Active; 'I' for Inactive)
REMARK    1  A    between atoms: C_1  and  C_2
REMARK    2  A    between atoms: C_3  and  C_5
REMARK    3  A    between atoms: C_6  and  C_7
REMARK    4  A    between atoms: C_8  and  C_10
REMARK    5  A    between atoms: C_11  and  C_12
REMARK    6  A    between atoms: C_13  and  C_14
REMARK    7  A    between atoms: C_16  and  C_17
REMARK    8  A    between atoms: C_18  and  C_19
REMARK    9  A    between atoms: C_21  and  C_23
REMARK   10  A    between atoms: C_35  and  C_37
REMARK                            x       y       z     vdW  Elec       q    Type
REMARK                         _______ _______ _______ _____ _____    ______ ____
ROOT
ATOM      1  C   UNL     1      -0.357   0.211   0.000  0.00  0.00    +0.000 C 
ATOM      2  C   UNL     1       0.358  -0.202   0.000  0.00  0.00    +0.000 C 
ENDROOT
BRANCH   2   3
ATOM      3  C   UNL     1       1.072   0.211   0.000  0.00  0.00    +0.000 C 
ATOM      4  C   UNL     1       1.787  -0.202   0.000  0.00  0.00    +0.000 C 
ATOM      5  C   UNL     1       1.787  -1.027   0.000  0.00  0.00    +0.000 C 
BRANCH   4   6
ATOM      6  C   UNL     1       2.501   0.211   0.000  0.00  0.00    +0.000 C 
ATOM      7  C   UNL     1       3.216  -0.202   0.000  0.00  0.00    +0.000 C 
BRANCH   7   8
ATOM      8  C   UNL     1       3.930   0.211   0.000  0.00  0.00    +0.000 C 
ATOM      9  C   UNL     1       4.644  -0.202   0.000  0.00  0.00    +0.000 C 
ATOM     10  C   UNL     1       4.644  -1.027   0.000  0.00  0.00    +0.000 C 
BRANCH   9  11
ATOM     11  C   UNL     1       5.359   0.211   0.000  0.00  0.00    +0.000 C 
ATOM     12  C   UNL     1       6.073  -0.202   0.000  0.00  0.00    +0.000 C 
BRANCH  12  13
ATOM     13  C   UNL     1       6.788   0.211   0.000  0.00  0.00    +0.000 C 
ATOM     14  C   UNL     1       6.788   1.036   0.000  0.00  0.00    +0.000 C 
ATOM     15  C   UNL     1       8.217   0.211   0.000  0.00  0.00    +0.000 C 
ATOM     16  C   UNL     1       7.502   1.448   0.000  0.00  0.00    +0.000 C 
ATOM     17  C   UNL     1       6.073   1.448   0.000  0.00  0.00    +0.000 C 
ATOM     18  C   UNL     1       8.217   1.036   0.000  0.00  0.00    +0.000 C 
ATOM     19  O   UNL     1       7.502   2.273   0.000  0.00  0.00    +0.000 OA
ATOM     20  O   UNL     1       8.931   1.448   0.000  0.00  0.00    +0.000 OA
ATOM     21  C   UNL     1       7.915  -0.916   0.000  0.00  0.00    +0.000 C 
ATOM     22  C   UNL     1       7.502  -0.202   0.000  0.00  0.00    +0.000 C 
ATOM     23  C   UNL     1       7.090  -0.916   0.000  0.00  0.00    +0.000 C 
ENDBRANCH  12  13
ENDBRANCH   9  11
ENDBRANCH   7   8
ENDBRANCH   4   6
ENDBRANCH   2   3
BRANCH   1  25
ATOM     24  C   UNL     1      -1.786   0.211   0.000  0.00  0.00    +0.000 C 
ATOM     25  C   UNL     1      -1.071  -0.202   0.000  0.00  0.00    +0.000 C 
ATOM     26  C   UNL     1      -1.786   1.036   0.000  0.00  0.00    +0.000 C 
BRANCH  24  28
ATOM     27  C   UNL     1      -3.215   0.211   0.000  0.00  0.00    +0.000 C 
ATOM     28  C   UNL     1      -2.500  -0.202   0.000  0.00  0.00    +0.000 C 
BRANCH  27  30
ATOM     29  C   UNL     1      -4.644   0.211   0.000  0.00  0.00    +0.000 C 
ATOM     30  C   UNL     1      -3.929  -0.202   0.000  0.00  0.00    +0.000 C 
ATOM     31  C   UNL     1      -4.644   1.036   0.000  0.00  0.00    +0.000 C 
BRANCH  29  32
ATOM     32  C   UNL     1      -5.358  -0.202   0.000  0.00  0.00    +0.000 C 
ATOM     33  C   UNL     1      -6.073   0.211   0.000  0.00  0.00    +0.000 C 
BRANCH  33  36
ATOM     34  C   UNL     1      -7.502  -1.439   0.000  0.00  0.00    +0.000 C 
ATOM     35  C   UNL     1      -8.216  -1.027   0.000  0.00  0.00    +0.000 C 
ATOM     36  C   UNL     1      -6.787  -0.202   0.000  0.00  0.00    +0.000 C 
ATOM     37  C   UNL     1      -6.787  -1.027   0.000  0.00  0.00    +0.000 C 
ATOM     38  C   UNL     1      -8.216  -0.202   0.000  0.00  0.00    +0.000 C 
ATOM     39  C   UNL     1      -7.502   0.211   0.000  0.00  0.00    +0.000 C 
ATOM     40  C   UNL     1      -6.073  -1.439   0.000  0.00  0.00    +0.000 C 
ATOM     41  O   UNL     1      -7.502  -2.264   0.000  0.00  0.00    +0.000 OA
ATOM     42  O   UNL     1      -8.931  -1.439   0.000  0.00  0.00    +0.000 OA
ATOM     43  C   UNL     1      -7.914   0.925   0.000  0.00  0.00    +0.000 C 
ATOM     44  C   UNL     1      -7.089   0.925   0.000  0.00  0.00    +0.000 C 
ENDBRANCH  33  36
ENDBRANCH  29  32
ENDBRANCH  27  30
ENDBRANCH  24  28
ENDBRANCH   1  25
TORSDOF 10
