REMARK  Name = 
REMARK  12 active torsions:
REMARK  status: ('A' for Active; 'I' for Inactive)
REMARK    1  A    between atoms: C_21  and  C_22
REMARK    2  A    between atoms: C_21  and  N_37
REMARK    3  A    between atoms: C_22  and  O_45
REMARK    4  A    between atoms: C_26  and  C_33
REMARK    5  A    between atoms: C_27  and  C_33
REMARK    6  A    between atoms: C_28  and  C_32
REMARK    7  A    between atoms: C_29  and  N_39
REMARK    8  A    between atoms: C_30  and  C_34
REMARK    9  A    between atoms: C_31  and  C_35
REMARK   10  A    between atoms: C_33  and  N_38
REMARK   11  A    between atoms: C_34  and  O_44
REMARK   12  A    between atoms: C_35  and  O_45
REMARK                            x       y       z     vdW  Elec       q    Type
REMARK                         _______ _______ _______ _____ _____    ______ ____
ROOT
ATOM      1  C   UNL     1       9.288  11.963   0.000  0.00  0.00    +0.000 C 
ATOM      2  O   UNL     1       8.574  12.375   0.000  0.00  0.00    +0.000 OA
ENDROOT
BRANCH   1   8
ATOM      3  C   UNL     1      12.146  13.613   0.000  0.00  0.00    +0.000 C 
ATOM      4  C   UNL     1      10.717  11.137   0.000  0.00  0.00    +0.000 C 
ATOM      5  C   UNL     1      11.431  13.200   0.000  0.00  0.00    +0.000 C 
ATOM      6  C   UNL     1      10.717  11.963   0.000  0.00  0.00    +0.000 C 
ATOM      7  C   UNL     1      10.717  13.613   0.000  0.00  0.00    +0.000 C 
ATOM      8  C   UNL     1      10.003  12.375   0.000  0.00  0.00    +0.000 C 
ATOM      9  C   UNL     1      10.003  13.200   0.000  0.00  0.00    +0.000 C 
ATOM     10  N   UNL     1      11.431  12.375   0.000  0.00  0.00    +0.000 NA
BRANCH   9  15
ATOM     11  C   UNL     1       7.859  13.613   0.000  0.00  0.00    +0.000 A 
ATOM     12  C   UNL     1       8.574  13.200   0.000  0.00  0.00    +0.000 A 
ATOM     13  C   UNL     1       7.859  14.438   0.000  0.00  0.00    +0.000 A 
ATOM     14  C   UNL     1       9.288  14.438   0.000  0.00  0.00    +0.000 A 
ATOM     15  C   UNL     1       9.288  13.613   0.000  0.00  0.00    +0.000 A 
ATOM     16  C   UNL     1       8.574  14.850   0.000  0.00  0.00    +0.000 A 
BRANCH  16  17
ATOM     17  N   UNL     1       8.574  15.675   0.000  0.00  0.00    +0.000 N 
ATOM     18  O   UNL     1       9.288  16.087   0.000  0.00  0.00    +0.000 OA
ATOM     19  O   UNL     1       7.859  16.087   0.000  0.00  0.00    +0.000 OA
ENDBRANCH  16  17
ENDBRANCH   9  15
BRANCH   7  20
ATOM     20  C   UNL     1      10.717  14.438   0.000  0.00  0.00    +0.000 C 
ATOM     21  O   UNL     1      11.431  14.850   0.000  0.00  0.00    +0.000 OA
BRANCH  20  23
ATOM     22  C   UNL     1      10.003  15.675   0.000  0.00  0.00    +0.000 C 
ATOM     23  O   UNL     1      10.003  14.850   0.000  0.00  0.00    +0.000 OA
ENDBRANCH  20  23
ENDBRANCH   7  20
ENDBRANCH   1   8
BRANCH   1  24
ATOM     24  O   UNL     1       9.288  11.137   0.000  0.00  0.00    +0.000 OA
BRANCH  24  25
ATOM     25  C   UNL     1       8.574  10.725   0.000  0.00  0.00    +0.000 C 
BRANCH  25  26
ATOM     26  C   UNL     1       8.574   9.900   0.000  0.00  0.00    +0.000 C 
BRANCH  26  31
ATOM     27  C   UNL     1       7.145   9.900   0.000  0.00  0.00    +0.000 C 
ATOM     28  C   UNL     1       7.859   8.662   0.000  0.00  0.00    +0.000 C 
ATOM     29  C   UNL     1       6.430   9.488   0.000  0.00  0.00    +0.000 C 
ATOM     30  C   UNL     1       7.145   8.250   0.000  0.00  0.00    +0.000 C 
ATOM     31  N   UNL     1       7.859   9.488   0.000  0.00  0.00    +0.000 NA
ATOM     32  N   UNL     1       6.430   8.662   0.000  0.00  0.00    +0.000 NA
BRANCH  32  33
ATOM     33  C   UNL     1       5.716   8.250   0.000  0.00  0.00    +0.000 C 
BRANCH  33  39
ATOM     34  C   UNL     1       5.716   5.775   0.000  0.00  0.00    +0.000 A 
ATOM     35  C   UNL     1       6.430   6.188   0.000  0.00  0.00    +0.000 A 
ATOM     36  C   UNL     1       5.001   6.188   0.000  0.00  0.00    +0.000 A 
ATOM     37  C   UNL     1       6.430   7.013   0.000  0.00  0.00    +0.000 A 
ATOM     38  C   UNL     1       5.001   7.013   0.000  0.00  0.00    +0.000 A 
ATOM     39  C   UNL     1       5.716   7.425   0.000  0.00  0.00    +0.000 A 
ENDBRANCH  33  39
BRANCH  33  45
ATOM     40  C   UNL     1       3.572   9.488   0.000  0.00  0.00    +0.000 A 
ATOM     41  C   UNL     1       3.572   8.662   0.000  0.00  0.00    +0.000 A 
ATOM     42  C   UNL     1       4.287   9.900   0.000  0.00  0.00    +0.000 A 
ATOM     43  C   UNL     1       4.287   8.250   0.000  0.00  0.00    +0.000 A 
ATOM     44  C   UNL     1       5.001   9.488   0.000  0.00  0.00    +0.000 A 
ATOM     45  C   UNL     1       5.001   8.662   0.000  0.00  0.00    +0.000 A 
ENDBRANCH  33  45
ENDBRANCH  32  33
ENDBRANCH  26  31
ENDBRANCH  25  26
ENDBRANCH  24  25
ENDBRANCH   1  24
TORSDOF 12
