REMARK  Name = 
REMARK  4 active torsions:
REMARK  status: ('A' for Active; 'I' for Inactive)
REMARK    1  A    between atoms: C_3  and  C_9
REMARK    2  A    between atoms: C_12  and  O_21
REMARK    3  A    between atoms: O_21  and  C_22
REMARK    4  A    between atoms: C_27  and  N_30
REMARK                            x       y       z     vdW  Elec       q    Type
REMARK                         _______ _______ _______ _____ _____    ______ ____
ROOT
ATOM      1  C   UNL     1      -3.682  12.897   0.000  0.00  0.00    +0.000 C 
ATOM      2  C   UNL     1      -2.994  12.442   0.000  0.00  0.00    +0.000 C 
ATOM      3  C   UNL     1      -2.920  11.620   0.000  0.00  0.00    +0.000 C 
ATOM      4  C   UNL     1      -3.516  11.050   0.000  0.00  0.00    +0.000 C 
ATOM      5  C   UNL     1      -4.333  11.161   0.000  0.00  0.00    +0.000 A 
ATOM      6  C   UNL     1      -4.757  11.869   0.000  0.00  0.00    +0.000 A 
ATOM      7  C   UNL     1      -5.582  11.857   0.000  0.00  0.00    +0.000 A 
ATOM      8  C   UNL     1      -5.983  11.136   0.000  0.00  0.00    +0.000 A 
ATOM      9  C   UNL     1      -5.560  10.428   0.000  0.00  0.00    +0.000 A 
ATOM     10  N   UNL     1      -4.735  10.441   0.000  0.00  0.00    +0.000 NA
ATOM     11  C   UNL     1      -4.467  12.642   0.000  0.00  0.00    +0.000 C 
ATOM     12  N   UNL     1      -5.037  13.238   0.000  0.00  0.00    +0.000 NA
ENDROOT
BRANCH   1  15
ATOM     13  C   UNL     1      -2.697  14.845   0.000  0.00  0.00    +0.000 A 
ATOM     14  C   UNL     1      -2.808  14.027   0.000  0.00  0.00    +0.000 A 
ATOM     15  C   UNL     1      -3.571  13.714   0.000  0.00  0.00    +0.000 A 
ATOM     16  C   UNL     1      -4.224  14.219   0.000  0.00  0.00    +0.000 A 
ATOM     17  C   UNL     1      -4.113  15.036   0.000  0.00  0.00    +0.000 A 
ATOM     18  C   UNL     1      -3.350  15.349   0.000  0.00  0.00    +0.000 A 
ATOM     19  F   UNL     1      -4.766  15.541   0.000  0.00  0.00    +0.000 F 
ATOM     20  F   UNL     1      -4.987  13.906   0.000  0.00  0.00    +0.000 F 
ENDBRANCH   1  15
BRANCH   4  21
ATOM     21  O   UNL     1      -3.261  10.266   0.000  0.00  0.00    +0.000 OA
BRANCH  21  22
ATOM     22  C   UNL     1      -2.454  10.094   0.000  0.00  0.00    +0.000 C 
ATOM     23  O   UNL     1      -1.902  10.707   0.000  0.00  0.00    +0.000 OA
ATOM     24  N   UNL     1      -2.199   9.310   0.000  0.00  0.00    +0.000 N 
ATOM     25  C   UNL     1      -1.392   9.138   0.000  0.00  0.00    +0.000 C 
ATOM     26  C   UNL     1      -1.137   8.354   0.000  0.00  0.00    +0.000 C 
ATOM     27  C   UNL     1      -1.689   7.740   0.000  0.00  0.00    +0.000 C 
ATOM     28  C   UNL     1      -2.496   7.912   0.000  0.00  0.00    +0.000 C 
ATOM     29  C   UNL     1      -2.751   8.697   0.000  0.00  0.00    +0.000 C 
BRANCH  27  30
ATOM     30  N   UNL     1      -1.434   6.956   0.000  0.00  0.00    +0.000 N 
ATOM     31  C   UNL     1      -0.650   6.701   0.000  0.00  0.00    +0.000 A 
ATOM     32  C   UNL     1       0.065   7.113   0.000  0.00  0.00    +0.000 A 
ATOM     33  C   UNL     1       0.779   6.701   0.000  0.00  0.00    +0.000 A 
ATOM     34  C   UNL     1       0.779   5.876   0.000  0.00  0.00    +0.000 A 
ATOM     35  N   UNL     1       0.065   5.463   0.000  0.00  0.00    +0.000 NA
ATOM     36  C   UNL     1      -0.650   5.876   0.000  0.00  0.00    +0.000 A 
ATOM     37  N   UNL     1      -1.434   5.621   0.000  0.00  0.00    +0.000 NA
ATOM     38  C   UNL     1      -1.919   6.288   0.000  0.00  0.00    +0.000 A 
ATOM     39  O   UNL     1      -2.744   6.288   0.000  0.00  0.00    +0.000 OA
ENDBRANCH  27  30
ENDBRANCH  21  22
ENDBRANCH   4  21
TORSDOF 4
