REMARK  Name = 
REMARK  18 active torsions:
REMARK  status: ('A' for Active; 'I' for Inactive)
REMARK    1  A    between atoms: C_10  and  C_90
REMARK    2  A    between atoms: C_15  and  N_63
REMARK    3  A    between atoms: C_19  and  O_56
REMARK    4  A    between atoms: C_33  and  C_53
REMARK    5  A    between atoms: C_38  and  C_42
REMARK    6  A    between atoms: C_42  and  C_44
REMARK    7  A    between atoms: C_44  and  C_46
REMARK    8  A    between atoms: O_56  and  C_57
REMARK    9  A    between atoms: C_57  and  C_58
REMARK   10  A    between atoms: C_58  and  N_59
REMARK   11  A    between atoms: C_64  and  C_66
REMARK   12  A    between atoms: C_69  and  C_72
REMARK   13  A    between atoms: C_75  and  C_78
REMARK   14  A    between atoms: C_81  and  O_82
REMARK   15  A    between atoms: O_82  and  C_83
REMARK   16  A    between atoms: C_83  and  C_84
REMARK   17  A    between atoms: C_84  and  C_85
REMARK   18  A    between atoms: C_85  and  C_86
REMARK                            x       y       z     vdW  Elec       q    Type
REMARK                         _______ _______ _______ _____ _____    ______ ____
ROOT
ATOM      1  C   UNL     1      11.802   0.196   0.000  0.00  0.00    +0.000 C 
ATOM      2  C   UNL     1      12.511   0.619   0.000  0.00  0.00    +0.000 C 
ATOM      3  C   UNL     1      13.132   0.076   0.000  0.00  0.00    +0.000 C 
ATOM      4  O   UNL     1      13.936   0.260   0.000  0.00  0.00    +0.000 OA
ATOM      5  C   UNL     1      12.808  -0.682   0.000  0.00  0.00    +0.000 C 
ATOM      6  N   UNL     1      11.986  -0.609   0.000  0.00  0.00    +0.000 N 
ATOM      7  C   UNL     1      11.924  -1.431   0.000  0.00  0.00    +0.000 C 
ATOM      8  O   UNL     1      12.729  -1.615   0.000  0.00  0.00    +0.000 OA
ATOM      9  C   UNL     1      11.623  -2.199   0.000  0.00  0.00    +0.000 C 
ATOM     10  N   UNL     1      11.108  -2.844   0.000  0.00  0.00    +0.000 NA
ATOM     11  C   UNL     1      10.427  -3.309   0.000  0.00  0.00    +0.000 C 
ATOM     12  O   UNL     1      10.785  -4.052   0.000  0.00  0.00    +0.000 OA
ATOM     13  C   UNL     1       9.639  -3.552   0.000  0.00  0.00    +0.000 C 
ATOM     14  C   UNL     1       8.813  -3.552   0.000  0.00  0.00    +0.000 C 
ATOM     15  C   UNL     1       8.025  -3.309   0.000  0.00  0.00    +0.000 C 
ATOM     16  O   UNL     1       7.667  -4.052   0.000  0.00  0.00    +0.000 OA
ATOM     17  C   UNL     1       7.343  -2.844   0.000  0.00  0.00    +0.000 C 
ATOM     18  N   UNL     1       6.829  -2.199   0.000  0.00  0.00    +0.000 NA
ATOM     19  C   UNL     1       6.528  -1.431   0.000  0.00  0.00    +0.000 C 
ATOM     20  O   UNL     1       5.723  -1.615   0.000  0.00  0.00    +0.000 OA
ATOM     21  C   UNL     1       6.466  -0.609   0.000  0.00  0.00    +0.000 C 
ATOM     22  C   UNL     1       5.644  -0.682   0.000  0.00  0.00    +0.000 C 
ATOM     23  O   UNL     1       5.221  -1.391   0.000  0.00  0.00    +0.000 OA
ATOM     24  C   UNL     1       5.320   0.076   0.000  0.00  0.00    +0.000 C 
ATOM     25  C   UNL     1       4.516   0.260   0.000  0.00  0.00    +0.000 C 
ATOM     26  C   UNL     1       5.941   0.619   0.000  0.00  0.00    +0.000 C 
ATOM     27  N   UNL     1       6.650   0.196   0.000  0.00  0.00    +0.000 N 
ATOM     28  C   UNL     1       7.062   0.910   0.000  0.00  0.00    +0.000 C 
ATOM     29  O   UNL     1       6.417   1.425   0.000  0.00  0.00    +0.000 OA
ATOM     30  C   UNL     1       7.667   1.471   0.000  0.00  0.00    +0.000 C 
ATOM     31  N   UNL     1       8.410   1.829   0.000  0.00  0.00    +0.000 NA
ATOM     32  C   UNL     1       9.226   1.952   0.000  0.00  0.00    +0.000 C 
ATOM     33  O   UNL     1       9.226   2.777   0.000  0.00  0.00    +0.000 OA
ATOM     34  C   UNL     1      10.042   1.829   0.000  0.00  0.00    +0.000 C 
ATOM     35  N   UNL     1      10.785   1.471   0.000  0.00  0.00    +0.000 NA
ATOM     36  C   UNL     1      11.390   0.910   0.000  0.00  0.00    +0.000 C 
ATOM     37  O   UNL     1      12.035   1.425   0.000  0.00  0.00    +0.000 OA
ENDROOT
BRANCH  13  38
ATOM     38  N   UNL     1       9.761  -4.368   0.000  0.00  0.00    +0.000 NA
ATOM     39  C   UNL     1       9.117  -4.882   0.000  0.00  0.00    +0.000 C 
ATOM     40  O   UNL     1       8.348  -4.581   0.000  0.00  0.00    +0.000 OA
BRANCH  39  41
ATOM     41  C   UNL     1       9.239  -5.698   0.000  0.00  0.00    +0.000 A 
ATOM     42  C   UNL     1      10.007  -6.000   0.000  0.00  0.00    +0.000 A 
ATOM     43  C   UNL     1      10.130  -6.815   0.000  0.00  0.00    +0.000 A 
ATOM     44  C   UNL     1       9.485  -7.330   0.000  0.00  0.00    +0.000 A 
ATOM     45  C   UNL     1       8.717  -7.028   0.000  0.00  0.00    +0.000 A 
ATOM     46  C   UNL     1       8.594  -6.212   0.000  0.00  0.00    +0.000 A 
BRANCH  44  47
ATOM     47  C   UNL     1       9.608  -8.145   0.000  0.00  0.00    +0.000 A 
ATOM     48  C   UNL     1      10.376  -8.447   0.000  0.00  0.00    +0.000 A 
ATOM     49  C   UNL     1      10.499  -9.263   0.000  0.00  0.00    +0.000 A 
ATOM     50  C   UNL     1       9.854  -9.777   0.000  0.00  0.00    +0.000 A 
ATOM     51  C   UNL     1       9.086  -9.476   0.000  0.00  0.00    +0.000 A 
ATOM     52  C   UNL     1       8.963  -8.660   0.000  0.00  0.00    +0.000 A 
BRANCH  50  53
ATOM     53  C   UNL     1       9.977 -10.593   0.000  0.00  0.00    +0.000 A 
ATOM     54  C   UNL     1      10.745 -10.894   0.000  0.00  0.00    +0.000 A 
ATOM     55  C   UNL     1      10.868 -11.710   0.000  0.00  0.00    +0.000 A 
ATOM     56  C   UNL     1      10.223 -12.224   0.000  0.00  0.00    +0.000 A 
ATOM     57  C   UNL     1       9.455 -11.923   0.000  0.00  0.00    +0.000 A 
ATOM     58  C   UNL     1       9.332 -11.107   0.000  0.00  0.00    +0.000 A 
BRANCH  56  59
ATOM     59  O   UNL     1      10.346 -13.040   0.000  0.00  0.00    +0.000 OA
BRANCH  59  60
ATOM     60  C   UNL     1      11.114 -13.341   0.000  0.00  0.00    +0.000 C 
BRANCH  60  61
ATOM     61  C   UNL     1      11.237 -14.157   0.000  0.00  0.00    +0.000 C 
BRANCH  61  62
ATOM     62  C   UNL     1      12.005 -14.459   0.000  0.00  0.00    +0.000 C 
BRANCH  62  63
ATOM     63  C   UNL     1      12.128 -15.274   0.000  0.00  0.00    +0.000 C 
ATOM     64  C   UNL     1      12.896 -15.576   0.000  0.00  0.00    +0.000 C 
ENDBRANCH  62  63
ENDBRANCH  61  62
ENDBRANCH  60  61
ENDBRANCH  59  60
ENDBRANCH  56  59
ENDBRANCH  50  53
ENDBRANCH  44  47
ENDBRANCH  39  41
ENDBRANCH  13  38
BRANCH   9  65
ATOM     65  C   UNL     1      12.337  -2.612   0.000  0.00  0.00    +0.000 C 
ATOM     66  C   UNL     1      13.052  -2.199   0.000  0.00  0.00    +0.000 C 
ATOM     67  O   UNL     1      12.337  -3.437   0.000  0.00  0.00    +0.000 OA
ENDBRANCH   9  65
BRANCH  30  68
ATOM     68  C   UNL     1       7.202   2.153   0.000  0.00  0.00    +0.000 C 
ATOM     69  C   UNL     1       6.380   2.091   0.000  0.00  0.00    +0.000 C 
ATOM     70  O   UNL     1       7.560   2.896   0.000  0.00  0.00    +0.000 OA
ENDBRANCH  30  68
BRANCH  34  71
ATOM     71  C   UNL     1      10.285   2.618   0.000  0.00  0.00    +0.000 C 
ATOM     72  O   UNL     1       9.724   3.223   0.000  0.00  0.00    +0.000 OA
BRANCH  71  73
ATOM     73  C   UNL     1      11.089   2.801   0.000  0.00  0.00    +0.000 C 
ATOM     74  O   UNL     1      11.650   2.196   0.000  0.00  0.00    +0.000 OA
BRANCH  73  75
ATOM     75  C   UNL     1      11.332   3.590   0.000  0.00  0.00    +0.000 A 
ATOM     76  C   UNL     1      10.771   4.194   0.000  0.00  0.00    +0.000 A 
ATOM     77  C   UNL     1      11.014   4.983   0.000  0.00  0.00    +0.000 A 
ATOM     78  C   UNL     1      11.819   5.166   0.000  0.00  0.00    +0.000 A 
ATOM     79  O   UNL     1      12.062   5.955   0.000  0.00  0.00    +0.000 OA
ATOM     80  C   UNL     1      12.380   4.562   0.000  0.00  0.00    +0.000 A 
ATOM     81  C   UNL     1      12.137   3.773   0.000  0.00  0.00    +0.000 A 
ENDBRANCH  73  75
ENDBRANCH  71  73
ENDBRANCH  34  71
BRANCH  17  82
ATOM     82  O   UNL     1       6.782  -3.449   0.000  0.00  0.00    +0.000 OA
BRANCH  82  83
ATOM     83  C   UNL     1       5.978  -3.265   0.000  0.00  0.00    +0.000 C 
BRANCH  83  84
ATOM     84  C   UNL     1       5.417  -3.870   0.000  0.00  0.00    +0.000 C 
BRANCH  84  85
ATOM     85  N   UNL     1       5.660  -4.659   0.000  0.00  0.00    +0.000 N 
ATOM     86  C   UNL     1       4.872  -4.902   0.000  0.00  0.00    +0.000 C 
ATOM     87  C   UNL     1       6.449  -4.415   0.000  0.00  0.00    +0.000 C 
ATOM     88  C   UNL     1       5.903  -5.447   0.000  0.00  0.00    +0.000 C 
ENDBRANCH  84  85
ENDBRANCH  83  84
ENDBRANCH  82  83
ENDBRANCH  17  82
TORSDOF 18
