REMARK  Name = 
REMARK  4 active torsions:
REMARK  status: ('A' for Active; 'I' for Inactive)
REMARK    1  A    between atoms: C_1  and  N_24
REMARK    2  A    between atoms: N_3  and  C_16
REMARK    3  A    between atoms: C_10  and  S_14
REMARK    4  A    between atoms: C_18  and  O_22
REMARK                            x       y       z     vdW  Elec       q    Type
REMARK                         _______ _______ _______ _____ _____    ______ ____
ROOT
ATOM      1  C   UNL     1       0.354   0.833   0.000  0.00  0.00    +0.000 C 
ATOM      2  C   UNL     1      -0.361   0.424   0.000  0.00  0.00    +0.000 C 
ATOM      3  N   UNL     1      -0.361  -0.401   0.000  0.00  0.00    +0.000 N 
ATOM      4  S   UNL     1       0.354  -0.817   0.000  0.00  0.00    +0.000 S 
ATOM      5  O   UNL     1      -0.055  -1.532   0.000  0.00  0.00    +0.000 OA
ATOM      6  O   UNL     1       0.943  -1.399   0.000  0.00  0.00    +0.000 OA
ATOM      7  C   UNL     1       1.069   0.424   0.000  0.00  0.00    +0.000 A 
ATOM      8  C   UNL     1       1.069  -0.401   0.000  0.00  0.00    +0.000 A 
ATOM      9  C   UNL     1       2.499   0.424   0.000  0.00  0.00    +0.000 A 
ATOM     10  C   UNL     1       2.499  -0.401   0.000  0.00  0.00    +0.000 A 
ATOM     11  S   UNL     1       1.784  -0.817   0.000  0.00  0.00    +0.000 S 
ENDROOT
BRANCH   3  12
ATOM     12  C   UNL     1      -1.069  -0.817   0.000  0.00  0.00    +0.000 A 
ATOM     13  C   UNL     1      -1.799  -0.424   0.000  0.00  0.00    +0.000 A 
ATOM     14  C   UNL     1      -2.499  -0.856   0.000  0.00  0.00    +0.000 A 
ATOM     15  C   UNL     1      -2.475  -1.681   0.000  0.00  0.00    +0.000 A 
ATOM     16  C   UNL     1      -1.744  -2.074   0.000  0.00  0.00    +0.000 A 
ATOM     17  C   UNL     1      -1.045  -1.642   0.000  0.00  0.00    +0.000 A 
BRANCH  14  18
ATOM     18  O   UNL     1      -3.229  -0.471   0.000  0.00  0.00    +0.000 OA
ATOM     19  C   UNL     1      -3.929  -0.904   0.000  0.00  0.00    +0.000 C 
ENDBRANCH  14  18
ENDBRANCH   3  12
BRANCH  10  22
ATOM     20  O   UNL     1       2.805  -1.532   0.000  0.00  0.00    +0.000 OA
ATOM     21  O   UNL     1       3.795  -1.399   0.000  0.00  0.00    +0.000 OA
ATOM     22  S   UNL     1       3.214  -0.817   0.000  0.00  0.00    +0.000 S 
ATOM     23  N   UNL     1       3.929  -0.401   0.000  0.00  0.00    +0.000 NA
ENDBRANCH  10  22
BRANCH   1  24
ATOM     24  N   UNL     1       0.354   1.658   0.000  0.00  0.00    +0.000 NA
ATOM     25  C   UNL     1       1.069   2.074   0.000  0.00  0.00    +0.000 C 
ENDBRANCH   1  24
TORSDOF 4
