REMARK  Name = 
REMARK  6 active torsions:
REMARK  status: ('A' for Active; 'I' for Inactive)
REMARK    1  A    between atoms: C_3  and  C_5
REMARK    2  A    between atoms: C_5  and  N_6
REMARK    3  A    between atoms: C_9  and  O_12
REMARK    4  A    between atoms: O_12  and  C_13
REMARK    5  A    between atoms: C_18  and  O_19
REMARK    6  A    between atoms: N_25  and  C_26
REMARK                            x       y       z     vdW  Elec       q    Type
REMARK                         _______ _______ _______ _____ _____    ______ ____
ROOT
ATOM      1  C   UNL     1      -0.715  -1.238   0.000  0.00  0.00    +0.000 A 
ATOM      2  C   UNL     1       0.000  -1.650   0.000  0.00  0.00    +0.000 A 
ATOM      3  C   UNL     1       0.715  -1.238   0.000  0.00  0.00    +0.000 A 
ATOM      4  C   UNL     1       0.715  -0.412   0.000  0.00  0.00    +0.000 A 
ATOM      5  C   UNL     1       0.000   0.000   0.000  0.00  0.00    +0.000 A 
ATOM      6  C   UNL     1      -0.715  -0.412   0.000  0.00  0.00    +0.000 A 
ATOM      7  N   UNL     1       1.429   0.000   0.000  0.00  0.00    +0.000 NA
ATOM      8  C   UNL     1       2.143  -0.412   0.000  0.00  0.00    +0.000 A 
ATOM      9  N   UNL     1       2.143  -1.238   0.000  0.00  0.00    +0.000 NA
ATOM     10  C   UNL     1       1.429  -1.650   0.000  0.00  0.00    +0.000 A 
ATOM     11  N   UNL     1       1.429  -2.475   0.000  0.00  0.00    +0.000 NA
ENDROOT
BRANCH  11  12
ATOM     12  C   UNL     1       2.143  -2.888   0.000  0.00  0.00    +0.000 A 
ATOM     13  C   UNL     1       2.143  -3.712   0.000  0.00  0.00    +0.000 A 
ATOM     14  C   UNL     1       2.858  -4.125   0.000  0.00  0.00    +0.000 A 
ATOM     15  C   UNL     1       3.572  -3.712   0.000  0.00  0.00    +0.000 A 
ATOM     16  C   UNL     1       3.572  -2.888   0.000  0.00  0.00    +0.000 A 
ATOM     17  C   UNL     1       2.858  -2.475   0.000  0.00  0.00    +0.000 A 
ATOM     18  F   UNL     1       2.858  -1.650   0.000  0.00  0.00    +0.000 F 
ATOM     19 CL   UNL     1       4.287  -2.475   0.000  0.00  0.00    +0.000 Cl
ENDBRANCH  11  12
BRANCH   6  20
ATOM     20  O   UNL     1      -1.429   0.000   0.000  0.00  0.00    +0.000 OA
ATOM     21  C   UNL     1      -2.143  -0.412   0.000  0.00  0.00    +0.000 C 
ENDBRANCH   6  20
BRANCH   1  22
ATOM     22  O   UNL     1      -1.429  -1.650   0.000  0.00  0.00    +0.000 OA
BRANCH  22  26
ATOM     23  N   UNL     1      -1.429  -4.125   0.000  0.00  0.00    +0.000 NA
ATOM     24  C   UNL     1      -2.143  -3.712   0.000  0.00  0.00    +0.000 C 
ATOM     25  C   UNL     1      -2.143  -2.888   0.000  0.00  0.00    +0.000 C 
ATOM     26  C   UNL     1      -1.429  -2.475   0.000  0.00  0.00    +0.000 C 
ATOM     27  C   UNL     1      -0.715  -2.888   0.000  0.00  0.00    +0.000 C 
ATOM     28  C   UNL     1      -0.715  -3.712   0.000  0.00  0.00    +0.000 C 
BRANCH  23  29
ATOM     29  C   UNL     1      -1.429  -4.950   0.000  0.00  0.00    +0.000 C 
BRANCH  29  32
ATOM     30  C   UNL     1       0.000  -6.600   0.000  0.00  0.00    +0.000 C 
ATOM     31  N   UNL     1      -0.715  -6.188   0.000  0.00  0.00    +0.000 NA
ATOM     32  C   UNL     1      -0.715  -5.362   0.000  0.00  0.00    +0.000 C 
ATOM     33  O   UNL     1       0.000  -4.950   0.000  0.00  0.00    +0.000 OA
ENDBRANCH  29  32
ENDBRANCH  23  29
ENDBRANCH  22  26
ENDBRANCH   1  22
TORSDOF 6
