REMARK  Name = 
REMARK  6 active torsions:
REMARK  status: ('A' for Active; 'I' for Inactive)
REMARK    1  A    between atoms: C_13  and  C_16
REMARK    2  A    between atoms: C_13  and  N_17
REMARK    3  A    between atoms: C_14  and  O_18
REMARK    4  A    between atoms: C_15  and  O_19
REMARK    5  A    between atoms: C_16  and  O_18
REMARK    6  A    between atoms: C_16  and  O_19
REMARK                            x       y       z     vdW  Elec       q    Type
REMARK                         _______ _______ _______ _____ _____    ______ ____
ROOT
ATOM      1  C   UNL     1       2.858   0.825   0.000  0.00  0.00    +0.000 C 
ENDROOT
BRANCH   1   2
ATOM      2  C   UNL     1       3.572   0.412   0.000  0.00  0.00    +0.000 C 
BRANCH   2   5
ATOM      3  C   UNL     1       4.287   1.650   0.000  0.00  0.00    +0.000 C 
ATOM      4  C   UNL     1       5.001   0.412   0.000  0.00  0.00    +0.000 C 
ATOM      5  N   UNL     1       4.287   0.825   0.000  0.00  0.00    +0.000 NA
ENDBRANCH   2   5
ENDBRANCH   1   2
BRANCH   1   6
ATOM      6  O   UNL     1       2.143   0.412   0.000  0.00  0.00    +0.000 OA
BRANCH   6  12
ATOM      7  C   UNL     1       2.143  -2.062   0.000  0.00  0.00    +0.000 A 
ATOM      8  C   UNL     1       2.858  -1.650   0.000  0.00  0.00    +0.000 A 
ATOM      9  C   UNL     1       1.429  -1.650   0.000  0.00  0.00    +0.000 A 
ATOM     10  C   UNL     1       2.858  -0.825   0.000  0.00  0.00    +0.000 A 
ATOM     11  C   UNL     1       1.429  -0.825   0.000  0.00  0.00    +0.000 A 
ATOM     12  C   UNL     1       2.143  -0.412   0.000  0.00  0.00    +0.000 A 
ENDBRANCH   6  12
ENDBRANCH   1   6
BRANCH   1  13
ATOM     13  O   UNL     1       2.858   1.650   0.000  0.00  0.00    +0.000 OA
BRANCH  13  19
ATOM     14  C   UNL     1       0.715   2.888   0.000  0.00  0.00    +0.000 A 
ATOM     15  C   UNL     1       0.715   2.062   0.000  0.00  0.00    +0.000 A 
ATOM     16  C   UNL     1       1.429   3.300   0.000  0.00  0.00    +0.000 A 
ATOM     17  C   UNL     1       1.429   1.650   0.000  0.00  0.00    +0.000 A 
ATOM     18  C   UNL     1       2.143   2.888   0.000  0.00  0.00    +0.000 A 
ATOM     19  C   UNL     1       2.143   2.062   0.000  0.00  0.00    +0.000 A 
ENDBRANCH  13  19
ENDBRANCH   1  13
TORSDOF 6
