REMARK  Name = 
REMARK  4 active torsions:
REMARK  status: ('A' for Active; 'I' for Inactive)
REMARK    1  A    between atoms: N_2  and  C_3
REMARK    2  A    between atoms: C_12  and  N_13
REMARK    3  A    between atoms: C_18  and  C_20
REMARK    4  A    between atoms: C_20  and  C_21
REMARK                            x       y       z     vdW  Elec       q    Type
REMARK                         _______ _______ _______ _____ _____    ______ ____
ROOT
ATOM      1  C   UNL     1      -0.951  -1.075   0.000  0.00  0.00    +0.000 C 
ATOM      2  C   UNL     1      -1.666  -1.487   0.000  0.00  0.00    +0.000 C 
ATOM      3  C   UNL     1      -2.380  -1.075   0.000  0.00  0.00    +0.000 C 
ATOM      4  C   UNL     1      -2.380  -0.250   0.000  0.00  0.00    +0.000 C 
ATOM      5  C   UNL     1      -3.134  -0.585   0.000  0.00  0.00    +0.000 C 
ATOM      6  C   UNL     1      -3.686   0.028   0.000  0.00  0.00    +0.000 C 
ATOM      7  C   UNL     1      -3.273   0.742   0.000  0.00  0.00    +0.000 C 
ATOM      8  O   UNL     1      -2.466   0.571   0.000  0.00  0.00    +0.000 OA
ATOM      9  C   UNL     1      -1.666   0.163   0.000  0.00  0.00    +0.000 C 
ATOM     10  C   UNL     1      -0.951  -0.250   0.000  0.00  0.00    +0.000 C 
ENDROOT
BRANCH  10  11
ATOM     11  N   UNL     1      -0.237   0.163   0.000  0.00  0.00    +0.000 NA
ATOM     12  C   UNL     1      -0.151   0.983   0.000  0.00  0.00    +0.000 C 
ATOM     13  C   UNL     1       0.656   1.155   0.000  0.00  0.00    +0.000 C 
ATOM     14  C   UNL     1       1.069   0.440   0.000  0.00  0.00    +0.000 C 
ATOM     15  C   UNL     1       0.517  -0.173   0.000  0.00  0.00    +0.000 C 
ENDBRANCH  10  11
BRANCH   1  17
ATOM     16  C   UNL     1       0.478  -1.075   0.000  0.00  0.00    +0.000 C 
ATOM     17  N   UNL     1      -0.237  -1.487   0.000  0.00  0.00    +0.000 N 
ATOM     18  C   UNL     1      -0.237  -2.312   0.000  0.00  0.00    +0.000 C 
ATOM     19  O   UNL     1      -0.951  -2.725   0.000  0.00  0.00    +0.000 OA
BRANCH  18  20
ATOM     20  C   UNL     1       0.478  -2.725   0.000  0.00  0.00    +0.000 C 
BRANCH  20  21
ATOM     21  C   UNL     1       0.478  -3.550   0.000  0.00  0.00    +0.000 A 
ATOM     22  C   UNL     1       1.192  -3.962   0.000  0.00  0.00    +0.000 A 
ATOM     23  C   UNL     1       1.192  -4.787   0.000  0.00  0.00    +0.000 A 
ATOM     24  C   UNL     1       0.478  -5.200   0.000  0.00  0.00    +0.000 A 
ATOM     25  C   UNL     1      -0.237  -4.787   0.000  0.00  0.00    +0.000 A 
ATOM     26  C   UNL     1      -0.237  -3.962   0.000  0.00  0.00    +0.000 A 
ATOM     27  C   UNL     1      -1.022  -3.707   0.000  0.00  0.00    +0.000 A 
ATOM     28  C   UNL     1      -1.506  -4.375   0.000  0.00  0.00    +0.000 A 
ATOM     29  O   UNL     1      -1.022  -5.042   0.000  0.00  0.00    +0.000 OA
ENDBRANCH  20  21
ENDBRANCH  18  20
ENDBRANCH   1  17
TORSDOF 4
