REMARK  Name = 
REMARK  0 active torsions:
REMARK  status: ('A' for Active; 'I' for Inactive)
REMARK                            x       y       z     vdW  Elec       q    Type
REMARK                         _______ _______ _______ _____ _____    ______ ____
ROOT
ATOM      1  C   UNL     1       2.178  -0.382   0.000  0.00  0.00    +0.000 C 
ATOM      2  C   UNL     1       0.679  -1.365   0.000  0.00  0.00    +0.000 C 
ATOM      3  C   UNL     1       0.679   1.110   0.000  0.00  0.00    +0.000 C 
ATOM      4  C   UNL     1       2.663   0.285   0.000  0.00  0.00    +0.000 C 
ATOM      5  C   UNL     1      -0.035   0.698   0.000  0.00  0.00    +0.000 C 
ATOM      6  C   UNL     1      -1.464  -0.127   0.000  0.00  0.00    +0.000 C 
ATOM      7  C   UNL     1      -1.464  -1.777   0.000  0.00  0.00    +0.000 C 
ATOM      8  C   UNL     1       0.679  -0.540   0.000  0.00  0.00    +0.000 C 
ATOM      9  C   UNL     1      -0.035  -0.127   0.000  0.00  0.00    +0.000 C 
ATOM     10  C   UNL     1       1.394   0.698   0.000  0.00  0.00    +0.000 C 
ATOM     11  C   UNL     1       1.394   1.522   0.000  0.00  0.00    +0.000 C 
ATOM     12  C   UNL     1       1.394  -0.127   0.000  0.00  0.00    +0.000 C 
ATOM     13  C   UNL     1      -0.750  -0.540   0.000  0.00  0.00    +0.000 C 
ATOM     14  C   UNL     1      -2.179  -0.540   0.000  0.00  0.00    +0.000 C 
ATOM     15  C   UNL     1      -2.179  -1.365   0.000  0.00  0.00    +0.000 C 
ATOM     16  O   UNL     1      -2.893  -1.777   0.000  0.00  0.00    +0.000 OA
ATOM     17  C   UNL     1      -0.750  -1.365   0.000  0.00  0.00    +0.000 C 
ATOM     18  C   UNL     1      -0.035  -1.777   0.000  0.00  0.00    +0.000 C 
ATOM     19  C   UNL     1       2.178   0.952   0.000  0.00  0.00    +0.000 C 
ATOM     20  O   UNL     1       2.178   1.777   0.000  0.00  0.00    +0.000 OA
ATOM     21  C   UNL     1       1.394  -1.777   0.000  0.00  0.00    +0.000 C 
ATOM     22  C   UNL     1       2.893   1.365   0.000  0.00  0.00    +0.000 C 
ENDROOT
TORSDOF 0
