REMARK  Name = 
REMARK  2 active torsions:
REMARK  status: ('A' for Active; 'I' for Inactive)
REMARK    1  A    between atoms: C_7  and  C_12
REMARK    2  A    between atoms: C_9  and  C_18
REMARK                            x       y       z     vdW  Elec       q    Type
REMARK                         _______ _______ _______ _____ _____    ______ ____
ROOT
ATOM      1  N   UNL     1       1.071  -0.200   0.000  0.00  0.00    +0.000 N 
ATOM      2  C   UNL     1       0.459   0.353   0.000  0.00  0.00    +0.000 A 
ATOM      3  C   UNL     1       0.796   1.106   0.000  0.00  0.00    +0.000 A 
ATOM      4  C   UNL     1       1.616   1.018   0.000  0.00  0.00    +0.000 A 
ATOM      5  C   UNL     1       1.786   0.211   0.000  0.00  0.00    +0.000 A 
ATOM      6  C   UNL     1       0.384   1.821   0.000  0.00  0.00    +0.000 C 
ATOM      7  C   UNL     1       2.539  -0.126   0.000  0.00  0.00    +0.000 C 
ATOM      8  H   UNL     1       1.017  -0.709   0.000  0.00  0.00    +0.000 HD
ENDROOT
BRANCH   2  13
ATOM      9 CL   UNL     1      -3.529  -0.440   0.000  0.00  0.00    +0.000 Cl
ATOM     10  O   UNL     1       0.702  -1.265   0.000  0.00  0.00    +0.000 OA
ATOM     11  N   UNL     1      -0.605  -1.929   0.000  0.00  0.00    +0.000 N 
ATOM     12  C   UNL     1      -0.605  -0.602   0.000  0.00  0.00    +0.000 C 
ATOM     13  C   UNL     1      -0.348   0.183   0.000  0.00  0.00    +0.000 C 
ATOM     14  C   UNL     1      -1.385  -0.853   0.000  0.00  0.00    +0.000 A 
ATOM     15  C   UNL     1      -1.385  -1.678   0.000  0.00  0.00    +0.000 A 
ATOM     16  C   UNL     1      -0.123  -1.265   0.000  0.00  0.00    +0.000 C 
ATOM     17  C   UNL     1      -2.100  -0.440   0.000  0.00  0.00    +0.000 A 
ATOM     18  C   UNL     1      -2.100  -2.090   0.000  0.00  0.00    +0.000 A 
ATOM     19  C   UNL     1      -2.814  -0.853   0.000  0.00  0.00    +0.000 A 
ATOM     20  C   UNL     1      -2.814  -1.678   0.000  0.00  0.00    +0.000 A 
ATOM     21  H   UNL     1      -0.446  -2.415   0.000  0.00  0.00    +0.000 HD
ENDBRANCH   2  13
BRANCH   4  24
ATOM     22  O   UNL     1       1.915   2.415   0.000  0.00  0.00    +0.000 OA
ATOM     23  N   UNL     1       2.976   1.458   0.000  0.00  0.00    +0.000 N 
ATOM     24  C   UNL     1       2.169   1.630   0.000  0.00  0.00    +0.000 C 
ATOM     25  C   UNL     1       3.529   2.070   0.000  0.00  0.00    +0.000 C 
ATOM     26  H   UNL     1       3.133   0.971   0.000  0.00  0.00    +0.000 HD
ENDBRANCH   4  24
TORSDOF 2
