REMARK  Name = 
REMARK  4 active torsions:
REMARK  status: ('A' for Active; 'I' for Inactive)
REMARK    1  A    between atoms: C_6  and  C_7
REMARK    2  A    between atoms: C_7  and  C_8
REMARK    3  A    between atoms: N_15  and  C_17
REMARK    4  A    between atoms: C_24  and  C_26
REMARK                            x       y       z     vdW  Elec       q    Type
REMARK                         _______ _______ _______ _____ _____    ______ ____
ROOT
ATOM      1  C   UNL     1      -5.064   1.032   0.000  0.00  0.00    +0.000 C 
ATOM      2  O   UNL     1      -5.476   1.746   0.000  0.00  0.00    +0.000 OA
ATOM      3  N   UNL     1      -4.239   1.032   0.000  0.00  0.00    +0.000 N 
ATOM      4  C   UNL     1      -3.826   1.746   0.000  0.00  0.00    +0.000 C 
ATOM      5  C   UNL     1      -3.001   1.746   0.000  0.00  0.00    +0.000 C 
ATOM      6  C   UNL     1      -2.589   1.032   0.000  0.00  0.00    +0.000 C 
ATOM      7  C   UNL     1      -2.005   1.615   0.000  0.00  0.00    +0.000 C 
ATOM      8  N   UNL     1      -1.422   1.032   0.000  0.00  0.00    +0.000 NA
ATOM      9  C   UNL     1      -2.005   0.448   0.000  0.00  0.00    +0.000 C 
ATOM     10  C   UNL     1      -3.001   0.317   0.000  0.00  0.00    +0.000 C 
ATOM     11  C   UNL     1      -3.826   0.317   0.000  0.00  0.00    +0.000 C 
ENDROOT
BRANCH   8  12
ATOM     12  C   UNL     1      -0.597   1.032   0.000  0.00  0.00    +0.000 C 
ATOM     13  C   UNL     1      -0.112   0.364   0.000  0.00  0.00    +0.000 C 
ATOM     14  C   UNL     1       0.673   0.619   0.000  0.00  0.00    +0.000 C 
ATOM     15  C   UNL     1       0.673   1.444   0.000  0.00  0.00    +0.000 A 
ATOM     16  C   UNL     1      -0.112   1.699   0.000  0.00  0.00    +0.000 A 
ATOM     17  C   UNL     1      -0.283   2.506   0.000  0.00  0.00    +0.000 A 
ATOM     18  C   UNL     1       0.330   3.058   0.000  0.00  0.00    +0.000 A 
ATOM     19  C   UNL     1       1.114   2.803   0.000  0.00  0.00    +0.000 A 
ATOM     20  C   UNL     1       1.286   1.996   0.000  0.00  0.00    +0.000 A 
BRANCH  19  21
ATOM     21  C   UNL     1       1.727   3.355   0.000  0.00  0.00    +0.000 A 
ATOM     22  C   UNL     1       1.556   4.162   0.000  0.00  0.00    +0.000 A 
ATOM     23  C   UNL     1       2.169   4.714   0.000  0.00  0.00    +0.000 A 
ATOM     24  C   UNL     1       1.997   5.521   0.000  0.00  0.00    +0.000 C 
ATOM     25  N   UNL     1       2.954   4.459   0.000  0.00  0.00    +0.000 NA
ATOM     26  C   UNL     1       3.125   3.652   0.000  0.00  0.00    +0.000 A 
ATOM     27  N   UNL     1       2.512   3.100   0.000  0.00  0.00    +0.000 NA
ENDBRANCH  19  21
ENDBRANCH   8  12
BRANCH   1  28
ATOM     28  C   UNL     1      -5.476   0.317   0.000  0.00  0.00    +0.000 C 
BRANCH  28  34
ATOM     29  C   UNL     1      -9.665   0.317   0.000  0.00  0.00    +0.000 C 
ATOM     30  C   UNL     1      -8.840   0.317   0.000  0.00  0.00    +0.000 A 
ATOM     31  C   UNL     1      -8.355   0.985   0.000  0.00  0.00    +0.000 A 
ATOM     32  N   UNL     1      -7.571   0.730   0.000  0.00  0.00    +0.000 N 
ATOM     33  C   UNL     1      -6.786   0.985   0.000  0.00  0.00    +0.000 A 
ATOM     34  C   UNL     1      -6.301   0.317   0.000  0.00  0.00    +0.000 A 
ATOM     35  N   UNL     1      -6.786  -0.350   0.000  0.00  0.00    +0.000 NA
ATOM     36  C   UNL     1      -7.571  -0.095   0.000  0.00  0.00    +0.000 A 
ATOM     37  S   UNL     1      -8.355  -0.350   0.000  0.00  0.00    +0.000 S 
ENDBRANCH  28  34
ENDBRANCH   1  28
TORSDOF 4
