REMARK  Name = 
REMARK  46 active torsions:
REMARK  status: ('A' for Active; 'I' for Inactive)
REMARK    1  A    between atoms: C_4  and  C_7
REMARK    2  A    between atoms: C_7  and  C_8
REMARK    3  A    between atoms: C_7  and  C_14
REMARK    4  A    between atoms: C_14  and  C_15
REMARK    5  A    between atoms: C_14  and  N_27
REMARK    6  A    between atoms: N_17  and  C_18
REMARK    7  A    between atoms: C_18  and  C_19
REMARK    8  A    between atoms: C_18  and  C_24
REMARK    9  A    between atoms: C_19  and  C_20
REMARK   10  A    between atoms: C_20  and  C_21
REMARK   11  A    between atoms: C_21  and  C_22
REMARK   12  A    between atoms: C_28  and  C_30
REMARK   13  A    between atoms: C_30  and  C_31
REMARK   14  A    between atoms: C_30  and  N_41
REMARK   15  A    between atoms: C_31  and  C_32
REMARK   16  A    between atoms: C_42  and  C_44
REMARK   17  A    between atoms: C_44  and  C_45
REMARK   18  A    between atoms: C_44  and  N_50
REMARK   19  A    between atoms: C_45  and  C_46
REMARK   20  A    between atoms: C_46  and  C_47
REMARK   21  A    between atoms: C_47  and  C_48
REMARK   22  A    between atoms: C_51  and  C_53
REMARK   23  A    between atoms: C_53  and  C_54
REMARK   24  A    between atoms: C_53  and  N_59
REMARK   25  A    between atoms: C_54  and  C_55
REMARK   26  A    between atoms: C_55  and  C_56
REMARK   27  A    between atoms: C_56  and  C_57
REMARK   28  A    between atoms: C_60  and  C_62
REMARK   29  A    between atoms: C_62  and  C_63
REMARK   30  A    between atoms: C_62  and  N_73
REMARK   31  A    between atoms: C_63  and  C_64
REMARK   32  A    between atoms: C_74  and  C_76
REMARK   33  A    between atoms: C_76  and  C_77
REMARK   34  A    between atoms: C_76  and  N_87
REMARK   35  A    between atoms: C_77  and  C_78
REMARK   36  A    between atoms: C_88  and  C_90
REMARK   37  A    between atoms: C_90  and  C_91
REMARK   38  A    between atoms: C_90  and  N_96
REMARK   39  A    between atoms: C_91  and  C_92
REMARK   40  A    between atoms: C_92  and  C_93
REMARK   41  A    between atoms: C_93  and  C_94
REMARK   42  A    between atoms: C_97  and  C_99
REMARK   43  A    between atoms: C_99  and  C_100
REMARK   44  A    between atoms: C_100  and  C_101
REMARK   45  A    between atoms: C_101  and  C_102
REMARK   46  A    between atoms: C_102  and  C_103
REMARK                            x       y       z     vdW  Elec       q    Type
REMARK                         _______ _______ _______ _____ _____    ______ ____
ROOT
ATOM      1  C   UNL     1      -6.735  -0.662   0.000  0.00  0.00    +0.000 C 
ENDROOT
BRANCH   1   3
ATOM      2  N   UNL     1      -8.008  -1.310   0.000  0.00  0.00    +0.000 NA
ATOM      3  C   UNL     1      -7.559  -0.619   0.000  0.00  0.00    +0.000 C 
ATOM      4  O   UNL     1      -7.934   0.117   0.000  0.00  0.00    +0.000 OA
BRANCH   2   5
ATOM      5  C   UNL     1      -8.832  -1.267   0.000  0.00  0.00    +0.000 C 
BRANCH   5   7
ATOM      6  N   UNL     1     -10.105  -1.916   0.000  0.00  0.00    +0.000 NA
ATOM      7  C   UNL     1      -9.282  -1.959   0.000  0.00  0.00    +0.000 C 
ATOM      8  O   UNL     1      -8.907  -2.694   0.000  0.00  0.00    +0.000 OA
BRANCH   6   9
ATOM      9  C   UNL     1     -10.555  -2.608   0.000  0.00  0.00    +0.000 C 
BRANCH   9  11
ATOM     10  N   UNL     1     -11.828  -3.256   0.000  0.00  0.00    +0.000 NA
ATOM     11  C   UNL     1     -11.379  -2.564   0.000  0.00  0.00    +0.000 C 
ATOM     12  O   UNL     1     -11.250  -1.750   0.000  0.00  0.00    +0.000 OA
BRANCH  10  13
ATOM     13  C   UNL     1     -12.652  -3.213   0.000  0.00  0.00    +0.000 C 
BRANCH  13  14
ATOM     14  C   UNL     1     -13.101  -3.905   0.000  0.00  0.00    +0.000 C 
ATOM     15  O   UNL     1     -12.727  -4.640   0.000  0.00  0.00    +0.000 OA
ATOM     16  N   UNL     1     -13.925  -3.862   0.000  0.00  0.00    +0.000 NA
BRANCH  16  17
ATOM     17  C   UNL     1     -14.375  -4.554   0.000  0.00  0.00    +0.000 C 
BRANCH  17  18
ATOM     18  C   UNL     1     -14.000  -5.289   0.000  0.00  0.00    +0.000 C 
ATOM     19  O   UNL     1     -13.176  -5.332   0.000  0.00  0.00    +0.000 OA
ATOM     20  N   UNL     1     -14.450  -5.981   0.000  0.00  0.00    +0.000 NA
ENDBRANCH  17  18
BRANCH  17  21
ATOM     21  C   UNL     1     -15.198  -4.510   0.000  0.00  0.00    +0.000 C 
BRANCH  21  22
ATOM     22  C   UNL     1     -15.648  -5.202   0.000  0.00  0.00    +0.000 C 
BRANCH  22  23
ATOM     23  C   UNL     1     -16.472  -5.159   0.000  0.00  0.00    +0.000 C 
BRANCH  23  24
ATOM     24  C   UNL     1     -16.921  -5.851   0.000  0.00  0.00    +0.000 C 
ATOM     25  N   UNL     1     -17.745  -5.808   0.000  0.00  0.00    +0.000 NA
ENDBRANCH  23  24
ENDBRANCH  22  23
ENDBRANCH  21  22
ENDBRANCH  17  21
ENDBRANCH  16  17
ENDBRANCH  13  14
BRANCH  13  26
ATOM     26  C   UNL     1     -13.027  -2.478   0.000  0.00  0.00    +0.000 C 
BRANCH  26  30
ATOM     27  C   UNL     1     -11.678  -0.402   0.000  0.00  0.00    +0.000 A 
ATOM     28  C   UNL     1     -11.304  -1.137   0.000  0.00  0.00    +0.000 A 
ATOM     29  C   UNL     1     -11.753  -1.829   0.000  0.00  0.00    +0.000 A 
ATOM     30  C   UNL     1     -12.577  -1.786   0.000  0.00  0.00    +0.000 A 
ATOM     31  C   UNL     1     -12.952  -1.051   0.000  0.00  0.00    +0.000 A 
ATOM     32  C   UNL     1     -12.502  -0.359   0.000  0.00  0.00    +0.000 A 
ENDBRANCH  26  30
BRANCH  26  33
ATOM     33  C   UNL     1     -13.850  -2.435   0.000  0.00  0.00    +0.000 A 
ATOM     34  C   UNL     1     -14.300  -3.127   0.000  0.00  0.00    +0.000 A 
ATOM     35  C   UNL     1     -15.124  -3.083   0.000  0.00  0.00    +0.000 A 
ATOM     36  C   UNL     1     -15.498  -2.348   0.000  0.00  0.00    +0.000 A 
ATOM     37  C   UNL     1     -15.049  -1.656   0.000  0.00  0.00    +0.000 A 
ATOM     38  C   UNL     1     -14.225  -1.700   0.000  0.00  0.00    +0.000 A 
ENDBRANCH  26  33
ENDBRANCH  13  26
ENDBRANCH  10  13
ENDBRANCH   9  11
BRANCH   9  39
ATOM     39  C   UNL     1     -10.180  -3.343   0.000  0.00  0.00    +0.000 C 
BRANCH  39  40
ATOM     40  C   UNL     1     -10.630  -4.035   0.000  0.00  0.00    +0.000 A 
ATOM     41  C   UNL     1     -11.454  -4.078   0.000  0.00  0.00    +0.000 A 
ATOM     42  N   UNL     1     -11.667  -4.875   0.000  0.00  0.00    +0.000 NA
ATOM     43  C   UNL     1     -10.975  -5.324   0.000  0.00  0.00    +0.000 A 
ATOM     44  C   UNL     1     -10.334  -4.805   0.000  0.00  0.00    +0.000 A 
ATOM     45  C   UNL     1      -9.564  -5.101   0.000  0.00  0.00    +0.000 A 
ATOM     46  C   UNL     1      -9.435  -5.915   0.000  0.00  0.00    +0.000 A 
ATOM     47  C   UNL     1     -10.076  -6.435   0.000  0.00  0.00    +0.000 A 
ATOM     48  C   UNL     1     -10.846  -6.139   0.000  0.00  0.00    +0.000 A 
ENDBRANCH  39  40
ENDBRANCH   9  39
ENDBRANCH   6   9
ENDBRANCH   5   7
BRANCH   5  49
ATOM     49  C   UNL     1      -9.207  -0.532   0.000  0.00  0.00    +0.000 C 
BRANCH  49  50
ATOM     50  C   UNL     1     -10.031  -0.489   0.000  0.00  0.00    +0.000 C 
BRANCH  50  51
ATOM     51  C   UNL     1     -10.405   0.246   0.000  0.00  0.00    +0.000 C 
BRANCH  51  52
ATOM     52  C   UNL     1     -11.229   0.289   0.000  0.00  0.00    +0.000 C 
ATOM     53  N   UNL     1     -11.604   1.025   0.000  0.00  0.00    +0.000 NA
ENDBRANCH  51  52
ENDBRANCH  50  51
ENDBRANCH  49  50
ENDBRANCH   5  49
ENDBRANCH   2   5
ENDBRANCH   1   3
BRANCH   1  54
ATOM     54  N   UNL     1      -6.286   0.030   0.000  0.00  0.00    +0.000 NA
ATOM     55  C   UNL     1      -5.462  -0.013   0.000  0.00  0.00    +0.000 C 
ATOM     56  O   UNL     1      -5.087  -0.748   0.000  0.00  0.00    +0.000 OA
BRANCH  55  57
ATOM     57  C   UNL     1      -5.013   0.679   0.000  0.00  0.00    +0.000 C 
BRANCH  57  58
ATOM     58  N   UNL     1      -4.189   0.635   0.000  0.00  0.00    +0.000 NA
ATOM     59  C   UNL     1      -3.739   1.327   0.000  0.00  0.00    +0.000 C 
ATOM     60  O   UNL     1      -4.114   2.062   0.000  0.00  0.00    +0.000 OA
BRANCH  59  61
ATOM     61  C   UNL     1      -2.915   1.284   0.000  0.00  0.00    +0.000 C 
BRANCH  61  62
ATOM     62  N   UNL     1      -2.541   0.549   0.000  0.00  0.00    +0.000 NA
ATOM     63  C   UNL     1      -2.990  -0.143   0.000  0.00  0.00    +0.000 C 
ATOM     64  O   UNL     1      -3.814  -0.100   0.000  0.00  0.00    +0.000 OA
BRANCH  63  65
ATOM     65  C   UNL     1      -2.616  -0.878   0.000  0.00  0.00    +0.000 C 
BRANCH  65  66
ATOM     66  N   UNL     1      -3.065  -1.570   0.000  0.00  0.00    +0.000 NA
ATOM     67  C   UNL     1      -2.691  -2.305   0.000  0.00  0.00    +0.000 C 
ATOM     68  O   UNL     1      -1.867  -2.348   0.000  0.00  0.00    +0.000 OA
BRANCH  67  69
ATOM     69  C   UNL     1      -3.140  -2.997   0.000  0.00  0.00    +0.000 C 
ATOM     70  N   UNL     1      -3.964  -2.954   0.000  0.00  0.00    +0.000 NA
BRANCH  69  71
ATOM     71  C   UNL     1      -2.766  -3.732   0.000  0.00  0.00    +0.000 C 
BRANCH  71  72
ATOM     72  C   UNL     1      -3.215  -4.424   0.000  0.00  0.00    +0.000 C 
BRANCH  72  73
ATOM     73  C   UNL     1      -2.841  -5.159   0.000  0.00  0.00    +0.000 C 
BRANCH  73  74
ATOM     74  C   UNL     1      -3.290  -5.851   0.000  0.00  0.00    +0.000 C 
ATOM     75  N   UNL     1      -2.915  -6.586   0.000  0.00  0.00    +0.000 NA
ENDBRANCH  73  74
ENDBRANCH  72  73
ENDBRANCH  71  72
ENDBRANCH  69  71
ENDBRANCH  67  69
ENDBRANCH  65  66
BRANCH  65  76
ATOM     76  C   UNL     1      -1.792  -0.921   0.000  0.00  0.00    +0.000 C 
BRANCH  76  77
ATOM     77  C   UNL     1      -1.343  -0.229   0.000  0.00  0.00    +0.000 C 
BRANCH  77  78
ATOM     78  C   UNL     1      -0.519  -0.273   0.000  0.00  0.00    +0.000 C 
BRANCH  78  79
ATOM     79  C   UNL     1      -0.069   0.419   0.000  0.00  0.00    +0.000 C 
ATOM     80  N   UNL     1       0.754   0.376   0.000  0.00  0.00    +0.000 NA
ENDBRANCH  78  79
ENDBRANCH  77  78
ENDBRANCH  76  77
ENDBRANCH  65  76
ENDBRANCH  63  65
ENDBRANCH  61  62
BRANCH  61  81
ATOM     81  C   UNL     1      -2.466   1.976   0.000  0.00  0.00    +0.000 C 
BRANCH  81  82
ATOM     82  C   UNL     1      -1.642   1.933   0.000  0.00  0.00    +0.000 A 
ATOM     83  C   UNL     1      -1.193   1.241   0.000  0.00  0.00    +0.000 A 
ATOM     84  N   UNL     1      -0.396   1.454   0.000  0.00  0.00    +0.000 NA
ATOM     85  C   UNL     1      -0.353   2.278   0.000  0.00  0.00    +0.000 A 
ATOM     86  C   UNL     1      -1.123   2.574   0.000  0.00  0.00    +0.000 A 
ATOM     87  C   UNL     1      -1.252   3.389   0.000  0.00  0.00    +0.000 A 
ATOM     88  C   UNL     1      -0.611   3.908   0.000  0.00  0.00    +0.000 A 
ATOM     89  C   UNL     1       0.159   3.612   0.000  0.00  0.00    +0.000 A 
ATOM     90  C   UNL     1       0.288   2.797   0.000  0.00  0.00    +0.000 A 
ENDBRANCH  81  82
ENDBRANCH  61  81
ENDBRANCH  59  61
ENDBRANCH  57  58
BRANCH  57  91
ATOM     91  C   UNL     1      -5.387   1.414   0.000  0.00  0.00    +0.000 C 
BRANCH  91  92
ATOM     92  C   UNL     1      -6.211   1.457   0.000  0.00  0.00    +0.000 A 
ATOM     93  C   UNL     1      -6.730   0.816   0.000  0.00  0.00    +0.000 A 
ATOM     94  N   UNL     1      -7.500   1.112   0.000  0.00  0.00    +0.000 NA
ATOM     95  C   UNL     1      -7.457   1.935   0.000  0.00  0.00    +0.000 A 
ATOM     96  C   UNL     1      -6.660   2.149   0.000  0.00  0.00    +0.000 A 
ATOM     97  C   UNL     1      -6.447   2.946   0.000  0.00  0.00    +0.000 A 
ATOM     98  C   UNL     1      -7.030   3.529   0.000  0.00  0.00    +0.000 A 
ATOM     99  C   UNL     1      -7.827   3.316   0.000  0.00  0.00    +0.000 A 
ATOM    100  C   UNL     1      -8.040   2.519   0.000  0.00  0.00    +0.000 A 
ENDBRANCH  91  92
ENDBRANCH  57  91
ENDBRANCH  55  57
ENDBRANCH   1  54
BRANCH   1 101
ATOM    101  C   UNL     1      -6.361  -1.397   0.000  0.00  0.00    +0.000 C 
BRANCH 101 102
ATOM    102  C   UNL     1      -6.810  -2.089   0.000  0.00  0.00    +0.000 C 
BRANCH 102 103
ATOM    103  C   UNL     1      -7.634  -2.046   0.000  0.00  0.00    +0.000 C 
BRANCH 103 104
ATOM    104  C   UNL     1      -8.083  -2.737   0.000  0.00  0.00    +0.000 C 
ATOM    105  N   UNL     1      -7.709  -3.473   0.000  0.00  0.00    +0.000 NA
ENDBRANCH 103 104
ENDBRANCH 102 103
ENDBRANCH 101 102
ENDBRANCH   1 101
TORSDOF 46
