REMARK  Name = 
REMARK  6 active torsions:
REMARK  status: ('A' for Active; 'I' for Inactive)
REMARK    1  A    between atoms: N_2  and  C_5
REMARK    2  A    between atoms: C_3  and  C_6
REMARK    3  A    between atoms: C_3  and  N_7
REMARK    4  A    between atoms: C_3  and  C_8
REMARK    5  A    between atoms: C_4  and  C_5
REMARK    6  A    between atoms: C_4  and  C_6
REMARK                            x       y       z     vdW  Elec       q    Type
REMARK                         _______ _______ _______ _____ _____    ______ ____
ROOT
ATOM      1  C   UNL     1      -1.082   0.000   0.000  0.00  0.00    +0.000 C 
ENDROOT
BRANCH   1   2
ATOM      2  N   UNL     1      -1.796   0.412   0.000  0.00  0.00    +0.000 N 
ATOM      3  O   UNL     1      -3.205  -0.171   0.000  0.00  0.00    +0.000 OA
ATOM      4  C   UNL     1      -1.796   1.238   0.000  0.00  0.00    +0.000 C 
ATOM      5  C   UNL     1      -2.621   0.412   0.000  0.00  0.00    +0.000 C 
ATOM      6  C   UNL     1      -2.621   1.238   0.000  0.00  0.00    +0.000 C 
ENDBRANCH   1   2
BRANCH   1   7
ATOM      7  C   UNL     1      -1.082  -0.825   0.000  0.00  0.00    +0.000 C 
ATOM      8  O   UNL     1      -1.796  -1.237   0.000  0.00  0.00    +0.000 OA
ATOM      9  O   UNL     1      -0.367  -1.237   0.000  0.00  0.00    +0.000 OA
ENDBRANCH   1   7
BRANCH   1  10
ATOM     10  C   UNL     1      -0.367   0.412   0.000  0.00  0.00    +0.000 C 
BRANCH  10  11
ATOM     11  C   UNL     1       0.347   0.000   0.000  0.00  0.00    +0.000 C 
BRANCH  11  12
ATOM     12  C   UNL     1       1.061   0.412   0.000  0.00  0.00    +0.000 C 
BRANCH  12  14
ATOM     13  C   UNL     1       2.490   0.412   0.000  0.00  0.00    +0.000 C 
ATOM     14  N   UNL     1       1.776   0.000   0.000  0.00  0.00    +0.000 NA
ATOM     15  N   UNL     1       3.205   0.000   0.000  0.00  0.00    +0.000 NA
ATOM     16  N   UNL     1       2.490   1.238   0.000  0.00  0.00    +0.000 NA
ENDBRANCH  12  14
ENDBRANCH  11  12
ENDBRANCH  10  11
ENDBRANCH   1  10
TORSDOF 6
