REMARK  Name = 
REMARK  20 active torsions:
REMARK  status: ('A' for Active; 'I' for Inactive)
REMARK    1  A    between atoms: C_1  and  C_2
REMARK    2  A    between atoms: C_1  and  C_3
REMARK    3  A    between atoms: C_1  and  N_4
REMARK    4  A    between atoms: C_2  and  C_41
REMARK    5  A    between atoms: C_3  and  C_5
REMARK    6  A    between atoms: C_5  and  C_7
REMARK    7  A    between atoms: C_6  and  C_8
REMARK    8  A    between atoms: C_7  and  C_10
REMARK    9  A    between atoms: C_7  and  N_11
REMARK   10  A    between atoms: C_8  and  N_12
REMARK   11  A    between atoms: C_8  and  C_47
REMARK   12  A    between atoms: C_10  and  C_13
REMARK   13  A    between atoms: C_14  and  O_18
REMARK   14  A    between atoms: O_18  and  C_24
REMARK   15  A    between atoms: N_20  and  C_25
REMARK   16  A    between atoms: C_24  and  C_28
REMARK   17  A    between atoms: C_25  and  C_29
REMARK   18  A    between atoms: C_36  and  C_38
REMARK   19  A    between atoms: C_47  and  C_48
REMARK   20  A    between atoms: C_48  and  N_49
REMARK                            x       y       z     vdW  Elec       q    Type
REMARK                         _______ _______ _______ _____ _____    ______ ____
ROOT
ATOM      1  C   UNL     1      11.422  -5.516   0.000  0.00  0.00    +0.000 C 
ENDROOT
BRANCH   1   2
ATOM      2  N   UNL     1      10.721  -5.104   0.000  0.00  0.00    +0.000 NA
ATOM      3  C   UNL     1      10.020  -5.516   0.000  0.00  0.00    +0.000 C 
ATOM      4  O   UNL     1      10.020  -6.341   0.000  0.00  0.00    +0.000 OA
BRANCH   3   5
ATOM      5  C   UNL     1       9.277  -5.104   0.000  0.00  0.00    +0.000 C 
BRANCH   5   6
ATOM      6  N   UNL     1       8.576  -5.516   0.000  0.00  0.00    +0.000 NA
ATOM      7  C   UNL     1       7.875  -5.104   0.000  0.00  0.00    +0.000 C 
ATOM      8  N   UNL     1       7.174  -5.516   0.000  0.00  0.00    +0.000 N 
ATOM      9  O   UNL     1       7.875  -4.279   0.000  0.00  0.00    +0.000 OA
ATOM     10  C   UNL     1       7.174  -6.341   0.000  0.00  0.00    +0.000 C 
BRANCH   8  11
ATOM     11  C   UNL     1       6.431  -5.104   0.000  0.00  0.00    +0.000 C 
BRANCH  11  12
ATOM     12  C   UNL     1       5.730  -5.516   0.000  0.00  0.00    +0.000 A 
ATOM     13  N   UNL     1       4.946  -5.310   0.000  0.00  0.00    +0.000 NA
ATOM     14  C   UNL     1       5.730  -6.341   0.000  0.00  0.00    +0.000 A 
ATOM     15  C   UNL     1       4.492  -6.011   0.000  0.00  0.00    +0.000 A 
ATOM     16  S   UNL     1       4.987  -6.630   0.000  0.00  0.00    +0.000 S 
BRANCH  15  17
ATOM     17  C   UNL     1       3.667  -6.011   0.000  0.00  0.00    +0.000 C 
ATOM     18  C   UNL     1       3.214  -5.310   0.000  0.00  0.00    +0.000 C 
ATOM     19  C   UNL     1       3.296  -6.712   0.000  0.00  0.00    +0.000 C 
ENDBRANCH  15  17
ENDBRANCH  11  12
ENDBRANCH   8  11
ENDBRANCH   5   6
BRANCH   5  20
ATOM     20  C   UNL     1       9.267  -4.279   0.000  0.00  0.00    +0.000 C 
BRANCH  20  21
ATOM     21  C   UNL     1       8.556  -3.879   0.000  0.00  0.00    +0.000 C 
BRANCH  21  22
ATOM     22  N   UNL     1       8.556  -3.054   0.000  0.00  0.00    +0.000 NA
ATOM     23  C   UNL     1       9.260  -2.647   0.000  0.00  0.00    +0.000 C 
ATOM     24  C   UNL     1       9.259  -1.822   0.000  0.00  0.00    +0.000 C 
ATOM     25  O   UNL     1       8.545  -1.410   0.000  0.00  0.00    +0.000 OA
ATOM     26  C   UNL     1       7.840  -1.817   0.000  0.00  0.00    +0.000 C 
ATOM     27  C   UNL     1       7.841  -2.642   0.000  0.00  0.00    +0.000 C 
ENDBRANCH  21  22
ENDBRANCH  20  21
ENDBRANCH   5  20
ENDBRANCH   3   5
ENDBRANCH   1   2
BRANCH   1  28
ATOM     28  C   UNL     1      12.124  -5.104   0.000  0.00  0.00    +0.000 C 
BRANCH  28  29
ATOM     29  C   UNL     1      12.866  -5.516   0.000  0.00  0.00    +0.000 C 
BRANCH  29  30
ATOM     30  C   UNL     1      13.567  -5.104   0.000  0.00  0.00    +0.000 C 
BRANCH  30  31
ATOM     31  N   UNL     1      14.269  -5.475   0.000  0.00  0.00    +0.000 NA
ATOM     32  C   UNL     1      14.970  -5.104   0.000  0.00  0.00    +0.000 C 
ATOM     33  O   UNL     1      14.970  -4.279   0.000  0.00  0.00    +0.000 OA
BRANCH  32  34
ATOM     34  O   UNL     1      15.712  -5.475   0.000  0.00  0.00    +0.000 OA
BRANCH  34  35
ATOM     35  C   UNL     1      16.414  -5.062   0.000  0.00  0.00    +0.000 C 
BRANCH  35  36
ATOM     36  C   UNL     1      17.115  -5.475   0.000  0.00  0.00    +0.000 A 
ATOM     37  C   UNL     1      17.115  -6.300   0.000  0.00  0.00    +0.000 A 
ATOM     38  S   UNL     1      17.899  -5.227   0.000  0.00  0.00    +0.000 S 
ATOM     39  N   UNL     1      17.899  -6.547   0.000  0.00  0.00    +0.000 NA
ATOM     40  C   UNL     1      18.394  -5.887   0.000  0.00  0.00    +0.000 A 
ENDBRANCH  35  36
ENDBRANCH  34  35
ENDBRANCH  32  34
ENDBRANCH  30  31
BRANCH  30  41
ATOM     41  C   UNL     1      13.567  -4.279   0.000  0.00  0.00    +0.000 C 
BRANCH  41  42
ATOM     42  C   UNL     1      12.825  -3.866   0.000  0.00  0.00    +0.000 A 
ATOM     43  C   UNL     1      12.825  -3.041   0.000  0.00  0.00    +0.000 A 
ATOM     44  C   UNL     1      12.124  -4.279   0.000  0.00  0.00    +0.000 A 
ATOM     45  C   UNL     1      12.124  -2.628   0.000  0.00  0.00    +0.000 A 
ATOM     46  C   UNL     1      11.422  -3.866   0.000  0.00  0.00    +0.000 A 
ATOM     47  C   UNL     1      11.422  -3.041   0.000  0.00  0.00    +0.000 A 
ENDBRANCH  41  42
ENDBRANCH  30  41
ENDBRANCH  29  30
ENDBRANCH  28  29
ENDBRANCH   1  28
BRANCH   1  48
ATOM     48  C   UNL     1      11.422  -6.341   0.000  0.00  0.00    +0.000 C 
BRANCH  48  49
ATOM     49  C   UNL     1      12.137  -6.753   0.000  0.00  0.00    +0.000 A 
ATOM     50  C   UNL     1      12.137  -7.578   0.000  0.00  0.00    +0.000 A 
ATOM     51  C   UNL     1      12.851  -7.991   0.000  0.00  0.00    +0.000 A 
ATOM     52  C   UNL     1      13.566  -7.578   0.000  0.00  0.00    +0.000 A 
ATOM     53  C   UNL     1      13.566  -6.753   0.000  0.00  0.00    +0.000 A 
ATOM     54  C   UNL     1      12.851  -6.341   0.000  0.00  0.00    +0.000 A 
ENDBRANCH  48  49
ENDBRANCH   1  48
TORSDOF 20
