REMARK  Name = 
REMARK  6 active torsions:
REMARK  status: ('A' for Active; 'I' for Inactive)
REMARK    1  A    between atoms: C_6  and  N_23
REMARK    2  A    between atoms: C_7  and  N_24
REMARK    3  A    between atoms: C_9  and  C_13
REMARK    4  A    between atoms: C_11  and  C_16
REMARK    5  A    between atoms: C_14  and  O_27
REMARK    6  A    between atoms: C_15  and  O_28
REMARK                            x       y       z     vdW  Elec       q    Type
REMARK                         _______ _______ _______ _____ _____    ______ ____
ROOT
ATOM      1  C   UNL     1      -0.398   0.754   0.000  0.00  0.00    +0.000 C 
ATOM      2  C   UNL     1      -0.628  -0.698   0.000  0.00  0.00    +0.000 A 
ATOM      3  C   UNL     1       0.641  -0.285   0.000  0.00  0.00    +0.000 A 
ATOM      4  C   UNL     1       0.641  -1.110   0.000  0.00  0.00    +0.000 A 
ATOM      5  C   UNL     1       1.356   0.127   0.000  0.00  0.00    +0.000 A 
ATOM      6  C   UNL     1       2.070  -1.110   0.000  0.00  0.00    +0.000 A 
ATOM      7  N   UNL     1      -0.143  -1.365   0.000  0.00  0.00    +0.000 NA
ATOM      8  N   UNL     1      -0.143  -0.030   0.000  0.00  0.00    +0.000 N 
ATOM      9  N   UNL     1       1.356  -1.523   0.000  0.00  0.00    +0.000 N 
ATOM     10  N   UNL     1       2.070  -0.285   0.000  0.00  0.00    +0.000 N 
ATOM     11  O   UNL     1       1.356   0.952   0.000  0.00  0.00    +0.000 OA
ATOM     12  O   UNL     1       2.784  -1.523   0.000  0.00  0.00    +0.000 OA
ENDROOT
BRANCH  10  14
ATOM     13  C   UNL     1       3.499  -0.285   0.000  0.00  0.00    +0.000 C 
ATOM     14  C   UNL     1       2.784   0.127   0.000  0.00  0.00    +0.000 C 
ENDBRANCH  10  14
BRANCH   9  16
ATOM     15  C   UNL     1       2.070  -2.760   0.000  0.00  0.00    +0.000 C 
ATOM     16  C   UNL     1       1.356  -2.348   0.000  0.00  0.00    +0.000 C 
ENDBRANCH   9  16
BRANCH   2  18
ATOM     17  C   UNL     1      -1.866  -1.412   0.000  0.00  0.00    +0.000 C 
ATOM     18  C   UNL     1      -1.453  -0.698   0.000  0.00  0.00    +0.000 C 
BRANCH  17  22
ATOM     19  C   UNL     1      -3.103  -0.698   0.000  0.00  0.00    +0.000 A 
ATOM     20  C   UNL     1      -3.928  -0.698   0.000  0.00  0.00    +0.000 A 
ATOM     21  C   UNL     1      -3.103  -2.127   0.000  0.00  0.00    +0.000 A 
ATOM     22  C   UNL     1      -2.691  -1.412   0.000  0.00  0.00    +0.000 A 
ATOM     23  C   UNL     1      -4.341  -1.412   0.000  0.00  0.00    +0.000 A 
ATOM     24  C   UNL     1      -3.928  -2.127   0.000  0.00  0.00    +0.000 A 
BRANCH  23  26
ATOM     25  C   UNL     1      -5.578  -2.127   0.000  0.00  0.00    +0.000 C 
ATOM     26  O   UNL     1      -5.166  -1.412   0.000  0.00  0.00    +0.000 OA
ENDBRANCH  23  26
BRANCH  24  28
ATOM     27  C   UNL     1      -5.166  -2.841   0.000  0.00  0.00    +0.000 C 
ATOM     28  O   UNL     1      -4.341  -2.841   0.000  0.00  0.00    +0.000 OA
ENDBRANCH  24  28
ENDBRANCH  17  22
ENDBRANCH   2  18
TORSDOF 6
