REMARK  Name = 
REMARK  2 active torsions:
REMARK  status: ('A' for Active; 'I' for Inactive)
REMARK    1  A    between atoms: S_1  and  O_4
REMARK    2  A    between atoms: O_4  and  C_13
REMARK                            x       y       z     vdW  Elec       q    Type
REMARK                         _______ _______ _______ _____ _____    ______ ____
ROOT
ATOM      1  O   UNL     1       1.649  -0.238   0.000  0.00  0.00    +0.000 OA
ATOM      2  O   UNL     1      -1.163   0.380   0.000  0.00  0.00    +0.000 OA
ATOM      3  O   UNL     1      -0.246   2.174   0.000  0.00  0.00    +0.000 OA
ATOM      4  O   UNL     1      -1.822  -0.628   0.000  0.00  0.00    +0.000 OA
ATOM      5  C   UNL     1       0.413   0.274   0.000  0.00  0.00    +0.000 C 
ATOM      6  C   UNL     1       0.094   1.586   0.000  0.00  0.00    +0.000 C 
ATOM      7  C   UNL     1       0.590   0.927   0.000  0.00  0.00    +0.000 C 
ATOM      8  C   UNL     1      -0.621  -0.562   0.000  0.00  0.00    +0.000 C 
ATOM      9  C   UNL     1       1.822   0.415   0.000  0.00  0.00    +0.000 C 
ATOM     10  C   UNL     1      -1.234  -0.289   0.000  0.00  0.00    +0.000 C 
ENDROOT
BRANCH   8  11
ATOM     11  O   UNL     1      -0.479  -1.221   0.000  0.00  0.00    +0.000 OA
BRANCH  11  12
ATOM     12  S   UNL     1      -0.981  -1.672   0.000  0.00  0.00    +0.000 S 
ATOM     13  O   UNL     1      -1.482  -2.123   0.000  0.00  0.00    +0.000 OA
ATOM     14  O   UNL     1      -1.431  -1.171   0.000  0.00  0.00    +0.000 OA
ATOM     15  O   UNL     1      -0.529  -2.174   0.000  0.00  0.00    +0.000 OA
ENDBRANCH  11  12
ENDBRANCH   8  11
TORSDOF 2
