REMARK  Name = 
REMARK  3 active torsions:
REMARK  status: ('A' for Active; 'I' for Inactive)
REMARK    1  A    between atoms: C_6  and  O_18
REMARK    2  A    between atoms: C_8  and  C_9
REMARK    3  A    between atoms: C_9  and  C_11
REMARK                            x       y       z     vdW  Elec       q    Type
REMARK                         _______ _______ _______ _____ _____    ______ ____
ROOT
ATOM      1  C   UNL     1       1.903  -0.410   0.000  0.00  0.00    +0.000 A 
ATOM      2  N   UNL     1       1.405   0.264   0.000  0.00  0.00    +0.000 NA
ATOM      3  N   UNL     1       1.405  -1.083   0.000  0.00  0.00    +0.000 NA
ATOM      4  N   UNL     1       2.723  -0.381   0.000  0.00  0.00    +0.000 NA
ATOM      5  C   UNL     1       0.644   0.029   0.000  0.00  0.00    +0.000 A 
ATOM      6  C   UNL     1       3.133   0.322   0.000  0.00  0.00    +0.000 C 
ATOM      7  C   UNL     1       0.644  -0.820   0.000  0.00  0.00    +0.000 A 
ATOM      8  C   UNL     1      -0.791   0.029   0.000  0.00  0.00    +0.000 A 
ATOM      9  C   UNL     1      -0.088   0.410   0.000  0.00  0.00    +0.000 A 
ATOM     10  O   UNL     1       2.723   1.054   0.000  0.00  0.00    +0.000 OA
ATOM     11  C   UNL     1      -0.791  -0.820   0.000  0.00  0.00    +0.000 A 
ATOM     12  C   UNL     1      -0.088  -1.230   0.000  0.00  0.00    +0.000 A 
ENDROOT
BRANCH   8  13
ATOM     13  C   UNL     1      -1.522   0.410   0.000  0.00  0.00    +0.000 C 
ATOM     14  O   UNL     1      -1.522   1.259   0.000  0.00  0.00    +0.000 OA
BRANCH  13  15
ATOM     15  C   UNL     1      -2.225   0.029   0.000  0.00  0.00    +0.000 A 
ATOM     16  C   UNL     1      -2.225  -0.820   0.000  0.00  0.00    +0.000 A 
ATOM     17  C   UNL     1      -2.957   0.410   0.000  0.00  0.00    +0.000 A 
ATOM     18  C   UNL     1      -3.660  -0.820   0.000  0.00  0.00    +0.000 A 
ATOM     19  C   UNL     1      -3.660   0.029   0.000  0.00  0.00    +0.000 A 
ATOM     20  C   UNL     1      -2.957  -1.230   0.000  0.00  0.00    +0.000 A 
ATOM     21  F   UNL     1      -4.392  -1.259   0.000  0.00  0.00    +0.000 F 
ENDBRANCH  13  15
ENDBRANCH   8  13
BRANCH   6  22
ATOM     22  O   UNL     1       3.982   0.322   0.000  0.00  0.00    +0.000 OA
ATOM     23  C   UNL     1       4.392   1.054   0.000  0.00  0.00    +0.000 C 
ENDBRANCH   6  22
TORSDOF 3
