REMARK  Name = 
REMARK  0 active torsions:
REMARK  status: ('A' for Active; 'I' for Inactive)
REMARK                            x       y       z     vdW  Elec       q    Type
REMARK                         _______ _______ _______ _____ _____    ______ ____
ROOT
ATOM      1  S   UNL     1       0.659   0.681   0.000  0.00  0.00    +0.000 S 
ATOM      2  N   UNL     1       0.659  -0.143   0.000  0.00  0.00    +0.000 NA
ATOM      3  O   UNL     1      -0.055   1.094   0.000  0.00  0.00    +0.000 OA
ATOM      4  O   UNL     1       1.484   0.710   0.000  0.00  0.00    +0.000 OA
ATOM      5  O   UNL     1       1.097   1.381   0.000  0.00  0.00    +0.000 OA
ATOM      6  C   UNL     1      -0.055  -0.556   0.000  0.00  0.00    +0.000 C 
ATOM      7  C   UNL     1      -0.770   0.681   0.000  0.00  0.00    +0.000 C 
ATOM      8  C   UNL     1      -0.770  -0.143   0.000  0.00  0.00    +0.000 C 
ATOM      9  O   UNL     1      -0.055  -1.381   0.000  0.00  0.00    +0.000 OA
ATOM     10  C   UNL     1      -1.484   1.094   0.000  0.00  0.00    +0.000 C 
ENDROOT
TORSDOF 0
