REMARK  Name = 
REMARK  1 active torsions:
REMARK  status: ('A' for Active; 'I' for Inactive)
REMARK    1  A    between atoms: C_10  and  C_11
REMARK                            x       y       z     vdW  Elec       q    Type
REMARK                         _______ _______ _______ _____ _____    ______ ____
ROOT
ATOM      1  C   UNL     1       0.715   1.238   0.000  0.00  0.00    +0.000 A 
ATOM      2  C   UNL     1       0.715   2.062   0.000  0.00  0.00    +0.000 A 
ATOM      3  C   UNL     1       1.429   0.825   0.000  0.00  0.00    +0.000 A 
ATOM      4  C   UNL     1       1.429   2.475   0.000  0.00  0.00    +0.000 A 
ATOM      5  C   UNL     1       3.572   1.238   0.000  0.00  0.00    +0.000 C 
ATOM      6  C   UNL     1       2.143   1.238   0.000  0.00  0.00    +0.000 A 
ATOM      7  C   UNL     1       2.143   2.062   0.000  0.00  0.00    +0.000 A 
ATOM      8  C   UNL     1       3.572   2.062   0.000  0.00  0.00    +0.000 C 
ATOM      9  O   UNL     1       2.858   0.825   0.000  0.00  0.00    +0.000 OA
ATOM     10  O   UNL     1       2.858   2.475   0.000  0.00  0.00    +0.000 OA
ENDROOT
BRANCH   8  13
ATOM     11  C   UNL     1       5.593   2.752   0.000  0.00  0.00    +0.000 C 
ATOM     12  C   UNL     1       5.180   3.467   0.000  0.00  0.00    +0.000 C 
ATOM     13  C   UNL     1       4.287   2.475   0.000  0.00  0.00    +0.000 C 
ATOM     14  N   UNL     1       5.040   2.139   0.000  0.00  0.00    +0.000 NA
ATOM     15  N   UNL     1       4.373   3.296   0.000  0.00  0.00    +0.000 NA
ENDBRANCH   8  13
TORSDOF 1
