REMARK  Name = 
REMARK  6 active torsions:
REMARK  status: ('A' for Active; 'I' for Inactive)
REMARK    1  A    between atoms: C_1  and  C_24
REMARK    2  A    between atoms: C_4  and  N_7
REMARK    3  A    between atoms: N_7  and  C_8
REMARK    4  A    between atoms: N_14  and  C_15
REMARK    5  A    between atoms: C_18  and  C_22
REMARK    6  A    between atoms: C_25  and  C_26
REMARK                            x       y       z     vdW  Elec       q    Type
REMARK                         _______ _______ _______ _____ _____    ______ ____
ROOT
ATOM      1  C   UNL     1      -2.143  -0.619   0.000  0.00  0.00    +0.000 A 
ATOM      2  N   UNL     1      -1.429  -1.031   0.000  0.00  0.00    +0.000 NA
ATOM      3  C   UNL     1      -1.429  -1.856   0.000  0.00  0.00    +0.000 A 
ATOM      4  N   UNL     1      -2.143  -2.269   0.000  0.00  0.00    +0.000 NA
ATOM      5  C   UNL     1      -2.858  -1.856   0.000  0.00  0.00    +0.000 A 
ATOM      6  C   UNL     1      -2.858  -1.031   0.000  0.00  0.00    +0.000 A 
ATOM      7  N   UNL     1      -0.714  -2.269   0.000  0.00  0.00    +0.000 NA
ENDROOT
BRANCH   7   8
ATOM      8  C   UNL     1       0.000  -1.856   0.000  0.00  0.00    +0.000 A 
ATOM      9  C   UNL     1       0.714  -2.269   0.000  0.00  0.00    +0.000 A 
ATOM     10  C   UNL     1       1.429  -1.856   0.000  0.00  0.00    +0.000 A 
ATOM     11  C   UNL     1       1.429  -1.031   0.000  0.00  0.00    +0.000 A 
ATOM     12  C   UNL     1       0.714  -0.619   0.000  0.00  0.00    +0.000 A 
ATOM     13  C   UNL     1       0.000  -1.031   0.000  0.00  0.00    +0.000 A 
BRANCH  11  14
ATOM     14  C   UNL     1       2.143  -0.619   0.000  0.00  0.00    +0.000 C 
ATOM     15  N   UNL     1       2.858  -0.206   0.000  0.00  0.00    +0.000 NA
ENDBRANCH  11  14
ENDBRANCH   7   8
BRANCH   1  16
ATOM     16  N   UNL     1      -2.143   0.206   0.000  0.00  0.00    +0.000 NA
BRANCH  16  20
ATOM     17  C   UNL     1       0.000   1.444   0.000  0.00  0.00    +0.000 A 
ATOM     18  C   UNL     1      -0.714   1.856   0.000  0.00  0.00    +0.000 A 
ATOM     19  C   UNL     1      -1.429   1.444   0.000  0.00  0.00    +0.000 A 
ATOM     20  C   UNL     1      -1.429   0.619   0.000  0.00  0.00    +0.000 A 
ATOM     21  C   UNL     1      -0.714   0.206   0.000  0.00  0.00    +0.000 A 
ATOM     22  C   UNL     1       0.000   0.619   0.000  0.00  0.00    +0.000 A 
ATOM     23  C   UNL     1      -0.714  -0.619   0.000  0.00  0.00    +0.000 C 
ATOM     24  C   UNL     1      -2.143   1.856   0.000  0.00  0.00    +0.000 C 
BRANCH  17  25
ATOM     25  C   UNL     1       0.714   1.856   0.000  0.00  0.00    +0.000 C 
ATOM     26  C   UNL     1       1.429   1.444   0.000  0.00  0.00    +0.000 C 
BRANCH  26  27
ATOM     27  C   UNL     1       2.143   1.856   0.000  0.00  0.00    +0.000 C 
ATOM     28  N   UNL     1       2.858   2.269   0.000  0.00  0.00    +0.000 NA
ENDBRANCH  26  27
ENDBRANCH  17  25
ENDBRANCH  16  20
ENDBRANCH   1  16
TORSDOF 6
