REMARK  Name = 
REMARK  4 active torsions:
REMARK  status: ('A' for Active; 'I' for Inactive)
REMARK    1  A    between atoms: C_7  and  C_8
REMARK    2  A    between atoms: C_16  and  N_17
REMARK    3  A    between atoms: N_17  and  C_18
REMARK    4  A    between atoms: C_18  and  C_19
REMARK                            x       y       z     vdW  Elec       q    Type
REMARK                         _______ _______ _______ _____ _____    ______ ____
ROOT
ATOM      1  C   UNL     1      -0.360   2.687   0.000  0.00  0.00    +0.000 C 
ATOM      2  C   UNL     1       0.354   2.273   0.000  0.00  0.00    +0.000 A 
ATOM      3  N   UNL     1       0.354   1.448   0.000  0.00  0.00    +0.000 N 
ATOM      4  C   UNL     1       1.783   1.448   0.000  0.00  0.00    +0.000 A 
ATOM      5  C   UNL     1       1.783   2.273   0.000  0.00  0.00    +0.000 A 
ATOM      6  C   UNL     1       1.066   2.687   0.000  0.00  0.00    +0.000 A 
ATOM      7  C   UNL     1       2.497   2.687   0.000  0.00  0.00    +0.000 A 
ATOM      8  C   UNL     1       3.212   2.273   0.000  0.00  0.00    +0.000 A 
ATOM      9  C   UNL     1       3.212   1.448   0.000  0.00  0.00    +0.000 A 
ATOM     10  C   UNL     1       2.497   1.037   0.000  0.00  0.00    +0.000 A 
ATOM     11  C   UNL     1      -0.360   1.037   0.000  0.00  0.00    +0.000 A 
ATOM     12  N   UNL     1      -0.360   0.206   0.000  0.00  0.00    +0.000 NA
ATOM     13  C   UNL     1      -1.073  -0.210   0.000  0.00  0.00    +0.000 A 
ATOM     14  C   UNL     1      -1.787   0.206   0.000  0.00  0.00    +0.000 A 
ATOM     15  C   UNL     1      -1.787   1.037   0.000  0.00  0.00    +0.000 A 
ATOM     16  N   UNL     1      -1.073   1.452   0.000  0.00  0.00    +0.000 NA
ATOM     17  C   UNL     1      -2.499   1.452   0.000  0.00  0.00    +0.000 C 
ATOM     18  C   UNL     1      -3.212   1.037   0.000  0.00  0.00    +0.000 C 
ATOM     19  O   UNL     1      -3.212   0.206   0.000  0.00  0.00    +0.000 OA
ATOM     20  C   UNL     1      -2.499  -0.210   0.000  0.00  0.00    +0.000 C 
ENDROOT
BRANCH   7  21
ATOM     21  C   UNL     1       2.497   3.511   0.000  0.00  0.00    +0.000 C 
ATOM     22  N   UNL     1       3.212   3.923   0.000  0.00  0.00    +0.000 NA
ATOM     23  O   UNL     1       1.783   3.923   0.000  0.00  0.00    +0.000 OA
ENDBRANCH   7  21
BRANCH  13  24
ATOM     24  N   UNL     1      -1.073  -1.035   0.000  0.00  0.00    +0.000 NA
BRANCH  24  25
ATOM     25  C   UNL     1      -0.358  -1.448   0.000  0.00  0.00    +0.000 C 
BRANCH  25  26
ATOM     26  C   UNL     1      -0.358  -2.273   0.000  0.00  0.00    +0.000 A 
ATOM     27  C   UNL     1      -1.075  -2.684   0.000  0.00  0.00    +0.000 A 
ATOM     28  C   UNL     1      -1.075  -3.509   0.000  0.00  0.00    +0.000 A 
ATOM     29  C   UNL     1      -0.358  -3.923   0.000  0.00  0.00    +0.000 A 
ATOM     30  C   UNL     1       0.354  -3.509   0.000  0.00  0.00    +0.000 A 
ATOM     31  C   UNL     1       0.354  -2.684   0.000  0.00  0.00    +0.000 A 
ENDBRANCH  25  26
ENDBRANCH  24  25
ENDBRANCH  13  24
TORSDOF 4
