REMARK  Name = 
REMARK  14 active torsions:
REMARK  status: ('A' for Active; 'I' for Inactive)
REMARK    1  A    between atoms: C_4  and  C_5
REMARK    2  A    between atoms: C_5  and  C_6
REMARK    3  A    between atoms: C_6  and  C_7
REMARK    4  A    between atoms: C_9  and  C_10
REMARK    5  A    between atoms: C_10  and  C_11
REMARK    6  A    between atoms: C_11  and  C_12
REMARK    7  A    between atoms: C_14  and  C_15
REMARK    8  A    between atoms: C_15  and  C_16
REMARK    9  A    between atoms: C_16  and  C_17
REMARK   10  A    between atoms: C_19  and  C_20
REMARK   11  A    between atoms: C_20  and  C_21
REMARK   12  A    between atoms: C_21  and  C_22
REMARK   13  A    between atoms: C_24  and  C_25
REMARK   14  A    between atoms: C_25  and  C_26
REMARK                            x       y       z     vdW  Elec       q    Type
REMARK                         _______ _______ _______ _____ _____    ______ ____
ROOT
ATOM      1  C   UNL     1      -5.716   0.000   0.000  0.00  0.00    +0.000 C 
ATOM      2  C   UNL     1      -5.716   0.825   0.000  0.00  0.00    +0.000 C 
ATOM      3  C   UNL     1      -5.001  -0.412   0.000  0.00  0.00    +0.000 C 
ENDROOT
BRANCH   1   4
ATOM      4  C   UNL     1      -6.430  -0.412   0.000  0.00  0.00    +0.000 C 
BRANCH   4   5
ATOM      5  C   UNL     1      -7.145   0.000   0.000  0.00  0.00    +0.000 C 
BRANCH   5   8
ATOM      6  C   UNL     1      -8.574   0.000   0.000  0.00  0.00    +0.000 C 
ATOM      7  C   UNL     1      -8.574   0.825   0.000  0.00  0.00    +0.000 C 
ATOM      8  C   UNL     1      -7.859  -0.412   0.000  0.00  0.00    +0.000 C 
BRANCH   6   9
ATOM      9  C   UNL     1      -9.288  -0.412   0.000  0.00  0.00    +0.000 C 
BRANCH   9  10
ATOM     10  C   UNL     1     -10.003   0.000   0.000  0.00  0.00    +0.000 C 
BRANCH  10  13
ATOM     11  C   UNL     1     -11.431   0.000   0.000  0.00  0.00    +0.000 C 
ATOM     12  C   UNL     1     -11.431   0.825   0.000  0.00  0.00    +0.000 C 
ATOM     13  C   UNL     1     -10.717  -0.412   0.000  0.00  0.00    +0.000 C 
BRANCH  11  14
ATOM     14  C   UNL     1     -12.146  -0.412   0.000  0.00  0.00    +0.000 C 
BRANCH  14  15
ATOM     15  C   UNL     1     -12.861   0.000   0.000  0.00  0.00    +0.000 C 
BRANCH  15  19
ATOM     16  C   UNL     1     -15.004  -0.412   0.000  0.00  0.00    +0.000 C 
ATOM     17  C   UNL     1     -14.289   0.000   0.000  0.00  0.00    +0.000 C 
ATOM     18  C   UNL     1     -14.289   0.825   0.000  0.00  0.00    +0.000 C 
ATOM     19  C   UNL     1     -13.575  -0.412   0.000  0.00  0.00    +0.000 C 
ENDBRANCH  15  19
ENDBRANCH  14  15
ENDBRANCH  11  14
ENDBRANCH  10  13
ENDBRANCH   9  10
ENDBRANCH   6   9
ENDBRANCH   5   8
ENDBRANCH   4   5
ENDBRANCH   1   4
BRANCH   3  20
ATOM     20  C   UNL     1      -4.287   0.000   0.000  0.00  0.00    +0.000 C 
BRANCH  20  21
ATOM     21  C   UNL     1      -3.572  -0.412   0.000  0.00  0.00    +0.000 C 
BRANCH  21  22
ATOM     22  C   UNL     1      -2.858   0.000   0.000  0.00  0.00    +0.000 C 
ATOM     23  C   UNL     1      -2.858   0.825   0.000  0.00  0.00    +0.000 C 
ATOM     24  C   UNL     1      -2.143  -0.412   0.000  0.00  0.00    +0.000 C 
BRANCH  24  25
ATOM     25  C   UNL     1      -1.429   0.000   0.000  0.00  0.00    +0.000 C 
BRANCH  25  26
ATOM     26  C   UNL     1      -0.715  -0.412   0.000  0.00  0.00    +0.000 C 
ATOM     27  C   UNL     1      -0.715  -1.238   0.000  0.00  0.00    +0.000 C 
ATOM     28  C   UNL     1      -1.429  -1.650   0.000  0.00  0.00    +0.000 C 
ATOM     29  C   UNL     1       0.000  -1.650   0.000  0.00  0.00    +0.000 C 
ATOM     30  O   UNL     1       0.000  -2.475   0.000  0.00  0.00    +0.000 OA
ATOM     31  C   UNL     1       0.715  -1.238   0.000  0.00  0.00    +0.000 A 
ATOM     32  C   UNL     1       0.715  -0.412   0.000  0.00  0.00    +0.000 A 
ATOM     33  C   UNL     1       1.429   0.000   0.000  0.00  0.00    +0.000 A 
ATOM     34  C   UNL     1       2.143  -0.412   0.000  0.00  0.00    +0.000 A 
ATOM     35  C   UNL     1       2.143  -1.238   0.000  0.00  0.00    +0.000 A 
ATOM     36  C   UNL     1       1.429  -1.650   0.000  0.00  0.00    +0.000 A 
ATOM     37  C   UNL     1       0.000   0.000   0.000  0.00  0.00    +0.000 C 
ATOM     38  O   UNL     1       0.000   0.825   0.000  0.00  0.00    +0.000 OA
ENDBRANCH  25  26
ENDBRANCH  24  25
ENDBRANCH  21  22
ENDBRANCH  20  21
ENDBRANCH   3  20
TORSDOF 14
