REMARK  Name = 
REMARK  6 active torsions:
REMARK  status: ('A' for Active; 'I' for Inactive)
REMARK    1  A    between atoms: N_2  and  C_7
REMARK    2  A    between atoms: C_10  and  C_11
REMARK    3  A    between atoms: C_13  and  O_14
REMARK    4  A    between atoms: O_14  and  C_15
REMARK    5  A    between atoms: C_15  and  C_16
REMARK    6  A    between atoms: C_16  and  C_18
REMARK                            x       y       z     vdW  Elec       q    Type
REMARK                         _______ _______ _______ _____ _____    ______ ____
ROOT
ATOM      1  C   UNL     1       1.592  -0.216   0.000  0.00  0.00    +0.000 C 
ATOM      2  C   UNL     1       1.375  -1.015   0.000  0.00  0.00    +0.000 C 
ATOM      3  C   UNL     1       2.109  -1.385   0.000  0.00  0.00    +0.000 C 
ATOM      4  C   UNL     1       0.256  -0.285   0.000  0.00  0.00    +0.000 C 
ATOM      5  C   UNL     1       0.551  -1.058   0.000  0.00  0.00    +0.000 C 
ATOM      6  O   UNL     1       0.898   0.231   0.000  0.00  0.00    +0.000 OA
ATOM      7  O   UNL     1       1.415  -1.839   0.000  0.00  0.00    +0.000 OA
ENDROOT
BRANCH   1   9
ATOM      8  C   UNL     1       0.864   1.290   0.000  0.00  0.00    +0.000 A 
ATOM      9  N   UNL     1       1.579   0.877   0.000  0.00  0.00    +0.000 N 
ATOM     10  C   UNL     1       2.288   1.285   0.000  0.00  0.00    +0.000 A 
ATOM     11  C   UNL     1       2.291   2.111   0.000  0.00  0.00    +0.000 A 
ATOM     12  C   UNL     1       1.576   2.523   0.000  0.00  0.00    +0.000 A 
ATOM     13  N   UNL     1       0.860   2.110   0.000  0.00  0.00    +0.000 NA
ATOM     14  O   UNL     1       0.151   0.875   0.000  0.00  0.00    +0.000 OA
ATOM     15  N   UNL     1       1.576   3.348   0.000  0.00  0.00    +0.000 NA
ENDBRANCH   1   9
BRANCH   4  16
ATOM     16  C   UNL     1      -0.478   0.087   0.000  0.00  0.00    +0.000 C 
ATOM     17  O   UNL     1      -1.167  -0.360   0.000  0.00  0.00    +0.000 OA
ENDBRANCH   4  16
BRANCH   5  18
ATOM     18  O   UNL     1       0.178  -1.793   0.000  0.00  0.00    +0.000 OA
BRANCH  18  19
ATOM     19  C   UNL     1      -0.643  -1.836   0.000  0.00  0.00    +0.000 C 
ATOM     20  O   UNL     1      -1.092  -1.144   0.000  0.00  0.00    +0.000 OA
BRANCH  19  21
ATOM     21  C   UNL     1      -1.018  -2.571   0.000  0.00  0.00    +0.000 C 
ATOM     22  N   UNL     1      -0.569  -3.263   0.000  0.00  0.00    +0.000 NA
BRANCH  21  23
ATOM     23  C   UNL     1      -1.842  -2.614   0.000  0.00  0.00    +0.000 C 
ATOM     24  C   UNL     1      -2.217  -3.348   0.000  0.00  0.00    +0.000 C 
ATOM     25  C   UNL     1      -2.291  -1.921   0.000  0.00  0.00    +0.000 C 
ENDBRANCH  21  23
ENDBRANCH  19  21
ENDBRANCH  18  19
ENDBRANCH   5  18
TORSDOF 6
