REMARK  Name = 
REMARK  6 active torsions:
REMARK  status: ('A' for Active; 'I' for Inactive)
REMARK    1  A    between atoms: N_1  and  C_2
REMARK    2  A    between atoms: N_1  and  C_3
REMARK    3  A    between atoms: C_2  and  C_4
REMARK    4  A    between atoms: C_5  and  C_9
REMARK    5  A    between atoms: C_12  and  C_14
REMARK    6  A    between atoms: N_15  and  C_17
REMARK                            x       y       z     vdW  Elec       q    Type
REMARK                         _______ _______ _______ _____ _____    ______ ____
ROOT
ATOM      1  C   UNL     1      -0.250   1.583   0.000  0.00  0.00    +0.000 A 
ATOM      2  C   UNL     1      -0.487   0.622   0.000  0.00  0.00    +0.000 A 
ATOM      3  S   UNL     1      -0.833   2.218   0.000  0.00  0.00    +0.000 S 
ATOM      4  C   UNL     1      -1.231   0.622   0.000  0.00  0.00    +0.000 A 
ATOM      5  C   UNL     1      -1.442   1.583   0.000  0.00  0.00    +0.000 A 
ENDROOT
BRANCH   1   7
ATOM      6  C   UNL     1       1.128   2.103   0.000  0.00  0.00    +0.000 C 
ATOM      7  C   UNL     1       0.385   2.103   0.000  0.00  0.00    +0.000 C 
ATOM      8  C   UNL     1       0.756   2.994   0.000  0.00  0.00    +0.000 C 
BRANCH   6   9
ATOM      9  N   UNL     1       1.769   1.583   0.000  0.00  0.00    +0.000 NA
BRANCH   9  10
ATOM     10  C   UNL     1       2.404   2.103   0.000  0.00  0.00    +0.000 C 
BRANCH  10  11
ATOM     11  C   UNL     1       3.045   1.583   0.000  0.00  0.00    +0.000 C 
ATOM     12  C   UNL     1       3.788   1.583   0.000  0.00  0.00    +0.000 C 
ATOM     13  C   UNL     1       3.417   0.692   0.000  0.00  0.00    +0.000 C 
ENDBRANCH  10  11
ENDBRANCH   9  10
ENDBRANCH   6   9
ENDBRANCH   1   7
BRANCH   4  14
ATOM     14  C   UNL     1      -1.872   0.102   0.000  0.00  0.00    +0.000 C 
ATOM     15  N   UNL     1      -1.872  -0.923   0.000  0.00  0.00    +0.000 NA
ATOM     16  O   UNL     1      -2.506   0.622   0.000  0.00  0.00    +0.000 OA
BRANCH  15  17
ATOM     17  C   UNL     1      -2.506  -1.442   0.000  0.00  0.00    +0.000 C 
ATOM     18  C   UNL     1      -2.506  -2.474   0.000  0.00  0.00    +0.000 C 
ATOM     19  C   UNL     1      -3.147  -0.923   0.000  0.00  0.00    +0.000 C 
ATOM     20  C   UNL     1      -3.147  -2.994   0.000  0.00  0.00    +0.000 C 
ATOM     21  C   UNL     1      -3.788  -1.442   0.000  0.00  0.00    +0.000 C 
ATOM     22  O   UNL     1      -3.788  -2.474   0.000  0.00  0.00    +0.000 OA
ENDBRANCH  15  17
ENDBRANCH   4  14
TORSDOF 6
