REMARK  Name = 
REMARK  10 active torsions:
REMARK  status: ('A' for Active; 'I' for Inactive)
REMARK    1  A    between atoms: O_2  and  C_3
REMARK    2  A    between atoms: C_5  and  O_14
REMARK    3  A    between atoms: C_9  and  N_10
REMARK    4  A    between atoms: O_14  and  C_15
REMARK    5  A    between atoms: C_19  and  O_24
REMARK    6  A    between atoms: C_21  and  O_22
REMARK    7  A    between atoms: O_24  and  C_25
REMARK    8  A    between atoms: C_36  and  O_37
REMARK    9  A    between atoms: C_58  and  C_59
REMARK   10  A    between atoms: C_66  and  O_67
REMARK                            x       y       z     vdW  Elec       q    Type
REMARK                         _______ _______ _______ _____ _____    ______ ____
ROOT
ATOM      1  C   UNL     1      -0.670   1.127   0.000  0.00  0.00    +0.000 C 
ATOM      2  C   UNL     1      -1.090   1.762   0.000  0.00  0.00    +0.000 C 
ATOM      3  C   UNL     1      -0.504   2.343   0.000  0.00  0.00    +0.000 C 
ATOM      4  C   UNL     1      -1.721   2.187   0.000  0.00  0.00    +0.000 C 
ATOM      5  C   UNL     1      -2.467   2.337   0.000  0.00  0.00    +0.000 C 
ATOM      6  C   UNL     1      -3.213   2.187   0.000  0.00  0.00    +0.000 C 
ATOM      7  C   UNL     1      -3.845   1.762   0.000  0.00  0.00    +0.000 C 
ATOM      8  C   UNL     1      -4.027   2.568   0.000  0.00  0.00    +0.000 C 
ATOM      9  O   UNL     1      -4.848   2.481   0.000  0.00  0.00    +0.000 OA
ATOM     10  C   UNL     1      -4.856   1.655   0.000  0.00  0.00    +0.000 C 
ATOM     11  C   UNL     1      -5.607   1.400   0.000  0.00  0.00    +0.000 C 
ATOM     12  C   UNL     1      -5.755   0.621   0.000  0.00  0.00    +0.000 C 
ATOM     13  C   UNL     1      -5.152   0.108   0.000  0.00  0.00    +0.000 C 
ATOM     14  C   UNL     1      -4.407   0.380   0.000  0.00  0.00    +0.000 C 
ATOM     15  C   UNL     1      -4.251  -0.365   0.000  0.00  0.00    +0.000 C 
ATOM     16  O   UNL     1      -5.010  -0.689   0.000  0.00  0.00    +0.000 OA
ATOM     17  O   UNL     1      -3.821  -0.993   0.000  0.00  0.00    +0.000 OA
ATOM     18  C   UNL     1      -3.182  -1.406   0.000  0.00  0.00    +0.000 C 
ATOM     19  C   UNL     1      -2.467  -0.994   0.000  0.00  0.00    +0.000 C 
ATOM     20  C   UNL     1      -1.753  -1.406   0.000  0.00  0.00    +0.000 C 
ATOM     21  C   UNL     1      -1.114  -0.993   0.000  0.00  0.00    +0.000 C 
ATOM     22  C   UNL     1      -0.683  -0.365   0.000  0.00  0.00    +0.000 C 
ATOM     23  C   UNL     1      -0.528   0.380   0.000  0.00  0.00    +0.000 C 
ATOM     24  C   UNL     1       0.297   0.372   0.000  0.00  0.00    +0.000 C 
ATOM     25  O   UNL     1      -1.753  -2.231   0.000  0.00  0.00    +0.000 OA
ATOM     26  C   UNL     1      -2.467  -2.644   0.000  0.00  0.00    +0.000 C 
ATOM     27  C   UNL     1      -3.182  -2.231   0.000  0.00  0.00    +0.000 C 
ATOM     28  O   UNL     1      -1.753  -3.056   0.000  0.00  0.00    +0.000 OA
ATOM     29  C   UNL     1      -1.753  -3.881   0.000  0.00  0.00    +0.000 C 
ATOM     30  C   UNL     1      -2.467  -4.294   0.000  0.00  0.00    +0.000 C 
ATOM     31  C   UNL     1      -2.467  -5.119   0.000  0.00  0.00    +0.000 C 
ATOM     32  C   UNL     1      -3.182  -3.881   0.000  0.00  0.00    +0.000 C 
ATOM     33  C   UNL     1      -3.182  -3.056   0.000  0.00  0.00    +0.000 C 
ATOM     34  C   UNL     1      -4.264   1.127   0.000  0.00  0.00    +0.000 C 
ATOM     35  C   UNL     1      -6.534   0.347   0.000  0.00  0.00    +0.000 C 
ENDROOT
BRANCH  29  36
ATOM     36  C   UNL     1      -1.038  -4.294   0.000  0.00  0.00    +0.000 C 
ATOM     37  C   UNL     1      -1.038  -5.119   0.000  0.00  0.00    +0.000 C 
ATOM     38  C   UNL     1      -0.324  -3.881   0.000  0.00  0.00    +0.000 C 
ENDBRANCH  29  36
BRANCH  11  39
ATOM     39  O   UNL     1      -6.229   1.941   0.000  0.00  0.00    +0.000 OA
ATOM     40  H   UNL     1      -6.713   1.775   0.000  0.00  0.00    +0.000 HD
ENDBRANCH  11  39
BRANCH  34  41
ATOM     41  O   UNL     1      -3.456   0.960   0.000  0.00  0.00    +0.000 OA
ATOM     42  H   UNL     1      -3.116   1.342   0.000  0.00  0.00    +0.000 HD
ENDBRANCH  34  41
BRANCH   1  43
ATOM     43  O   UNL     1       0.094   1.438   0.000  0.00  0.00    +0.000 OA
BRANCH  43  48
ATOM     44  C   UNL     1       1.613   3.392   0.000  0.00  0.00    +0.000 C 
ATOM     45  C   UNL     1       0.796   3.505   0.000  0.00  0.00    +0.000 C 
ATOM     46  C   UNL     1       0.486   4.269   0.000  0.00  0.00    +0.000 C 
ATOM     47  O   UNL     1       0.290   2.853   0.000  0.00  0.00    +0.000 OA
ATOM     48  C   UNL     1       0.600   2.089   0.000  0.00  0.00    +0.000 C 
ATOM     49  C   UNL     1       1.418   1.976   0.000  0.00  0.00    +0.000 C 
ATOM     50  C   UNL     1       1.924   2.627   0.000  0.00  0.00    +0.000 C 
BRANCH  50  51
ATOM     51  O   UNL     1       2.741   2.514   0.000  0.00  0.00    +0.000 OA
ATOM     52  C   UNL     1       3.052   1.750   0.000  0.00  0.00    +0.000 C 
ENDBRANCH  50  51
BRANCH  44  53
ATOM     53  O   UNL     1       2.120   4.043   0.000  0.00  0.00    +0.000 OA
BRANCH  53  56
ATOM     54  C   UNL     1       4.065   3.052   0.000  0.00  0.00    +0.000 C 
ATOM     55  C   UNL     1       3.248   3.165   0.000  0.00  0.00    +0.000 C 
ATOM     56  C   UNL     1       2.937   3.930   0.000  0.00  0.00    +0.000 C 
ATOM     57  O   UNL     1       3.444   4.581   0.000  0.00  0.00    +0.000 OA
ATOM     58  C   UNL     1       4.261   4.468   0.000  0.00  0.00    +0.000 C 
ATOM     59  C   UNL     1       4.768   5.119   0.000  0.00  0.00    +0.000 C 
ATOM     60  C   UNL     1       4.572   3.704   0.000  0.00  0.00    +0.000 C 
BRANCH  60  61
ATOM     61  N   UNL     1       5.389   3.590   0.000  0.00  0.00    +0.000 N 
ATOM     62  C   UNL     1       5.896   4.242   0.000  0.00  0.00    +0.000 C 
ATOM     63  C   UNL     1       6.713   4.128   0.000  0.00  0.00    +0.000 C 
ATOM     64  O   UNL     1       5.585   5.006   0.000  0.00  0.00    +0.000 OA
ATOM     65  H   UNL     1       5.582   3.116   0.000  0.00  0.00    +0.000 HD
ENDBRANCH  60  61
BRANCH  54  67
ATOM     66  C   UNL     1       5.193   2.175   0.000  0.00  0.00    +0.000 C 
ATOM     67  O   UNL     1       4.376   2.288   0.000  0.00  0.00    +0.000 OA
ENDBRANCH  54  67
ENDBRANCH  53  56
ENDBRANCH  44  53
ENDBRANCH  43  48
ENDBRANCH   1  43
TORSDOF 10
