REMARK  Name = 
REMARK  1 active torsions:
REMARK  status: ('A' for Active; 'I' for Inactive)
REMARK    1  A    between atoms: C_4  and  C_5
REMARK                            x       y       z     vdW  Elec       q    Type
REMARK                         _______ _______ _______ _____ _____    ______ ____
ROOT
ATOM      1  C   UNL     1      -0.412  -2.365   0.000  0.00  0.00    +0.000 A 
ATOM      2  C   UNL     1      -0.412  -3.189   0.000  0.00  0.00    +0.000 A 
ATOM      3  C   UNL     1      -1.127  -3.602   0.000  0.00  0.00    +0.000 A 
ATOM      4  C   UNL     1      -1.841  -3.189   0.000  0.00  0.00    +0.000 A 
ATOM      5  C   UNL     1      -1.841  -2.365   0.000  0.00  0.00    +0.000 A 
ATOM      6  C   UNL     1      -1.127  -1.952   0.000  0.00  0.00    +0.000 A 
ENDROOT
BRANCH   1  10
ATOM      7  N   UNL     1       0.715  -0.412   0.000  0.00  0.00    +0.000 NA
ATOM      8  C   UNL     1       0.715  -1.238   0.000  0.00  0.00    +0.000 C 
ATOM      9  C   UNL     1       1.127  -1.952   0.000  0.00  0.00    +0.000 C 
ATOM     10  C   UNL     1       0.302  -1.952   0.000  0.00  0.00    +0.000 C 
ENDBRANCH   1  10
TORSDOF 1
