REMARK  Name = 
REMARK  4 active torsions:
REMARK  status: ('A' for Active; 'I' for Inactive)
REMARK    1  A    between atoms: O_2  and  C_3
REMARK    2  A    between atoms: C_6  and  N_7
REMARK    3  A    between atoms: C_11  and  C_13
REMARK    4  A    between atoms: C_16  and  C_19
REMARK                            x       y       z     vdW  Elec       q    Type
REMARK                         _______ _______ _______ _____ _____    ______ ____
ROOT
ATOM      1  N   UNL     1       0.715  -0.412   0.000  0.00  0.00    +0.000 NA
ATOM      2  C   UNL     1       0.715  -1.238   0.000  0.00  0.00    +0.000 A 
ATOM      3  N   UNL     1       1.382  -1.722   0.000  0.00  0.00    +0.000 NA
ATOM      4  N   UNL     1       1.127  -2.507   0.000  0.00  0.00    +0.000 NA
ATOM      5  C   UNL     1       0.302  -2.507   0.000  0.00  0.00    +0.000 A 
ATOM      6  O   UNL     1       0.047  -1.722   0.000  0.00  0.00    +0.000 OA
ENDROOT
BRANCH   1  10
ATOM      7  C   UNL     1       2.858   0.825   0.000  0.00  0.00    +0.000 A 
ATOM      8  C   UNL     1       2.858   0.000   0.000  0.00  0.00    +0.000 A 
ATOM      9  C   UNL     1       2.143  -0.412   0.000  0.00  0.00    +0.000 A 
ATOM     10  C   UNL     1       1.429   0.000   0.000  0.00  0.00    +0.000 A 
ATOM     11  C   UNL     1       1.429   0.825   0.000  0.00  0.00    +0.000 A 
ATOM     12  C   UNL     1       2.143   1.238   0.000  0.00  0.00    +0.000 A 
BRANCH   7  14
ATOM     13  C   UNL     1       3.572   2.062   0.000  0.00  0.00    +0.000 C 
ATOM     14  O   UNL     1       3.572   1.238   0.000  0.00  0.00    +0.000 OA
ENDBRANCH   7  14
ENDBRANCH   1  10
BRANCH   5  15
ATOM     15  C   UNL     1      -0.183  -3.175   0.000  0.00  0.00    +0.000 A 
ATOM     16  C   UNL     1       0.153  -3.928   0.000  0.00  0.00    +0.000 A 
ATOM     17  C   UNL     1      -0.332  -4.596   0.000  0.00  0.00    +0.000 A 
ATOM     18  C   UNL     1      -1.153  -4.509   0.000  0.00  0.00    +0.000 A 
ATOM     19  C   UNL     1      -1.488  -3.756   0.000  0.00  0.00    +0.000 A 
ATOM     20  C   UNL     1      -1.003  -3.088   0.000  0.00  0.00    +0.000 A 
BRANCH  18  21
ATOM     21  C   UNL     1      -1.638  -5.177   0.000  0.00  0.00    +0.000 C 
ATOM     22  O   UNL     1      -1.302  -5.931   0.000  0.00  0.00    +0.000 OA
ATOM     23  N   UNL     1      -2.458  -5.091   0.000  0.00  0.00    +0.000 NA
ATOM     24  O   UNL     1      -2.943  -5.758   0.000  0.00  0.00    +0.000 OA
ENDBRANCH  18  21
ENDBRANCH   5  15
TORSDOF 4
