REMARK  Name = 
REMARK  8 active torsions:
REMARK  status: ('A' for Active; 'I' for Inactive)
REMARK    1  A    between atoms: S_2  and  C_20
REMARK    2  A    between atoms: S_2  and  C_21
REMARK    3  A    between atoms: N_5  and  C_10
REMARK    4  A    between atoms: N_7  and  C_19
REMARK    5  A    between atoms: C_10  and  C_11
REMARK    6  A    between atoms: C_10  and  C_13
REMARK    7  A    between atoms: C_11  and  C_12
REMARK    8  A    between atoms: C_16  and  C_20
REMARK                            x       y       z     vdW  Elec       q    Type
REMARK                         _______ _______ _______ _____ _____    ______ ____
ROOT
ATOM      1  C   UNL     1       0.357  -0.285   0.000  0.00  0.00    +0.000 C 
ENDROOT
BRANCH   1   3
ATOM      2  O   UNL     1      -1.072   0.540   0.000  0.00  0.00    +0.000 OA
ATOM      3  N   UNL     1       0.357   0.540   0.000  0.00  0.00    +0.000 NA
ATOM      4  C   UNL     1      -0.357   0.953   0.000  0.00  0.00    +0.000 C 
BRANCH   4   5
ATOM      5  C   UNL     1      -0.357   1.778   0.000  0.00  0.00    +0.000 C 
BRANCH   5   6
ATOM      6  S   UNL     1      -1.072   2.190   0.000  0.00  0.00    +0.000 S 
BRANCH   6   8
ATOM      7 CL   UNL     1      -1.072   5.490   0.000  0.00  0.00    +0.000 Cl
ATOM      8  C   UNL     1      -1.072   3.015   0.000  0.00  0.00    +0.000 A 
ATOM      9  C   UNL     1      -0.357   3.428   0.000  0.00  0.00    +0.000 A 
ATOM     10  C   UNL     1      -1.786   3.428   0.000  0.00  0.00    +0.000 A 
ATOM     11  C   UNL     1      -0.357   4.253   0.000  0.00  0.00    +0.000 A 
ATOM     12  C   UNL     1      -1.786   4.253   0.000  0.00  0.00    +0.000 A 
ATOM     13  C   UNL     1      -1.072   4.665   0.000  0.00  0.00    +0.000 A 
ENDBRANCH   6   8
ENDBRANCH   5   6
ENDBRANCH   4   5
ENDBRANCH   1   3
BRANCH   1  16
ATOM     14  O   UNL     1       1.072  -1.522   0.000  0.00  0.00    +0.000 OA
ATOM     15  N   UNL     1       1.786  -0.285   0.000  0.00  0.00    +0.000 NA
ATOM     16  C   UNL     1       1.072  -0.697   0.000  0.00  0.00    +0.000 C 
ENDBRANCH   1  16
BRANCH   1  17
ATOM     17  C   UNL     1      -0.357  -0.697   0.000  0.00  0.00    +0.000 C 
BRANCH  17  18
ATOM     18  C   UNL     1      -0.357  -1.522   0.000  0.00  0.00    +0.000 A 
ATOM     19  C   UNL     1       0.357  -1.935   0.000  0.00  0.00    +0.000 A 
ATOM     20  C   UNL     1      -1.072  -1.935   0.000  0.00  0.00    +0.000 A 
ATOM     21  C   UNL     1       0.357  -2.760   0.000  0.00  0.00    +0.000 A 
ATOM     22  C   UNL     1      -1.072  -2.760   0.000  0.00  0.00    +0.000 A 
ATOM     23  C   UNL     1      -0.357  -3.172   0.000  0.00  0.00    +0.000 A 
BRANCH  23  24
ATOM     24  N   UNL     1      -0.357  -3.997   0.000  0.00  0.00    +0.000 NA
ATOM     25  N   UNL     1      -1.072  -5.235   0.000  0.00  0.00    +0.000 NA
ATOM     26  N   UNL     1      -1.786  -3.997   0.000  0.00  0.00    +0.000 NA
ATOM     27  C   UNL     1      -1.072  -4.410   0.000  0.00  0.00    +0.000 C 
ENDBRANCH  23  24
ENDBRANCH  17  18
ENDBRANCH   1  17
TORSDOF 8
