REMARK  Name = 
REMARK  7 active torsions:
REMARK  status: ('A' for Active; 'I' for Inactive)
REMARK    1  A    between atoms: C_2  and  C_3
REMARK    2  A    between atoms: C_3  and  C_5
REMARK    3  A    between atoms: C_3  and  N_13
REMARK    4  A    between atoms: N_7  and  C_8
REMARK    5  A    between atoms: C_8  and  C_9
REMARK    6  A    between atoms: N_13  and  C_14
REMARK    7  A    between atoms: C_18  and  C_20
REMARK                            x       y       z     vdW  Elec       q    Type
REMARK                         _______ _______ _______ _____ _____    ______ ____
ROOT
ATOM      1  C   UNL     1      -1.460   1.710   0.000  0.00  0.00    +0.000 A 
ATOM      2  C   UNL     1      -0.908   2.323   0.000  0.00  0.00    +0.000 A 
ATOM      3  C   UNL     1      -0.101   2.152   0.000  0.00  0.00    +0.000 A 
ATOM      4  N   UNL     1       0.154   1.367   0.000  0.00  0.00    +0.000 NA
ATOM      5  C   UNL     1      -0.398   0.754   0.000  0.00  0.00    +0.000 A 
ATOM      6  N   UNL     1      -1.205   0.926   0.000  0.00  0.00    +0.000 NA
ENDROOT
BRANCH   5   7
ATOM      7  C   UNL     1      -0.143  -0.030   0.000  0.00  0.00    +0.000 A 
ATOM      8  C   UNL     1      -0.628  -0.698   0.000  0.00  0.00    +0.000 A 
ATOM      9  N   UNL     1      -0.143  -1.365   0.000  0.00  0.00    +0.000 NA
ATOM     10  C   UNL     1       0.641  -1.110   0.000  0.00  0.00    +0.000 A 
ATOM     11  C   UNL     1       0.641  -0.285   0.000  0.00  0.00    +0.000 A 
ATOM     12  C   UNL     1       1.356   0.127   0.000  0.00  0.00    +0.000 A 
ATOM     13  C   UNL     1       2.070  -0.285   0.000  0.00  0.00    +0.000 A 
ATOM     14  C   UNL     1       2.070  -1.110   0.000  0.00  0.00    +0.000 A 
ATOM     15  N   UNL     1       1.356  -1.523   0.000  0.00  0.00    +0.000 NA
ENDBRANCH   5   7
BRANCH   1  16
ATOM     16  N   UNL     1      -2.267   1.882   0.000  0.00  0.00    +0.000 NA
BRANCH  16  17
ATOM     17  C   UNL     1      -2.522   2.666   0.000  0.00  0.00    +0.000 C 
ATOM     18  C   UNL     1      -3.307   2.412   0.000  0.00  0.00    +0.000 C 
BRANCH  17  19
ATOM     19  C   UNL     1      -2.777   3.451   0.000  0.00  0.00    +0.000 C 
ATOM     20  O   UNL     1      -2.225   4.064   0.000  0.00  0.00    +0.000 OA
ATOM     21  N   UNL     1      -3.584   3.623   0.000  0.00  0.00    +0.000 NA
BRANCH  21  22
ATOM     22  C   UNL     1      -3.839   4.407   0.000  0.00  0.00    +0.000 C 
BRANCH  22  23
ATOM     23  C   UNL     1      -4.646   4.579   0.000  0.00  0.00    +0.000 C 
ATOM     24  F   UNL     1      -5.453   4.750   0.000  0.00  0.00    +0.000 F 
ATOM     25  F   UNL     1      -4.818   3.772   0.000  0.00  0.00    +0.000 F 
ATOM     26  F   UNL     1      -4.475   5.386   0.000  0.00  0.00    +0.000 F 
ENDBRANCH  22  23
ENDBRANCH  21  22
ENDBRANCH  17  19
BRANCH  17  28
ATOM     27  C   UNL     1      -1.566   3.728   0.000  0.00  0.00    +0.000 C 
ATOM     28  C   UNL     1      -1.738   2.921   0.000  0.00  0.00    +0.000 C 
ENDBRANCH  17  28
ENDBRANCH  16  17
ENDBRANCH   1  16
TORSDOF 7
