REMARK  Name = 
REMARK  3 active torsions:
REMARK  status: ('A' for Active; 'I' for Inactive)
REMARK    1  A    between atoms: C_5  and  C_29
REMARK    2  A    between atoms: N_10  and  C_11
REMARK    3  A    between atoms: C_14  and  N_17
REMARK                            x       y       z     vdW  Elec       q    Type
REMARK                         _______ _______ _______ _____ _____    ______ ____
ROOT
ATOM      1  C   UNL     1       0.635  -0.825   0.000  0.00  0.00    +0.000 A 
ATOM      2  C   UNL     1      -0.080  -0.412   0.000  0.00  0.00    +0.000 A 
ATOM      3  N   UNL     1       0.635  -1.650   0.000  0.00  0.00    +0.000 N 
ATOM      4  N   UNL     1      -0.794  -0.825   0.000  0.00  0.00    +0.000 NA
ATOM      5  C   UNL     1      -0.794  -1.650   0.000  0.00  0.00    +0.000 A 
ATOM      6  C   UNL     1      -0.080  -2.062   0.000  0.00  0.00    +0.000 A 
ATOM      7  N   UNL     1       1.419  -0.570   0.000  0.00  0.00    +0.000 NA
ATOM      8  C   UNL     1       1.904  -1.237   0.000  0.00  0.00    +0.000 A 
ATOM      9  C   UNL     1       1.419  -1.905   0.000  0.00  0.00    +0.000 A 
ATOM     10  N   UNL     1      -0.080   0.412   0.000  0.00  0.00    +0.000 NA
ENDROOT
BRANCH   5  17
ATOM     11  N   UNL     1      -3.722  -1.808   0.000  0.00  0.00    +0.000 NA
ATOM     12  N   UNL     1      -4.207  -2.475   0.000  0.00  0.00    +0.000 NA
ATOM     13  C   UNL     1      -3.722  -3.142   0.000  0.00  0.00    +0.000 A 
ATOM     14  C   UNL     1      -2.938  -2.888   0.000  0.00  0.00    +0.000 A 
ATOM     15  C   UNL     1      -2.223  -3.300   0.000  0.00  0.00    +0.000 A 
ATOM     16  C   UNL     1      -1.509  -2.888   0.000  0.00  0.00    +0.000 A 
ATOM     17  C   UNL     1      -1.509  -2.062   0.000  0.00  0.00    +0.000 A 
ATOM     18  C   UNL     1      -2.223  -1.650   0.000  0.00  0.00    +0.000 A 
ATOM     19  C   UNL     1      -2.938  -2.062   0.000  0.00  0.00    +0.000 A 
ENDBRANCH   5  17
BRANCH  10  20
ATOM     20  C   UNL     1       0.635   0.825   0.000  0.00  0.00    +0.000 A 
ATOM     21  C   UNL     1       0.635   1.650   0.000  0.00  0.00    +0.000 A 
ATOM     22  C   UNL     1       1.349   2.062   0.000  0.00  0.00    +0.000 A 
ATOM     23  C   UNL     1       2.064   1.650   0.000  0.00  0.00    +0.000 A 
ATOM     24  C   UNL     1       2.064   0.825   0.000  0.00  0.00    +0.000 A 
ATOM     25  C   UNL     1       1.349   0.412   0.000  0.00  0.00    +0.000 A 
BRANCH  23  26
ATOM     26  N   UNL     1       2.778   2.062   0.000  0.00  0.00    +0.000 N 
ATOM     27  C   UNL     1       2.778   2.888   0.000  0.00  0.00    +0.000 C 
ATOM     28  C   UNL     1       3.493   3.300   0.000  0.00  0.00    +0.000 C 
ATOM     29  O   UNL     1       4.207   2.888   0.000  0.00  0.00    +0.000 OA
ATOM     30  C   UNL     1       4.207   2.062   0.000  0.00  0.00    +0.000 C 
ATOM     31  C   UNL     1       3.493   1.650   0.000  0.00  0.00    +0.000 C 
ENDBRANCH  23  26
ENDBRANCH  10  20
TORSDOF 3
