REMARK  Name = 
REMARK  2 active torsions:
REMARK  status: ('A' for Active; 'I' for Inactive)
REMARK    1  A    between atoms: N_6  and  C1*_9
REMARK    2  A    between atoms: C4*_11  and  C5*_12
REMARK                            x       y       z     vdW  Elec       q    Type
REMARK                         _______ _______ _______ _____ _____    ______ ____
ROOT
ATOM      1  C1* UNL     1       0.715   3.466   0.000  0.00  0.00    +0.000 C 
ATOM      2  O4* UNL     1       1.382   2.981   0.000  0.00  0.00    +0.000 OA
ATOM      3  C4* UNL     1       1.127   2.196   0.000  0.00  0.00    +0.000 C 
ATOM      4  C3* UNL     1       0.302   2.196   0.000  0.00  0.00    +0.000 C 
ATOM      5  O3* UNL     1      -0.183   1.529   0.000  0.00  0.00    +0.000 OA
ATOM      6  C2* UNL     1       0.047   2.981   0.000  0.00  0.00    +0.000 C 
ATOM      7  O2* UNL     1      -0.738   3.236   0.000  0.00  0.00    +0.000 OA
ENDROOT
BRANCH   1  13
ATOM      8  N   UNL     1       0.715   6.766   0.000  0.00  0.00    +0.000 NA
ATOM      9  C   UNL     1       0.715   5.941   0.000  0.00  0.00    +0.000 C 
ATOM     10  N   UNL     1       1.429   5.529   0.000  0.00  0.00    +0.000 NA
ATOM     11  C   UNL     1       1.429   4.704   0.000  0.00  0.00    +0.000 C 
ATOM     12  O   UNL     1       2.143   4.291   0.000  0.00  0.00    +0.000 OA
ATOM     13  N   UNL     1       0.715   4.291   0.000  0.00  0.00    +0.000 N 
ATOM     14  C   UNL     1       0.000   4.704   0.000  0.00  0.00    +0.000 C 
ATOM     15  N   UNL     1       0.000   5.529   0.000  0.00  0.00    +0.000 NA
ENDBRANCH   1  13
BRANCH   3  16
ATOM     16  C5* UNL     1       1.612   1.529   0.000  0.00  0.00    +0.000 C 
ATOM     17  O5* UNL     1       2.432   1.615   0.000  0.00  0.00    +0.000 OA
ENDBRANCH   3  16
TORSDOF 2
