REMARK  Name = 
REMARK  11 active torsions:
REMARK  status: ('A' for Active; 'I' for Inactive)
REMARK    1  A    between atoms: C_4  and  C_7
REMARK    2  A    between atoms: C_7  and  C_28
REMARK    3  A    between atoms: C_8  and  C_9
REMARK    4  A    between atoms: C_8  and  C_15
REMARK    5  A    between atoms: C_18  and  O_21
REMARK    6  A    between atoms: O_21  and  C_22
REMARK    7  A    between atoms: C_22  and  C_23
REMARK    8  A    between atoms: C_23  and  O_24
REMARK    9  A    between atoms: O_24  and  C_25
REMARK   10  A    between atoms: C_25  and  C_26
REMARK   11  A    between atoms: C_28  and  C_29
REMARK                            x       y       z     vdW  Elec       q    Type
REMARK                         _______ _______ _______ _____ _____    ______ ____
ROOT
ATOM      1  C   UNL     1      -2.858   1.650   0.000  0.00  0.00    +0.000 C 
ATOM      2  C   UNL     1      -2.143   1.238   0.000  0.00  0.00    +0.000 C 
ENDROOT
BRANCH   1   6
ATOM      3  C   UNL     1      -2.858   4.125   0.000  0.00  0.00    +0.000 A 
ATOM      4  C   UNL     1      -2.143   3.712   0.000  0.00  0.00    +0.000 A 
ATOM      5  C   UNL     1      -2.143   2.888   0.000  0.00  0.00    +0.000 A 
ATOM      6  C   UNL     1      -2.858   2.475   0.000  0.00  0.00    +0.000 A 
ATOM      7  C   UNL     1      -3.572   2.888   0.000  0.00  0.00    +0.000 A 
ATOM      8  C   UNL     1      -3.572   3.712   0.000  0.00  0.00    +0.000 A 
ENDBRANCH   1   6
BRANCH   2   9
ATOM      9  C   UNL     1      -1.429   1.650   0.000  0.00  0.00    +0.000 A 
ATOM     10  C   UNL     1      -1.429   2.475   0.000  0.00  0.00    +0.000 A 
ATOM     11  C   UNL     1      -0.715   2.888   0.000  0.00  0.00    +0.000 A 
ATOM     12  C   UNL     1       0.000   2.475   0.000  0.00  0.00    +0.000 A 
ATOM     13  C   UNL     1       0.000   1.650   0.000  0.00  0.00    +0.000 A 
ATOM     14  C   UNL     1      -0.715   1.238   0.000  0.00  0.00    +0.000 A 
BRANCH  12  15
ATOM     15  O   UNL     1       0.715   2.888   0.000  0.00  0.00    +0.000 OA
BRANCH  15  16
ATOM     16  C   UNL     1       1.429   2.475   0.000  0.00  0.00    +0.000 C 
BRANCH  16  17
ATOM     17  C   UNL     1       2.143   2.888   0.000  0.00  0.00    +0.000 C 
BRANCH  17  18
ATOM     18  O   UNL     1       2.858   2.475   0.000  0.00  0.00    +0.000 OA
BRANCH  18  19
ATOM     19  C   UNL     1       3.572   2.888   0.000  0.00  0.00    +0.000 C 
BRANCH  19  20
ATOM     20  C   UNL     1       4.287   2.475   0.000  0.00  0.00    +0.000 C 
ATOM     21  O   UNL     1       5.001   2.888   0.000  0.00  0.00    +0.000 OA
ENDBRANCH  19  20
ENDBRANCH  18  19
ENDBRANCH  17  18
ENDBRANCH  16  17
ENDBRANCH  15  16
ENDBRANCH  12  15
ENDBRANCH   2   9
BRANCH   2  22
ATOM     22  C   UNL     1      -2.143   0.412   0.000  0.00  0.00    +0.000 A 
ATOM     23  C   UNL     1      -1.429   0.000   0.000  0.00  0.00    +0.000 A 
ATOM     24  C   UNL     1      -1.429  -0.825   0.000  0.00  0.00    +0.000 A 
ATOM     25  C   UNL     1      -2.143  -1.238   0.000  0.00  0.00    +0.000 A 
ATOM     26  C   UNL     1      -2.858  -0.825   0.000  0.00  0.00    +0.000 A 
ATOM     27  C   UNL     1      -2.858   0.000   0.000  0.00  0.00    +0.000 A 
ENDBRANCH   2  22
BRANCH   1  28
ATOM     28  C   UNL     1      -3.572   1.238   0.000  0.00  0.00    +0.000 C 
BRANCH  28  29
ATOM     29  C   UNL     1      -3.572   0.412   0.000  0.00  0.00    +0.000 C 
ATOM     30 CL   UNL     1      -4.287   0.000   0.000  0.00  0.00    +0.000 Cl
ENDBRANCH  28  29
ENDBRANCH   1  28
TORSDOF 11
