REMARK  Name = 
REMARK  4 active torsions:
REMARK  status: ('A' for Active; 'I' for Inactive)
REMARK    1  A    between atoms: C_10  and  C_11
REMARK    2  A    between atoms: C_15  and  O_16
REMARK    3  A    between atoms: O_16  and  C_17
REMARK    4  A    between atoms: C_22  and  C_23
REMARK                            x       y       z     vdW  Elec       q    Type
REMARK                         _______ _______ _______ _____ _____    ______ ____
ROOT
ATOM      1  C   UNL     1      -4.287  -2.475   0.000  0.00  0.00    +0.000 A 
ATOM      2  C   UNL     1      -4.287  -1.650   0.000  0.00  0.00    +0.000 A 
ATOM      3  C   UNL     1      -3.572  -1.238   0.000  0.00  0.00    +0.000 C 
ATOM      4  C   UNL     1      -5.001  -1.238   0.000  0.00  0.00    +0.000 A 
ATOM      5  C   UNL     1      -5.716  -1.650   0.000  0.00  0.00    +0.000 A 
ATOM      6  C   UNL     1      -5.716  -2.475   0.000  0.00  0.00    +0.000 A 
ATOM      7  C   UNL     1      -5.001  -2.888   0.000  0.00  0.00    +0.000 A 
ENDROOT
BRANCH   1  17
ATOM      8  C   UNL     1      -2.858  -1.650   0.000  0.00  0.00    +0.000 C 
ATOM      9  N   UNL     1      -2.858  -2.475   0.000  0.00  0.00    +0.000 N 
ATOM     10  C   UNL     1      -2.143  -2.888   0.000  0.00  0.00    +0.000 A 
ATOM     11  O   UNL     1      -1.429  -2.475   0.000  0.00  0.00    +0.000 OA
ATOM     12  N   UNL     1      -2.143  -3.712   0.000  0.00  0.00    +0.000 NA
ATOM     13  C   UNL     1      -2.858  -4.125   0.000  0.00  0.00    +0.000 A 
ATOM     14  O   UNL     1      -2.858  -4.950   0.000  0.00  0.00    +0.000 OA
ATOM     15  C   UNL     1      -3.572  -3.712   0.000  0.00  0.00    +0.000 A 
ATOM     16  C   UNL     1      -4.287  -4.125   0.000  0.00  0.00    +0.000 C 
ATOM     17  C   UNL     1      -3.572  -2.888   0.000  0.00  0.00    +0.000 A 
ENDBRANCH   1  17
BRANCH   5  18
ATOM     18  O   UNL     1      -6.430  -1.238   0.000  0.00  0.00    +0.000 OA
BRANCH  18  19
ATOM     19  C   UNL     1      -7.145  -1.650   0.000  0.00  0.00    +0.000 A 
ATOM     20  N   UNL     1      -7.145  -2.475   0.000  0.00  0.00    +0.000 NA
ATOM     21  C   UNL     1      -7.859  -2.888   0.000  0.00  0.00    +0.000 A 
ATOM     22  C   UNL     1      -8.574  -2.475   0.000  0.00  0.00    +0.000 A 
ATOM     23  C   UNL     1      -8.574  -1.650   0.000  0.00  0.00    +0.000 A 
ATOM     24  C   UNL     1      -7.859  -1.238   0.000  0.00  0.00    +0.000 A 
BRANCH  24  25
ATOM     25  C   UNL     1      -7.859  -0.412   0.000  0.00  0.00    +0.000 C 
ATOM     26  F   UNL     1      -7.859   0.412   0.000  0.00  0.00    +0.000 F 
ATOM     27  F   UNL     1      -7.034  -0.412   0.000  0.00  0.00    +0.000 F 
ATOM     28  F   UNL     1      -8.684  -0.412   0.000  0.00  0.00    +0.000 F 
ENDBRANCH  24  25
ENDBRANCH  18  19
ENDBRANCH   5  18
TORSDOF 4
