REMARK  Name = 
REMARK  3 active torsions:
REMARK  status: ('A' for Active; 'I' for Inactive)
REMARK    1  A    between atoms: C_4  and  C_16
REMARK    2  A    between atoms: C_10  and  C_13
REMARK    3  A    between atoms: C_16  and  C_22
REMARK                            x       y       z     vdW  Elec       q    Type
REMARK                         _______ _______ _______ _____ _____    ______ ____
ROOT
ATOM      1  C   UNL     1       0.356  -1.808   0.000  0.00  0.00    +0.000 C 
ATOM      2  C   UNL     1       1.073  -1.396   0.000  0.00  0.00    +0.000 C 
ATOM      3  C   UNL     1       1.070  -0.569   0.000  0.00  0.00    +0.000 C 
ATOM      4  C   UNL     1       0.352  -0.156   0.000  0.00  0.00    +0.000 C 
ATOM      5  C   UNL     1      -0.361  -1.395   0.000  0.00  0.00    +0.000 C 
ATOM      6  C   UNL     1      -0.361  -0.570   0.000  0.00  0.00    +0.000 C 
ATOM      7  C   UNL     1      -1.071  -0.167   0.000  0.00  0.00    +0.000 C 
ATOM      8  C   UNL     1      -1.786  -0.579   0.000  0.00  0.00    +0.000 C 
ATOM      9  C   UNL     1      -1.780  -1.403   0.000  0.00  0.00    +0.000 C 
ATOM     10  C   UNL     1      -1.063  -1.809   0.000  0.00  0.00    +0.000 C 
ATOM     11  O   UNL     1      -2.495  -1.822   0.000  0.00  0.00    +0.000 OA
ATOM     12  C   UNL     1      -1.701  -2.318   0.000  0.00  0.00    +0.000 C 
ATOM     13  C   UNL     1      -0.368   0.251   0.000  0.00  0.00    +0.000 C 
ATOM     14  C   UNL     1       1.791  -0.156   0.000  0.00  0.00    +0.000 C 
ENDROOT
BRANCH  10  15
ATOM     15  C   UNL     1      -0.548  -2.442   0.000  0.00  0.00    +0.000 C 
ATOM     16  O   UNL     1      -0.843  -3.215   0.000  0.00  0.00    +0.000 OA
ENDBRANCH  10  15
BRANCH   4  17
ATOM     17  C   UNL     1       0.357   0.671   0.000  0.00  0.00    +0.000 C 
BRANCH  17  23
ATOM     18  C   UNL     1       1.691   2.457   0.000  0.00  0.00    +0.000 C 
ATOM     19  O   UNL     1       1.365   3.215   0.000  0.00  0.00    +0.000 OA
ATOM     20  C   UNL     1       0.541   3.143   0.000  0.00  0.00    +0.000 C 
ATOM     21  C   UNL     1       0.355   2.337   0.000  0.00  0.00    +0.000 C 
ATOM     22  C   UNL     1       1.072   1.912   0.000  0.00  0.00    +0.000 C 
ATOM     23  C   UNL     1       1.070   1.085   0.000  0.00  0.00    +0.000 C 
ATOM     24  O   UNL     1      -0.406   2.012   0.000  0.00  0.00    +0.000 OA
ATOM     25  O   UNL     1       2.495   2.270   0.000  0.00  0.00    +0.000 OA
ENDBRANCH  17  23
ENDBRANCH   4  17
TORSDOF 3
