REMARK  Name = 
REMARK  15 active torsions:
REMARK  status: ('A' for Active; 'I' for Inactive)
REMARK    1  A    between atoms: C_1  and  O_17
REMARK    2  A    between atoms: C_2  and  O_12
REMARK    3  A    between atoms: C_5  and  O_26
REMARK    4  A    between atoms: C_8  and  O_40
REMARK    5  A    between atoms: O_12  and  C_13
REMARK    6  A    between atoms: O_17  and  C_24
REMARK    7  A    between atoms: C_23  and  C_24
REMARK    8  A    between atoms: C_35  and  O_36
REMARK    9  A    between atoms: O_40  and  C_49
REMARK   10  A    between atoms: C_45  and  C_48
REMARK   11  A    between atoms: C_47  and  C_48
REMARK   12  A    between atoms: C_47  and  C_49
REMARK   13  A    between atoms: C_48  and  N_52
REMARK   14  A    between atoms: C_53  and  O_54
REMARK   15  A    between atoms: O_54  and  C_55
REMARK                            x       y       z     vdW  Elec       q    Type
REMARK                         _______ _______ _______ _____ _____    ______ ____
ROOT
ATOM      1  C   UNL     1       2.116  -0.373   0.000  0.00  0.00    +0.000 C 
ATOM      2  C   UNL     1       3.789   0.017   0.000  0.00  0.00    +0.000 C 
ATOM      3  C   UNL     1       4.421   1.123   0.000  0.00  0.00    +0.000 C 
ATOM      4  C   UNL     1       2.516   2.053   0.000  0.00  0.00    +0.000 C 
ATOM      5  C   UNL     1       1.484   2.053   0.000  0.00  0.00    +0.000 C 
ATOM      6  C   UNL     1       0.907   1.458   0.000  0.00  0.00    +0.000 C 
ATOM      7  C   UNL     1       0.173   1.458   0.000  0.00  0.00    +0.000 C 
ATOM      8  C   UNL     1      -0.199   0.817   0.000  0.00  0.00    +0.000 C 
ATOM      9  C   UNL     1       0.173   0.175   0.000  0.00  0.00    +0.000 C 
ATOM     10  C   UNL     1      -0.199   2.090   0.000  0.00  0.00    +0.000 C 
ATOM     11  C   UNL     1       4.449  -0.466   0.000  0.00  0.00    +0.000 C 
ATOM     12  O   UNL     1       2.725   2.787   0.000  0.00  0.00    +0.000 OA
ATOM     13  C   UNL     1       3.148   0.380   0.000  0.00  0.00    +0.000 C 
ATOM     14  C   UNL     1       3.148   1.123   0.000  0.00  0.00    +0.000 C 
ATOM     15  C   UNL     1       3.148   1.948   0.000  0.00  0.00    +0.000 C 
ATOM     16  C   UNL     1       0.907   0.175   0.000  0.00  0.00    +0.000 C 
ATOM     17  O   UNL     1       0.907  -0.650   0.000  0.00  0.00    +0.000 OA
ATOM     18  C   UNL     1       1.984   1.229   0.000  0.00  0.00    +0.000 C 
ATOM     19  C   UNL     1       1.984   0.404   0.000  0.00  0.00    +0.000 C 
ATOM     20  C   UNL     1       3.789   1.486   0.000  0.00  0.00    +0.000 C 
ATOM     21  C   UNL     1       4.421   0.380   0.000  0.00  0.00    +0.000 C 
ATOM     22  O   UNL     1       5.136  -0.033   0.000  0.00  0.00    +0.000 OA
ATOM     23  C   UNL     1       1.270   0.817   0.000  0.00  0.00    +0.000 C 
ENDROOT
BRANCH   5  24
ATOM     24  O   UNL     1       1.085   2.917   0.000  0.00  0.00    +0.000 OA
ATOM     25  C   UNL     1       1.561   3.591   0.000  0.00  0.00    +0.000 C 
ENDBRANCH   5  24
BRANCH  20  26
ATOM     26  O   UNL     1       3.789   2.311   0.000  0.00  0.00    +0.000 OA
ATOM     27  C   UNL     1       4.503   2.723   0.000  0.00  0.00    +0.000 C 
ENDBRANCH  20  26
BRANCH   8  28
ATOM     28  O   UNL     1      -0.846   0.444   0.000  0.00  0.00    +0.000 OA
BRANCH  28  29
ATOM     29  C   UNL     1      -1.561   0.857   0.000  0.00  0.00    +0.000 C 
ATOM     30  O   UNL     1      -1.561   1.682   0.000  0.00  0.00    +0.000 OA
BRANCH  29  31
ATOM     31  C   UNL     1      -2.275   0.444   0.000  0.00  0.00    +0.000 C 
ATOM     32  O   UNL     1      -2.275  -0.381   0.000  0.00  0.00    +0.000 OA
BRANCH  31  33
ATOM     33  C   UNL     1      -2.990   0.840   0.000  0.00  0.00    +0.000 C 
BRANCH  33  38
ATOM     34  C   UNL     1      -4.435   0.840   0.000  0.00  0.00    +0.000 A 
ATOM     35  C   UNL     1      -5.149   0.428   0.000  0.00  0.00    +0.000 A 
ATOM     36  C   UNL     1      -5.149  -0.397   0.000  0.00  0.00    +0.000 A 
ATOM     37  C   UNL     1      -4.435  -0.810   0.000  0.00  0.00    +0.000 A 
ATOM     38  C   UNL     1      -3.704   0.428   0.000  0.00  0.00    +0.000 A 
ATOM     39  C   UNL     1      -3.704  -0.397   0.000  0.00  0.00    +0.000 A 
ENDBRANCH  33  38
BRANCH  33  40
ATOM     40  N   UNL     1      -2.990   1.665   0.000  0.00  0.00    +0.000 NA
ATOM     41  C   UNL     1      -3.704   2.078   0.000  0.00  0.00    +0.000 C 
ATOM     42  O   UNL     1      -4.418   1.665   0.000  0.00  0.00    +0.000 OA
BRANCH  41  43
ATOM     43  O   UNL     1      -3.704   2.903   0.000  0.00  0.00    +0.000 OA
BRANCH  43  44
ATOM     44  C   UNL     1      -4.418   3.315   0.000  0.00  0.00    +0.000 C 
ATOM     45  C   UNL     1      -4.418   4.140   0.000  0.00  0.00    +0.000 C 
ATOM     46  C   UNL     1      -5.133   2.903   0.000  0.00  0.00    +0.000 C 
ATOM     47  C   UNL     1      -5.133   3.728   0.000  0.00  0.00    +0.000 C 
ENDBRANCH  43  44
ENDBRANCH  41  43
ENDBRANCH  33  40
ENDBRANCH  31  33
ENDBRANCH  29  31
ENDBRANCH  28  29
ENDBRANCH   8  28
BRANCH   1  48
ATOM     48  O   UNL     1       2.071  -1.253   0.000  0.00  0.00    +0.000 OA
BRANCH  48  49
ATOM     49  C   UNL     1       1.356  -1.665   0.000  0.00  0.00    +0.000 C 
ATOM     50  O   UNL     1       0.642  -1.253   0.000  0.00  0.00    +0.000 OA
BRANCH  49  56
ATOM     51  C   UNL     1       0.642  -2.903   0.000  0.00  0.00    +0.000 A 
ATOM     52  C   UNL     1       0.642  -3.728   0.000  0.00  0.00    +0.000 A 
ATOM     53  C   UNL     1       1.356  -4.140   0.000  0.00  0.00    +0.000 A 
ATOM     54  C   UNL     1       2.071  -3.728   0.000  0.00  0.00    +0.000 A 
ATOM     55  C   UNL     1       2.071  -2.903   0.000  0.00  0.00    +0.000 A 
ATOM     56  C   UNL     1       1.356  -2.490   0.000  0.00  0.00    +0.000 A 
ENDBRANCH  49  56
ENDBRANCH  48  49
ENDBRANCH   1  48
BRANCH   2  57
ATOM     57  O   UNL     1       3.784  -0.744   0.000  0.00  0.00    +0.000 OA
BRANCH  57  58
ATOM     58  C   UNL     1       4.414  -1.123   0.000  0.00  0.00    +0.000 C 
ATOM     59  C   UNL     1       5.149  -0.719   0.000  0.00  0.00    +0.000 C 
ATOM     60  O   UNL     1       4.414  -1.835   0.000  0.00  0.00    +0.000 OA
ENDBRANCH  57  58
ENDBRANCH   2  57
TORSDOF 15
