REMARK  Name = 
REMARK  10 active torsions:
REMARK  status: ('A' for Active; 'I' for Inactive)
REMARK    1  A    between atoms: N_4  and  C_5
REMARK    2  A    between atoms: C_9  and  N_11
REMARK    3  A    between atoms: N_14  and  C_17
REMARK    4  A    between atoms: C_17  and  C_18
REMARK    5  A    between atoms: C_18  and  C_19
REMARK    6  A    between atoms: C_19  and  C_20
REMARK    7  A    between atoms: C_20  and  N_21
REMARK    8  A    between atoms: N_21  and  S_22
REMARK    9  A    between atoms: S_22  and  C_25
REMARK   10  A    between atoms: C_25  and  C_26
REMARK                            x       y       z     vdW  Elec       q    Type
REMARK                         _______ _______ _______ _____ _____    ______ ____
ROOT
ATOM      1  N   UNL     1       2.143  -9.488   0.000  0.00  0.00    +0.000 N 
ATOM      2  C   UNL     1       2.143 -10.312   0.000  0.00  0.00    +0.000 C 
ATOM      3  C   UNL     1       1.429 -10.725   0.000  0.00  0.00    +0.000 C 
ATOM      4  N   UNL     1       0.715 -10.312   0.000  0.00  0.00    +0.000 NA
ATOM      5  C   UNL     1       0.715  -9.488   0.000  0.00  0.00    +0.000 C 
ATOM      6  C   UNL     1       1.429  -9.075   0.000  0.00  0.00    +0.000 C 
ENDROOT
BRANCH   1  11
ATOM      7  C   UNL     1       3.572  -7.838   0.000  0.00  0.00    +0.000 A 
ATOM      8  C   UNL     1       4.287  -8.250   0.000  0.00  0.00    +0.000 A 
ATOM      9  C   UNL     1       4.287  -9.075   0.000  0.00  0.00    +0.000 A 
ATOM     10  C   UNL     1       3.572  -9.488   0.000  0.00  0.00    +0.000 A 
ATOM     11  C   UNL     1       2.858  -9.075   0.000  0.00  0.00    +0.000 A 
ATOM     12  C   UNL     1       2.858  -8.250   0.000  0.00  0.00    +0.000 A 
BRANCH   7  16
ATOM     13  C   UNL     1       4.287  -5.775   0.000  0.00  0.00    +0.000 C 
ATOM     14  C   UNL     1       4.287  -6.600   0.000  0.00  0.00    +0.000 C 
ATOM     15  O   UNL     1       5.001  -7.013   0.000  0.00  0.00    +0.000 OA
ATOM     16  N   UNL     1       3.572  -7.013   0.000  0.00  0.00    +0.000 NA
ENDBRANCH   7  16
ENDBRANCH   1  11
BRANCH   4  17
ATOM     17  C   UNL     1       0.000 -10.725   0.000  0.00  0.00    +0.000 C 
BRANCH  17  18
ATOM     18  C   UNL     1       0.000 -11.550   0.000  0.00  0.00    +0.000 C 
BRANCH  18  19
ATOM     19  C   UNL     1      -0.715 -11.963   0.000  0.00  0.00    +0.000 C 
BRANCH  19  20
ATOM     20  C   UNL     1      -0.715 -12.787   0.000  0.00  0.00    +0.000 C 
BRANCH  20  21
ATOM     21  N   UNL     1      -1.429 -13.200   0.000  0.00  0.00    +0.000 NA
BRANCH  21  22
ATOM     22  S   UNL     1      -1.429 -14.025   0.000  0.00  0.00    +0.000 S 
ATOM     23  O   UNL     1      -2.254 -14.025   0.000  0.00  0.00    +0.000 OA
ATOM     24  O   UNL     1      -0.604 -14.025   0.000  0.00  0.00    +0.000 OA
BRANCH  22  25
ATOM     25  C   UNL     1      -1.429 -14.850   0.000  0.00  0.00    +0.000 C 
BRANCH  25  26
ATOM     26  C   UNL     1      -2.143 -15.262   0.000  0.00  0.00    +0.000 C 
ATOM     27  C   UNL     1      -2.143 -16.087   0.000  0.00  0.00    +0.000 C 
ATOM     28  C   UNL     1      -2.858 -16.500   0.000  0.00  0.00    +0.000 C 
ATOM     29  C   UNL     1      -3.572 -16.087   0.000  0.00  0.00    +0.000 C 
ATOM     30  C   UNL     1      -3.572 -15.262   0.000  0.00  0.00    +0.000 C 
ATOM     31  C   UNL     1      -2.858 -14.850   0.000  0.00  0.00    +0.000 C 
ENDBRANCH  25  26
ENDBRANCH  22  25
ENDBRANCH  21  22
ENDBRANCH  20  21
ENDBRANCH  19  20
ENDBRANCH  18  19
ENDBRANCH  17  18
ENDBRANCH   4  17
TORSDOF 10
