REMARK  Name = 
REMARK  6 active torsions:
REMARK  status: ('A' for Active; 'I' for Inactive)
REMARK    1  A    between atoms: O_2  and  C_3
REMARK    2  A    between atoms: C_10  and  C_11
REMARK    3  A    between atoms: C_11  and  C_13
REMARK    4  A    between atoms: C_15  and  O_16
REMARK    5  A    between atoms: C_18  and  O_19
REMARK    6  A    between atoms: C_21  and  O_22
REMARK                            x       y       z     vdW  Elec       q    Type
REMARK                         _______ _______ _______ _____ _____    ______ ____
ROOT
ATOM      1  C   UNL     1       0.884   0.071   0.000  0.00  0.00    +0.000 C 
ATOM      2  O   UNL     1       1.436  -0.542   0.000  0.00  0.00    +0.000 OA
ENDROOT
BRANCH   1  10
ATOM      3  C   UNL     1       3.352   1.935   0.000  0.00  0.00    +0.000 A 
ATOM      4  C   UNL     1       3.352   1.110   0.000  0.00  0.00    +0.000 A 
ATOM      5  C   UNL     1       2.638   0.698   0.000  0.00  0.00    +0.000 A 
ATOM      6  C   UNL     1       1.923   1.110   0.000  0.00  0.00    +0.000 A 
ATOM      7  C   UNL     1       1.923   1.935   0.000  0.00  0.00    +0.000 A 
ATOM      8  N   UNL     1       1.139   2.190   0.000  0.00  0.00    +0.000 NA
ATOM      9  C   UNL     1       0.654   1.523   0.000  0.00  0.00    +0.000 A 
ATOM     10  C   UNL     1       1.139   0.856   0.000  0.00  0.00    +0.000 A 
ATOM     11  C   UNL     1       2.638   2.348   0.000  0.00  0.00    +0.000 A 
BRANCH   3  13
ATOM     12  C   UNL     1       4.067   3.173   0.000  0.00  0.00    +0.000 C 
ATOM     13  O   UNL     1       4.067   2.348   0.000  0.00  0.00    +0.000 OA
ENDBRANCH   3  13
ENDBRANCH   1  10
BRANCH   1  14
ATOM     14  C   UNL     1       0.077  -0.101   0.000  0.00  0.00    +0.000 A 
ATOM     15  C   UNL     1      -0.178  -0.885   0.000  0.00  0.00    +0.000 A 
ATOM     16  C   UNL     1      -0.985  -1.057   0.000  0.00  0.00    +0.000 A 
ATOM     17  C   UNL     1      -1.537  -0.444   0.000  0.00  0.00    +0.000 A 
ATOM     18  C   UNL     1      -1.282   0.341   0.000  0.00  0.00    +0.000 A 
ATOM     19  C   UNL     1      -0.475   0.512   0.000  0.00  0.00    +0.000 A 
BRANCH  16  20
ATOM     20  O   UNL     1      -1.240  -1.841   0.000  0.00  0.00    +0.000 OA
ATOM     21  C   UNL     1      -2.047  -2.013   0.000  0.00  0.00    +0.000 C 
ENDBRANCH  16  20
BRANCH  17  22
ATOM     22  O   UNL     1      -2.344  -0.615   0.000  0.00  0.00    +0.000 OA
ATOM     23  C   UNL     1      -2.599  -1.400   0.000  0.00  0.00    +0.000 C 
ENDBRANCH  17  22
BRANCH  18  24
ATOM     24  O   UNL     1      -1.834   0.954   0.000  0.00  0.00    +0.000 OA
ATOM     25  C   UNL     1      -1.579   1.739   0.000  0.00  0.00    +0.000 C 
ENDBRANCH  18  24
ENDBRANCH   1  14
TORSDOF 6
