REMARK  Name = 
REMARK  0 active torsions:
REMARK  status: ('A' for Active; 'I' for Inactive)
REMARK                            x       y       z     vdW  Elec       q    Type
REMARK                         _______ _______ _______ _____ _____    ______ ____
ROOT
ATOM      1  C   UNL     1      -2.142   2.110   0.000  0.00  0.00    +0.000 A 
ATOM      2  C   UNL     1      -1.427   2.522   0.000  0.00  0.00    +0.000 A 
ATOM      3  C   UNL     1      -0.716   2.110   0.000  0.00  0.00    +0.000 A 
ATOM      4  C   UNL     1      -0.716   1.285   0.000  0.00  0.00    +0.000 A 
ATOM      5  C   UNL     1      -1.426   0.873   0.000  0.00  0.00    +0.000 A 
ATOM      6  C   UNL     1      -2.142   1.281   0.000  0.00  0.00    +0.000 A 
ATOM      7  O   UNL     1      -0.001   0.873   0.000  0.00  0.00    +0.000 OA
ATOM      8  C   UNL     1       0.713   1.285   0.000  0.00  0.00    +0.000 C 
ATOM      9  C   UNL     1       1.428   0.873   0.000  0.00  0.00    +0.000 C 
ATOM     10  N   UNL     1       1.428   0.048   0.000  0.00  0.00    +0.000 NA
ATOM     11  C   UNL     1       2.142  -0.365   0.000  0.00  0.00    +0.000 C 
ATOM     12  C   UNL     1       2.142  -1.190   0.000  0.00  0.00    +0.000 A 
ATOM     13  C   UNL     1       2.554  -1.904   0.000  0.00  0.00    +0.000 A 
ATOM     14  N   UNL     1       1.960  -2.499   0.000  0.00  0.00    +0.000 NA
ATOM     15  N   UNL     1       1.249  -2.192   0.000  0.00  0.00    +0.000 N 
ATOM     16  C   UNL     1       1.341  -1.368   0.000  0.00  0.00    +0.000 A 
ATOM     17  C   UNL     1       0.491  -2.522   0.000  0.00  0.00    +0.000 A 
ATOM     18  C   UNL     1      -0.176  -2.031   0.000  0.00  0.00    +0.000 A 
ATOM     19  C   UNL     1      -0.086  -1.211   0.000  0.00  0.00    +0.000 A 
ATOM     20  N   UNL     1       0.671  -0.874   0.000  0.00  0.00    +0.000 NA
ATOM     21  C   UNL     1      -1.212   0.076   0.000  0.00  0.00    +0.000 C 
ATOM     22  N   UNL     1      -0.415  -0.137   0.000  0.00  0.00    +0.000 NA
ATOM     23  O   UNL     1       2.857   0.048   0.000  0.00  0.00    +0.000 OA
ATOM     24  C   UNL     1       0.713   2.110   0.000  0.00  0.00    +0.000 C 
ATOM     25  C   UNL     1      -1.795  -0.507   0.000  0.00  0.00    +0.000 C 
ATOM     26  F   UNL     1      -2.857   2.522   0.000  0.00  0.00    +0.000 F 
ENDROOT
TORSDOF 0
