REMARK  Name = 
REMARK  5 active torsions:
REMARK  status: ('A' for Active; 'I' for Inactive)
REMARK    1  A    between atoms: C_2  and  C_3
REMARK    2  A    between atoms: C_2  and  O_6
REMARK    3  A    between atoms: C_3  and  C_13
REMARK    4  A    between atoms: C_3  and  C_14
REMARK    5  A    between atoms: O_6  and  C_7
REMARK                            x       y       z     vdW  Elec       q    Type
REMARK                         _______ _______ _______ _____ _____    ______ ____
ROOT
ATOM      1  C   UNL     1       0.293  -1.269   0.000  0.00  0.00    +0.000 C 
ATOM      2  O   UNL     1       0.298  -2.093   0.000  0.00  0.00    +0.000 OA
ENDROOT
BRANCH   1   3
ATOM      3  C   UNL     1       1.000  -0.848   0.000  0.00  0.00    +0.000 C 
ATOM      4  O   UNL     1       0.584  -0.131   0.000  0.00  0.00    +0.000 OA
BRANCH   3   5
ATOM      5  C   UNL     1       1.717  -1.255   0.000  0.00  0.00    +0.000 A 
ATOM      6  C   UNL     1       1.722  -2.078   0.000  0.00  0.00    +0.000 A 
ATOM      7  C   UNL     1       2.420  -0.833   0.000  0.00  0.00    +0.000 A 
ATOM      8  C   UNL     1       2.439  -2.480   0.000  0.00  0.00    +0.000 A 
ATOM      9  C   UNL     1       3.137  -1.235   0.000  0.00  0.00    +0.000 A 
ATOM     10  C   UNL     1       3.146  -2.064   0.000  0.00  0.00    +0.000 A 
ENDBRANCH   3   5
BRANCH   3  11
ATOM     11  C   UNL     1       1.407  -0.131   0.000  0.00  0.00    +0.000 A 
ATOM     12  C   UNL     1       2.236  -0.121   0.000  0.00  0.00    +0.000 A 
ATOM     13  C   UNL     1       0.981   0.576   0.000  0.00  0.00    +0.000 A 
ATOM     14  C   UNL     1       1.383   1.298   0.000  0.00  0.00    +0.000 A 
ATOM     15  C   UNL     1       2.638   0.601   0.000  0.00  0.00    +0.000 A 
ATOM     16  C   UNL     1       2.216   1.313   0.000  0.00  0.00    +0.000 A 
ENDBRANCH   3  11
ENDBRANCH   1   3
BRANCH   1  17
ATOM     17  O   UNL     1      -0.424  -0.862   0.000  0.00  0.00    +0.000 OA
BRANCH  17  21
ATOM     18  N   UNL     1      -2.066   1.211   0.000  0.00  0.00    +0.000 N 
ATOM     19  C   UNL     1      -1.504   0.765   0.000  0.00  0.00    +0.000 C 
ATOM     20  C   UNL     1      -1.926   0.387   0.000  0.00  0.00    +0.000 C 
ATOM     21  C   UNL     1      -0.419  -0.044   0.000  0.00  0.00    +0.000 C 
ATOM     22  C   UNL     1      -0.942   0.387   0.000  0.00  0.00    +0.000 C 
ATOM     23  C   UNL     1      -0.564   0.785   0.000  0.00  0.00    +0.000 C 
ATOM     24  C   UNL     1      -2.454  -0.329   0.000  0.00  0.00    +0.000 C 
ATOM     25  C   UNL     1      -1.824   0.049   0.000  0.00  0.00    +0.000 C 
ATOM     26  C   UNL     1      -1.814   1.996   0.000  0.00  0.00    +0.000 C 
ATOM     27  C   UNL     1      -2.889   1.211   0.000  0.00  0.00    +0.000 C 
ATOM     28  C   UNL     1      -3.146   1.996   0.000  0.00  0.00    +0.000 C 
ATOM     29  C   UNL     1      -2.478   2.480   0.000  0.00  0.00    +0.000 C 
ENDBRANCH  17  21
ENDBRANCH   1  17
TORSDOF 5
