REMARK  Name = 
REMARK  2 active torsions:
REMARK  status: ('A' for Active; 'I' for Inactive)
REMARK    1  A    between atoms: N_2  and  C_3
REMARK    2  A    between atoms: C_3  and  C_22
REMARK                            x       y       z     vdW  Elec       q    Type
REMARK                         _______ _______ _______ _____ _____    ______ ____
ROOT
ATOM      1  C   UNL     1       4.649   0.985   0.000  0.00  0.00    +0.000 C 
ATOM      2  C   UNL     1       4.848   0.185   0.000  0.00  0.00    +0.000 C 
ATOM      3  C   UNL     1       4.254  -0.388   0.000  0.00  0.00    +0.000 C 
ATOM      4  C   UNL     1       3.461  -0.160   0.000  0.00  0.00    +0.000 C 
ATOM      5  O   UNL     1       3.660  -0.961   0.000  0.00  0.00    +0.000 OA
ATOM      6  C   UNL     1       3.067  -1.534   0.000  0.00  0.00    +0.000 C 
ATOM      7  C   UNL     1       2.274  -1.306   0.000  0.00  0.00    +0.000 C 
ATOM      8  C   UNL     1       2.075  -0.506   0.000  0.00  0.00    +0.000 A 
ATOM      9  C   UNL     1       2.668   0.067   0.000  0.00  0.00    +0.000 A 
ATOM     10  N   UNL     1       2.307   0.809   0.000  0.00  0.00    +0.000 NA
ATOM     11  C   UNL     1       1.490   0.694   0.000  0.00  0.00    +0.000 A 
ATOM     12  C   UNL     1       1.346  -0.118   0.000  0.00  0.00    +0.000 A 
ATOM     13  C   UNL     1       0.571  -0.400   0.000  0.00  0.00    +0.000 A 
ATOM     14  C   UNL     1      -0.061   0.131   0.000  0.00  0.00    +0.000 A 
ATOM     15  C   UNL     1       0.083   0.943   0.000  0.00  0.00    +0.000 A 
ATOM     16  C   UNL     1       0.858   1.225   0.000  0.00  0.00    +0.000 A 
ATOM     17  F   UNL     1      -0.836  -0.151   0.000  0.00  0.00    +0.000 F 
ATOM     18  C   UNL     1       3.262   0.640   0.000  0.00  0.00    +0.000 C 
ATOM     19  C   UNL     1       3.856   1.213   0.000  0.00  0.00    +0.000 C 
ENDROOT
BRANCH   1  20
ATOM     20  C   UNL     1       5.471   1.043   0.000  0.00  0.00    +0.000 A 
ATOM     21  C   UNL     1       5.833   1.784   0.000  0.00  0.00    +0.000 A 
ATOM     22  C   UNL     1       6.656   1.841   0.000  0.00  0.00    +0.000 A 
ATOM     23  C   UNL     1       7.117   1.157   0.000  0.00  0.00    +0.000 A 
ATOM     24  C   UNL     1       6.756   0.416   0.000  0.00  0.00    +0.000 A 
ATOM     25  C   UNL     1       5.933   0.358   0.000  0.00  0.00    +0.000 A 
ENDBRANCH   1  20
BRANCH   1  27
ATOM     26  C   UNL     1       4.068   2.291   0.000  0.00  0.00    +0.000 C 
ATOM     27  N   UNL     1       4.735   1.806   0.000  0.00  0.00    +0.000 NA
ATOM     28  C   UNL     1       5.489   2.141   0.000  0.00  0.00    +0.000 C 
ENDBRANCH   1  27
TORSDOF 2
