REMARK  Name = 
REMARK  8 active torsions:
REMARK  status: ('A' for Active; 'I' for Inactive)
REMARK    1  A    between atoms: C_2  and  C_3
REMARK    2  A    between atoms: C_3  and  C_4
REMARK    3  A    between atoms: C_4  and  O_5
REMARK    4  A    between atoms: O_5  and  C_6
REMARK    5  A    between atoms: C_11  and  O_12
REMARK    6  A    between atoms: O_12  and  C_13
REMARK    7  A    between atoms: C_13  and  C_14
REMARK    8  A    between atoms: C_14  and  C_15
REMARK                            x       y       z     vdW  Elec       q    Type
REMARK                         _______ _______ _______ _____ _____    ______ ____
ROOT
ATOM      1  C   UNL     1       0.563   0.398   0.000  0.00  0.00    +0.000 C 
ATOM      2  C   UNL     1      -0.234   0.612   0.000  0.00  0.00    +0.000 C 
ATOM      3  O   UNL     1      -0.949   0.199   0.000  0.00  0.00    +0.000 OA
ATOM      4  C   UNL     1      -0.021   1.408   0.000  0.00  0.00    +0.000 C 
ATOM      5  O   UNL     1      -0.433   2.123   0.000  0.00  0.00    +0.000 OA
ATOM      6  C   UNL     1       0.776   1.195   0.000  0.00  0.00    +0.000 C 
ENDROOT
BRANCH   1   7
ATOM      7  O   UNL     1       0.975  -0.317   0.000  0.00  0.00    +0.000 OA
BRANCH   7   8
ATOM      8  C   UNL     1       0.563  -1.031   0.000  0.00  0.00    +0.000 C 
BRANCH   8   9
ATOM      9  C   UNL     1       0.975  -1.746   0.000  0.00  0.00    +0.000 C 
BRANCH   9  11
ATOM     10  C   UNL     1       0.975  -3.174   0.000  0.00  0.00    +0.000 C 
ATOM     11  C   UNL     1       0.563  -2.460   0.000  0.00  0.00    +0.000 C 
ENDBRANCH   9  11
ENDBRANCH   8   9
ENDBRANCH   7   8
ENDBRANCH   1   7
BRANCH   6  12
ATOM     12  O   UNL     1       1.491   1.607   0.000  0.00  0.00    +0.000 OA
BRANCH  12  13
ATOM     13  C   UNL     1       2.205   1.195   0.000  0.00  0.00    +0.000 C 
BRANCH  13  14
ATOM     14  C   UNL     1       2.920   1.607   0.000  0.00  0.00    +0.000 C 
BRANCH  14  15
ATOM     15  C   UNL     1       3.634   1.195   0.000  0.00  0.00    +0.000 C 
ATOM     16  C   UNL     1       4.349   1.607   0.000  0.00  0.00    +0.000 C 
ENDBRANCH  14  15
ENDBRANCH  13  14
ENDBRANCH  12  13
ENDBRANCH   6  12
TORSDOF 8
