REMARK  Name = 
REMARK  4 active torsions:
REMARK  status: ('A' for Active; 'I' for Inactive)
REMARK    1  A    between atoms: C_2  and  C_15
REMARK    2  A    between atoms: C_13  and  N_30
REMARK    3  A    between atoms: C_15  and  C_21
REMARK    4  A    between atoms: C_15  and  N_28
REMARK                            x       y       z     vdW  Elec       q    Type
REMARK                         _______ _______ _______ _____ _____    ______ ____
ROOT
ATOM      1  C   UNL     1      -0.714  -1.238   0.000  0.00  0.00    +0.000 A 
ATOM      2  C   UNL     1       0.000  -1.650   0.000  0.00  0.00    +0.000 A 
ATOM      3  C   UNL     1      -0.714  -0.412   0.000  0.00  0.00    +0.000 A 
ATOM      4  C   UNL     1       0.714  -1.238   0.000  0.00  0.00    +0.000 A 
ATOM      5  C   UNL     1       0.000   0.000   0.000  0.00  0.00    +0.000 A 
ATOM      6  C   UNL     1       0.714  -0.412   0.000  0.00  0.00    +0.000 A 
ATOM      7  C   UNL     1       0.714   1.238   0.000  0.00  0.00    +0.000 A 
ATOM      8  C   UNL     1       1.429   0.000   0.000  0.00  0.00    +0.000 A 
ATOM      9  F   UNL     1       1.429  -1.650   0.000  0.00  0.00    +0.000 F 
ATOM     10  N   UNL     1       0.000   0.825   0.000  0.00  0.00    +0.000 NA
ATOM     11  N   UNL     1       1.429   0.825   0.000  0.00  0.00    +0.000 N 
ATOM     12  O   UNL     1       2.143  -0.412   0.000  0.00  0.00    +0.000 OA
ENDROOT
BRANCH  11  18
ATOM     13  C   UNL     1       3.572   2.062   0.000  0.00  0.00    +0.000 A 
ATOM     14  C   UNL     1       2.858   2.475   0.000  0.00  0.00    +0.000 A 
ATOM     15  C   UNL     1       3.572   1.238   0.000  0.00  0.00    +0.000 A 
ATOM     16  C   UNL     1       2.143   2.062   0.000  0.00  0.00    +0.000 A 
ATOM     17  C   UNL     1       2.858   0.825   0.000  0.00  0.00    +0.000 A 
ATOM     18  C   UNL     1       2.143   1.238   0.000  0.00  0.00    +0.000 A 
ENDBRANCH  11  18
BRANCH   7  19
ATOM     19  C   UNL     1       0.714   2.062   0.000  0.00  0.00    +0.000 C 
BRANCH  19  29
ATOM     20  C   UNL     1      -0.555   4.125   0.000  0.00  0.00    +0.000 A 
ATOM     21  C   UNL     1       2.143   4.537   0.000  0.00  0.00    +0.000 A 
ATOM     22  C   UNL     1       0.714   3.712   0.000  0.00  0.00    +0.000 A 
ATOM     23  C   UNL     1       0.714   4.537   0.000  0.00  0.00    +0.000 A 
ATOM     24  C   UNL     1       1.429   3.300   0.000  0.00  0.00    +0.000 A 
ATOM     25  N   UNL     1      -0.070   3.458   0.000  0.00  0.00    +0.000 NA
ATOM     26  N   UNL     1      -0.070   4.792   0.000  0.00  0.00    +0.000 NA
ATOM     27  N   UNL     1       1.429   4.950   0.000  0.00  0.00    +0.000 NA
ATOM     28  N   UNL     1       2.143   3.712   0.000  0.00  0.00    +0.000 NA
ATOM     29  N   UNL     1       1.429   2.475   0.000  0.00  0.00    +0.000 NA
ENDBRANCH  19  29
BRANCH  19  31
ATOM     30  C   UNL     1      -0.714   2.062   0.000  0.00  0.00    +0.000 C 
ATOM     31  C   UNL     1       0.000   2.475   0.000  0.00  0.00    +0.000 C 
ENDBRANCH  19  31
ENDBRANCH   7  19
TORSDOF 4
