REMARK  Name = 
REMARK  10 active torsions:
REMARK  status: ('A' for Active; 'I' for Inactive)
REMARK    1  A    between atoms: S_1  and  C_12
REMARK    2  A    between atoms: S_1  and  C_16
REMARK    3  A    between atoms: N_8  and  C_18
REMARK    4  A    between atoms: N_9  and  C_20
REMARK    5  A    between atoms: N_10  and  C_24
REMARK    6  A    between atoms: C_11  and  C_12
REMARK    7  A    between atoms: C_13  and  C_16
REMARK    8  A    between atoms: C_17  and  C_18
REMARK    9  A    between atoms: C_19  and  C_20
REMARK   10  A    between atoms: C_24  and  C_25
REMARK                            x       y       z     vdW  Elec       q    Type
REMARK                         _______ _______ _______ _____ _____    ______ ____
ROOT
ATOM      1  O   UNL     1      -1.447  -0.838   0.000  0.00  0.00    +0.000 OA
ATOM      2  N   UNL     1      -0.723   0.402   0.000  0.00  0.00    +0.000 NA
ATOM      3  C   UNL     1      -1.447  -0.011   0.000  0.00  0.00    +0.000 C 
ENDROOT
BRANCH   3   4
ATOM      4  C   UNL     1      -2.159   0.402   0.000  0.00  0.00    +0.000 C 
BRANCH   4   5
ATOM      5  S   UNL     1      -2.882  -0.011   0.000  0.00  0.00    +0.000 S 
BRANCH   5   7
ATOM      6  O   UNL     1      -3.594   1.252   0.000  0.00  0.00    +0.000 OA
ATOM      7  C   UNL     1      -3.594   0.402   0.000  0.00  0.00    +0.000 C 
BRANCH   7   8
ATOM      8  C   UNL     1      -4.318  -0.011   0.000  0.00  0.00    +0.000 A 
ATOM      9  C   UNL     1      -5.029   0.402   0.000  0.00  0.00    +0.000 A 
ATOM     10  C   UNL     1      -4.318  -0.838   0.000  0.00  0.00    +0.000 A 
ATOM     11  C   UNL     1      -5.742  -0.011   0.000  0.00  0.00    +0.000 A 
ATOM     12  C   UNL     1      -5.029  -1.252   0.000  0.00  0.00    +0.000 A 
ATOM     13  C   UNL     1      -5.742  -0.838   0.000  0.00  0.00    +0.000 A 
ENDBRANCH   7   8
ENDBRANCH   5   7
ENDBRANCH   4   5
ENDBRANCH   3   4
BRANCH   2  14
ATOM     14  C   UNL     1      -0.011  -0.011   0.000  0.00  0.00    +0.000 C 
BRANCH  14  17
ATOM     15  O   UNL     1       0.724   1.252   0.000  0.00  0.00    +0.000 OA
ATOM     16  N   UNL     1       1.435  -0.011   0.000  0.00  0.00    +0.000 NA
ATOM     17  C   UNL     1       0.724   0.402   0.000  0.00  0.00    +0.000 C 
BRANCH  16  18
ATOM     18  C   UNL     1       2.159   0.402   0.000  0.00  0.00    +0.000 C 
BRANCH  18  21
ATOM     19  O   UNL     1       2.871  -0.838   0.000  0.00  0.00    +0.000 OA
ATOM     20  N   UNL     1       3.594   0.402   0.000  0.00  0.00    +0.000 NA
ATOM     21  C   UNL     1       2.871  -0.011   0.000  0.00  0.00    +0.000 C 
BRANCH  20  22
ATOM     22  C   UNL     1       4.306  -0.011   0.000  0.00  0.00    +0.000 C 
BRANCH  22  25
ATOM     23  O   UNL     1       5.029   1.252   0.000  0.00  0.00    +0.000 OA
ATOM     24  O   UNL     1       5.742  -0.011   0.000  0.00  0.00    +0.000 OA
ATOM     25  C   UNL     1       5.029   0.402   0.000  0.00  0.00    +0.000 C 
ENDBRANCH  22  25
ENDBRANCH  20  22
ENDBRANCH  18  21
ENDBRANCH  16  18
ENDBRANCH  14  17
ENDBRANCH   2  14
TORSDOF 10
