REMARK  Name = 
REMARK  4 active torsions:
REMARK  status: ('A' for Active; 'I' for Inactive)
REMARK    1  A    between atoms: C_14  and  C_16
REMARK    2  A    between atoms: C_15  and  C_17
REMARK    3  A    between atoms: C_16  and  C_21
REMARK    4  A    between atoms: C_17  and  C_20
REMARK                            x       y       z     vdW  Elec       q    Type
REMARK                         _______ _______ _______ _____ _____    ______ ____
ROOT
ATOM      1 MG   UNL     1       0.371  -0.292   0.000  0.00  0.00    +0.000 Mg
ENDROOT
TORSDOF 0
REMARK  Name = 
REMARK  4 active torsions:
REMARK  status: ('A' for Active; 'I' for Inactive)
REMARK    1  A    between atoms: C_14  and  C_16
REMARK    2  A    between atoms: C_15  and  C_17
REMARK    3  A    between atoms: C_16  and  C_21
REMARK    4  A    between atoms: C_17  and  C_20
REMARK                            x       y       z     vdW  Elec       q    Type
REMARK                         _______ _______ _______ _____ _____    ______ ____
ROOT
ATOM      1  O   UNL     1      -2.253  -1.132   0.000  0.00  0.00    +0.000 OA
ATOM      2  O   UNL     1      -0.416  -0.037   0.000  0.00  0.00    +0.000 OA
ATOM      3  O   UNL     1      -0.229  -1.830   0.000  0.00  0.00    +0.000 OA
ATOM      4  O   UNL     1      -1.871  -2.557   0.000  0.00  0.00    +0.000 OA
ATOM      5  C   UNL     1      -1.841  -0.420   0.000  0.00  0.00    +0.000 C 
ATOM      6  C   UNL     1      -1.031  -0.592   0.000  0.00  0.00    +0.000 C 
ATOM      7  C   UNL     1      -0.949  -1.410   0.000  0.00  0.00    +0.000 C 
ATOM      8  C   UNL     1      -1.699  -1.747   0.000  0.00  0.00    +0.000 C 
ENDROOT
BRANCH   5  10
ATOM      9  O   UNL     1      -1.691   1.005   0.000  0.00  0.00    +0.000 OA
ATOM     10  C   UNL     1      -2.179   0.338   0.000  0.00  0.00    +0.000 C 
BRANCH  10  12
ATOM     11  O   UNL     1      -3.333   1.177   0.000  0.00  0.00    +0.000 OA
ATOM     12  C   UNL     1      -2.996   0.420   0.000  0.00  0.00    +0.000 C 
ENDBRANCH  10  12
ENDBRANCH   5  10
TORSDOF 2
REMARK  Name = 
REMARK  4 active torsions:
REMARK  status: ('A' for Active; 'I' for Inactive)
REMARK    1  A    between atoms: C_14  and  C_16
REMARK    2  A    between atoms: C_15  and  C_17
REMARK    3  A    between atoms: C_16  and  C_21
REMARK    4  A    between atoms: C_17  and  C_20
REMARK                            x       y       z     vdW  Elec       q    Type
REMARK                         _______ _______ _______ _____ _____    ______ ____
ROOT
ATOM      1  O   UNL     1       3.101   0.000   0.000  0.00  0.00    +0.000 OA
ATOM      2  O   UNL     1       0.979   0.262   0.000  0.00  0.00    +0.000 OA
ATOM      3  O   UNL     1       1.534  -1.447   0.000  0.00  0.00    +0.000 OA
ATOM      4  O   UNL     1       3.333  -1.447   0.000  0.00  0.00    +0.000 OA
ATOM      5  C   UNL     1       2.433   0.487   0.000  0.00  0.00    +0.000 C 
ATOM      6  C   UNL     1       1.766   0.000   0.000  0.00  0.00    +0.000 C 
ATOM      7  C   UNL     1       2.021  -0.780   0.000  0.00  0.00    +0.000 C 
ATOM      8  C   UNL     1       2.846  -0.780   0.000  0.00  0.00    +0.000 C 
ENDROOT
BRANCH   5  10
ATOM      9  O   UNL     1       1.721   1.732   0.000  0.00  0.00    +0.000 OA
ATOM     10  C   UNL     1       2.433   1.312   0.000  0.00  0.00    +0.000 C 
BRANCH  10  12
ATOM     11  O   UNL     1       3.153   2.557   0.000  0.00  0.00    +0.000 OA
ATOM     12  C   UNL     1       3.153   1.732   0.000  0.00  0.00    +0.000 C 
ENDBRANCH  10  12
ENDBRANCH   5  10
TORSDOF 2
