REMARK  Name = 
REMARK  6 active torsions:
REMARK  status: ('A' for Active; 'I' for Inactive)
REMARK    1  A    between atoms: CG_2  and  CB_3
REMARK    2  A    between atoms: CB_3  and  CA_4
REMARK    3  A    between atoms: CA_4  and  C_5
REMARK    4  A    between atoms: CG_12  and  CB_13
REMARK    5  A    between atoms: CB_13  and  CA_14
REMARK    6  A    between atoms: CA_14  and  C_15
REMARK                            x       y       z     vdW  Elec       q    Type
REMARK                         _______ _______ _______ _____ _____    ______ ____
ROOT
ATOM      1  CA  ASP A   1       2.485  -0.207   0.000  0.00  0.00    +0.000 C 
ATOM      2  N   ASP A   1       2.480  -1.033   0.000  0.00  0.00    +0.000 NA
ENDROOT
BRANCH   1   3
ATOM      3  C   ASP A   1       3.198   0.207   0.000  0.00  0.00    +0.000 C 
ATOM      4  OXT ASP A   1       3.913  -0.207   0.000  0.00  0.00    +0.000 OA
ATOM      5  O   ASP A   1       3.194   1.033   0.000  0.00  0.00    +0.000 OA
ENDBRANCH   1   3
BRANCH   1   6
ATOM      6  CB  ASP A   1       1.770   0.207   0.000  0.00  0.00    +0.000 C 
BRANCH   6   8
ATOM      7  OD1 ASP A   1       0.342   0.207   0.000  0.00  0.00    +0.000 OA
ATOM      8  CG  ASP A   1       1.056  -0.207   0.000  0.00  0.00    +0.000 C 
ATOM      9  OD2 ASP A   1       1.052  -1.033   0.000  0.00  0.00    +0.000 OA
ENDBRANCH   6   8
ENDBRANCH   1   6
TORSDOF 3
REMARK  Name = 
REMARK  6 active torsions:
REMARK  status: ('A' for Active; 'I' for Inactive)
REMARK    1  A    between atoms: CG_2  and  CB_3
REMARK    2  A    between atoms: CB_3  and  CA_4
REMARK    3  A    between atoms: CA_4  and  C_5
REMARK    4  A    between atoms: CG_12  and  CB_13
REMARK    5  A    between atoms: CB_13  and  CA_14
REMARK    6  A    between atoms: CA_14  and  C_15
REMARK                            x       y       z     vdW  Elec       q    Type
REMARK                         _______ _______ _______ _____ _____    ______ ____
ROOT
ATOM      1 ZN   UNL     1      -3.913   0.010   0.000  0.00  0.00    +0.000 Zn
ENDROOT
TORSDOF 0
REMARK  Name = 
REMARK  6 active torsions:
REMARK  status: ('A' for Active; 'I' for Inactive)
REMARK    1  A    between atoms: CG_2  and  CB_3
REMARK    2  A    between atoms: CB_3  and  CA_4
REMARK    3  A    between atoms: CA_4  and  C_5
REMARK    4  A    between atoms: CG_12  and  CB_13
REMARK    5  A    between atoms: CB_13  and  CA_14
REMARK    6  A    between atoms: CA_14  and  C_15
REMARK                            x       y       z     vdW  Elec       q    Type
REMARK                         _______ _______ _______ _____ _____    ______ ____
ROOT
ATOM      1  CA  ASP A   1       0.245   2.410   0.000  0.00  0.00    +0.000 C 
ATOM      2  N   ASP A   1       0.241   1.584   0.000  0.00  0.00    +0.000 NA
ENDROOT
BRANCH   1   3
ATOM      3  C   ASP A   1       0.959   2.824   0.000  0.00  0.00    +0.000 C 
ATOM      4  OXT ASP A   1       1.673   2.410   0.000  0.00  0.00    +0.000 OA
ATOM      5  O   ASP A   1       0.955   3.651   0.000  0.00  0.00    +0.000 OA
ENDBRANCH   1   3
BRANCH   1   6
ATOM      6  CB  ASP A   1      -0.469   2.824   0.000  0.00  0.00    +0.000 C 
BRANCH   6   8
ATOM      7  OD1 ASP A   1      -1.897   2.824   0.000  0.00  0.00    +0.000 OA
ATOM      8  CG  ASP A   1      -1.183   2.410   0.000  0.00  0.00    +0.000 C 
ATOM      9  OD2 ASP A   1      -1.187   1.584   0.000  0.00  0.00    +0.000 OA
ENDBRANCH   6   8
ENDBRANCH   1   6
TORSDOF 3
