REMARK  Name = 
REMARK  6 active torsions:
REMARK  status: ('A' for Active; 'I' for Inactive)
REMARK    1  A    between atoms: C_3  and  C_16
REMARK    2  A    between atoms: C_5  and  O_7
REMARK    3  A    between atoms: O_7  and  C_8
REMARK    4  A    between atoms: C_8  and  C_9
REMARK    5  A    between atoms: C_9  and  N_10
REMARK    6  A    between atoms: C_19  and  C_25
REMARK                            x       y       z     vdW  Elec       q    Type
REMARK                         _______ _______ _______ _____ _____    ______ ____
ROOT
ATOM      1  C   UNL     1       1.181   2.152   0.000  0.00  0.00    +0.000 A 
ATOM      2  C   UNL     1       1.436   1.367   0.000  0.00  0.00    +0.000 A 
ATOM      3  C   UNL     1       0.884   0.754   0.000  0.00  0.00    +0.000 A 
ATOM      4  C   UNL     1       0.077   0.926   0.000  0.00  0.00    +0.000 A 
ATOM      5  C   UNL     1      -0.178   1.710   0.000  0.00  0.00    +0.000 A 
ATOM      6  C   UNL     1       0.374   2.323   0.000  0.00  0.00    +0.000 A 
ENDROOT
BRANCH   3   7
ATOM      7  C   UNL     1       1.139  -0.030   0.000  0.00  0.00    +0.000 A 
ATOM      8  C   UNL     1       1.923  -0.285   0.000  0.00  0.00    +0.000 A 
ATOM      9  C   UNL     1       2.638   0.127   0.000  0.00  0.00    +0.000 A 
ATOM     10  C   UNL     1       3.352  -0.285   0.000  0.00  0.00    +0.000 A 
ATOM     11  C   UNL     1       3.352  -1.110   0.000  0.00  0.00    +0.000 A 
ATOM     12  C   UNL     1       2.638  -1.523   0.000  0.00  0.00    +0.000 A 
ATOM     13  C   UNL     1       1.923  -1.110   0.000  0.00  0.00    +0.000 A 
ATOM     14  N   UNL     1       1.139  -1.365   0.000  0.00  0.00    +0.000 NA
ATOM     15  N   UNL     1       0.654  -0.698   0.000  0.00  0.00    +0.000 NA
BRANCH  10  16
ATOM     16  C   UNL     1       4.067   0.127   0.000  0.00  0.00    +0.000 A 
ATOM     17  N   UNL     1       4.153   0.948   0.000  0.00  0.00    +0.000 NA
ATOM     18  C   UNL     1       4.960   1.119   0.000  0.00  0.00    +0.000 A 
ATOM     19  N   UNL     1       5.372   0.405   0.000  0.00  0.00    +0.000 NA
ATOM     20  N   UNL     1       4.820  -0.208   0.000  0.00  0.00    +0.000 NA
ENDBRANCH  10  16
ENDBRANCH   3   7
BRANCH   5  21
ATOM     21  O   UNL     1      -0.985   1.882   0.000  0.00  0.00    +0.000 OA
BRANCH  21  22
ATOM     22  C   UNL     1      -1.240   2.666   0.000  0.00  0.00    +0.000 C 
BRANCH  22  23
ATOM     23  C   UNL     1      -2.047   2.838   0.000  0.00  0.00    +0.000 C 
BRANCH  23  24
ATOM     24  N   UNL     1      -2.302   3.623   0.000  0.00  0.00    +0.000 NA
ATOM     25  C   UNL     1      -3.109   3.794   0.000  0.00  0.00    +0.000 C 
ATOM     26  C   UNL     1      -3.364   4.579   0.000  0.00  0.00    +0.000 C 
ATOM     27  C   UNL     1      -2.812   5.192   0.000  0.00  0.00    +0.000 C 
ATOM     28  C   UNL     1      -2.005   5.020   0.000  0.00  0.00    +0.000 C 
ATOM     29  C   UNL     1      -1.750   4.236   0.000  0.00  0.00    +0.000 C 
ENDBRANCH  23  24
ENDBRANCH  22  23
ENDBRANCH  21  22
ENDBRANCH   5  21
TORSDOF 6
