REMARK  Name = 
REMARK  0 active torsions:
REMARK  status: ('A' for Active; 'I' for Inactive)
REMARK                            x       y       z     vdW  Elec       q    Type
REMARK                         _______ _______ _______ _____ _____    ______ ____
ROOT
ATOM      1  O   HOH     1       0.412   0.000   0.000  0.00  0.00    +0.000 OA
ATOM      2  H   HOH     0      -0.412   0.000   0.000  0.00  0.00    +0.000 HD
ENDROOT
TORSDOF 0
