REMARK  Name = 
REMARK  10 active torsions:
REMARK  status: ('A' for Active; 'I' for Inactive)
REMARK    1  A    between atoms: C_3  and  C_20
REMARK    2  A    between atoms: C_4  and  C_9
REMARK    3  A    between atoms: N_10  and  C_11
REMARK    4  A    between atoms: C_11  and  C_12
REMARK    5  A    between atoms: C_12  and  C_13
REMARK    6  A    between atoms: C_13  and  C_14
REMARK    7  A    between atoms: C_14  and  C_15
REMARK    8  A    between atoms: C_15  and  C_17
REMARK    9  A    between atoms: C_20  and  O_21
REMARK   10  A    between atoms: O_21  and  P_22
REMARK                            x       y       z     vdW  Elec       q    Type
REMARK                         _______ _______ _______ _____ _____    ______ ____
ROOT
ATOM      1  N   UNK     1      -1.547  -3.394   0.000  0.00  0.00    +0.000 NA
ATOM      2  C   UNK     1      -1.959  -2.679   0.000  0.00  0.00    +0.000 A 
ATOM      3  C   UNK     1      -1.547  -1.965   0.000  0.00  0.00    +0.000 A 
ATOM      4  C   UNK     1      -0.722  -1.965   0.000  0.00  0.00    +0.000 A 
ATOM      5  C   UNK     1      -0.309  -2.679   0.000  0.00  0.00    +0.000 A 
ATOM      6  C   UNK     1      -0.722  -3.394   0.000  0.00  0.00    +0.000 A 
ATOM      7  C   UNK     1      -0.309  -4.108   0.000  0.00  0.00    +0.000 C 
ATOM      8  O   UNK     1       0.516  -2.679   0.000  0.00  0.00    +0.000 OA
ENDROOT
BRANCH   4   9
ATOM      9  C   UNK     1      -0.309  -1.250   0.000  0.00  0.00    +0.000 C 
ATOM     10  N   UNK     1       0.516  -1.250   0.000  0.00  0.00    +0.000 NA
BRANCH  10  11
ATOM     11  C   UNK     1       0.928  -0.536   0.000  0.00  0.00    +0.000 C 
BRANCH  11  12
ATOM     12  C   UNK     1       1.753  -0.536   0.000  0.00  0.00    +0.000 C 
BRANCH  12  13
ATOM     13  C   UNK     1       2.166   0.179   0.000  0.00  0.00    +0.000 C 
BRANCH  13  14
ATOM     14  C   UNK     1       2.991   0.179   0.000  0.00  0.00    +0.000 C 
BRANCH  14  15
ATOM     15  C   UNK     1       3.403   0.893   0.000  0.00  0.00    +0.000 C 
ATOM     16  N   UNK     1       4.228   0.893   0.000  0.00  0.00    +0.000 NA
BRANCH  15  17
ATOM     17  C   UNK     1       2.991   1.608   0.000  0.00  0.00    +0.000 C 
ATOM     18  O   UNK     1       3.403   2.322   0.000  0.00  0.00    +0.000 OA
ATOM     19  O   UNK     1       2.166   1.608   0.000  0.00  0.00    +0.000 OA
ENDBRANCH  15  17
ENDBRANCH  14  15
ENDBRANCH  13  14
ENDBRANCH  12  13
ENDBRANCH  11  12
ENDBRANCH  10  11
ENDBRANCH   4   9
BRANCH   3  20
ATOM     20  C   UNK     1      -1.959  -1.250   0.000  0.00  0.00    +0.000 C 
BRANCH  20  21
ATOM     21  O   UNK     1      -2.784  -1.250   0.000  0.00  0.00    +0.000 OA
BRANCH  21  22
ATOM     22  P   UNK     1      -3.197  -0.536   0.000  0.00  0.00    +0.000 P 
ATOM     23  O   UNK     1      -4.022  -0.536   0.000  0.00  0.00    +0.000 OA
ATOM     24  O   UNK     1      -2.784   0.179   0.000  0.00  0.00    +0.000 OA
ATOM     25  O   UNK     1      -3.609  -1.250   0.000  0.00  0.00    +0.000 OA
ENDBRANCH  21  22
ENDBRANCH  20  21
ENDBRANCH   3  20
TORSDOF 10
