REMARK  Name = 
REMARK  4 active torsions:
REMARK  status: ('A' for Active; 'I' for Inactive)
REMARK    1  A    between atoms: C_20  and  C_21
REMARK    2  A    between atoms: C_21  and  C_23
REMARK    3  A    between atoms: C_23  and  O_24
REMARK    4  A    between atoms: O_24  and  C_25
REMARK                            x       y       z     vdW  Elec       q    Type
REMARK                         _______ _______ _______ _____ _____    ______ ____
ROOT
ATOM      1  C   UNL     1       2.063  -1.417   0.000  0.00  0.00    +0.000 C 
ATOM      2  C   UNL     1       2.839  -1.697   0.000  0.00  0.00    +0.000 C 
ATOM      3  C   UNL     1       3.522  -1.234   0.000  0.00  0.00    +0.000 C 
ATOM      4  C   UNL     1       4.173  -1.740   0.000  0.00  0.00    +0.000 C 
ATOM      5  C   UNL     1       4.985  -1.595   0.000  0.00  0.00    +0.000 C 
ATOM      6  C   UNL     1       5.266  -0.819   0.000  0.00  0.00    +0.000 C 
ATOM      7  C   UNL     1       6.078  -0.674   0.000  0.00  0.00    +0.000 C 
ATOM      8  C   UNL     1       6.609  -1.305   0.000  0.00  0.00    +0.000 C 
ATOM      9  C   UNL     1       7.422  -1.159   0.000  0.00  0.00    +0.000 C 
ATOM     10  C   UNL     1       7.953  -1.790   0.000  0.00  0.00    +0.000 C 
ATOM     11  O   UNL     1       8.765  -1.645   0.000  0.00  0.00    +0.000 OA
ATOM     12  C   UNL     1       7.673  -2.566   0.000  0.00  0.00    +0.000 C 
ATOM     13  C   UNL     1       6.861  -2.711   0.000  0.00  0.00    +0.000 C 
ATOM     14  C   UNL     1       6.329  -2.081   0.000  0.00  0.00    +0.000 C 
ATOM     15  C   UNL     1       5.517  -2.226   0.000  0.00  0.00    +0.000 C 
ATOM     16  C   UNL     1       5.237  -3.002   0.000  0.00  0.00    +0.000 C 
ATOM     17  O   UNL     1       5.769  -3.632   0.000  0.00  0.00    +0.000 OA
ATOM     18  C   UNL     1       4.425  -3.147   0.000  0.00  0.00    +0.000 C 
ATOM     19  C   UNL     1       3.893  -2.516   0.000  0.00  0.00    +0.000 C 
ATOM     20  C   UNL     1       3.068  -2.490   0.000  0.00  0.00    +0.000 C 
ATOM     21  O   UNL     1       2.307  -2.808   0.000  0.00  0.00    +0.000 OA
ATOM     22  C   UNL     1       3.533  -3.259   0.000  0.00  0.00    +0.000 C 
ATOM     23  C   UNL     1       6.049  -2.857   0.000  0.00  0.00    +0.000 C 
ENDROOT
BRANCH  20  24
ATOM     24  C   UNL     1       2.947  -3.305   0.000  0.00  0.00    +0.000 C 
ATOM     25  O   UNL     1       3.593  -3.819   0.000  0.00  0.00    +0.000 OA
BRANCH  24  26
ATOM     26  C   UNL     1       2.179  -3.608   0.000  0.00  0.00    +0.000 C 
BRANCH  26  27
ATOM     27  O   UNL     1       2.058  -4.424   0.000  0.00  0.00    +0.000 OA
BRANCH  27  28
ATOM     28  C   UNL     1       1.291  -4.727   0.000  0.00  0.00    +0.000 C 
ATOM     29  O   UNL     1       1.169  -5.543   0.000  0.00  0.00    +0.000 OA
ATOM     30  C   UNL     1       0.645  -4.214   0.000  0.00  0.00    +0.000 C 
ENDBRANCH  27  28
ENDBRANCH  26  27
ENDBRANCH  24  26
ENDBRANCH  20  24
TORSDOF 4
