REMARK  Name = 
REMARK  7 active torsions:
REMARK  status: ('A' for Active; 'I' for Inactive)
REMARK    1  A    between atoms: N_5  and  C_12
REMARK    2  A    between atoms: C_7  and  C_15
REMARK    3  A    between atoms: C_12  and  C_13
REMARK    4  A    between atoms: C_13  and  C_14
REMARK    5  A    between atoms: C_14  and  C_16
REMARK    6  A    between atoms: C_14  and  C_17
REMARK    7  A    between atoms: C_14  and  C_18
REMARK                            x       y       z     vdW  Elec       q    Type
REMARK                         _______ _______ _______ _____ _____    ______ ____
ROOT
ATOM      1  C   UNL     1       0.613   1.675   0.000  0.00  0.00    +0.000 C 
ENDROOT
BRANCH   1   2
ATOM      2  C   UNL     1       1.327   1.263   0.000  0.00  0.00    +0.000 A 
ATOM      3  C   UNL     1       1.327   0.438   0.000  0.00  0.00    +0.000 A 
ATOM      4  C   UNL     1       2.042   1.675   0.000  0.00  0.00    +0.000 A 
ATOM      5  C   UNL     1       2.042   0.025   0.000  0.00  0.00    +0.000 A 
ATOM      6  C   UNL     1       2.756   1.263   0.000  0.00  0.00    +0.000 A 
ATOM      7  C   UNL     1       2.756   0.438   0.000  0.00  0.00    +0.000 A 
ENDBRANCH   1   2
BRANCH   1   8
ATOM      8  C   UNL     1       1.025   2.390   0.000  0.00  0.00    +0.000 A 
ATOM      9  C   UNL     1       1.850   2.390   0.000  0.00  0.00    +0.000 A 
ATOM     10  C   UNL     1       0.613   3.104   0.000  0.00  0.00    +0.000 A 
ATOM     11  C   UNL     1       2.263   3.104   0.000  0.00  0.00    +0.000 A 
ATOM     12  C   UNL     1       1.025   3.819   0.000  0.00  0.00    +0.000 A 
ATOM     13  C   UNL     1       1.850   3.819   0.000  0.00  0.00    +0.000 A 
ENDBRANCH   1   8
BRANCH   1  16
ATOM     14  O   UNL     1      -0.816   1.675   0.000  0.00  0.00    +0.000 OA
ATOM     15  N   UNL     1      -0.632   2.720   0.000  0.00  0.00    +0.000 N 
ATOM     16  C   UNL     1      -0.102   2.088   0.000  0.00  0.00    +0.000 C 
ATOM     17  C   UNL     1      -1.445   2.576   0.000  0.00  0.00    +0.000 C 
ATOM     18  C   UNL     1      -0.350   3.495   0.000  0.00  0.00    +0.000 C 
ENDBRANCH   1  16
BRANCH   1  19
ATOM     19  C   UNL     1       0.200   0.961   0.000  0.00  0.00    +0.000 C 
BRANCH  19  20
ATOM     20  C   UNL     1      -0.625   0.961   0.000  0.00  0.00    +0.000 C 
BRANCH  20  23
ATOM     21  O   UNL     1      -1.450   0.961   0.000  0.00  0.00    +0.000 OA
ATOM     22  O   UNL     1      -0.625  -2.118   0.000  0.00  0.00    +0.000 OA
ATOM     23  N   UNL     1      -1.037   0.246   0.000  0.00  0.00    +0.000 N 
ATOM     24  C   UNL     1      -1.037  -1.404   0.000  0.00  0.00    +0.000 C 
ATOM     25  C   UNL     1      -0.323  -0.166   0.000  0.00  0.00    +0.000 C 
ATOM     26  C   UNL     1      -1.752  -0.166   0.000  0.00  0.00    +0.000 C 
ATOM     27  C   UNL     1      -0.323  -0.991   0.000  0.00  0.00    +0.000 C 
ATOM     28  C   UNL     1      -1.752  -0.991   0.000  0.00  0.00    +0.000 C 
BRANCH  24  30
ATOM     29 CL   UNL     1      -2.687  -4.262   0.000  0.00  0.00    +0.000 Cl
ATOM     30  C   UNL     1      -1.450  -2.118   0.000  0.00  0.00    +0.000 A 
ATOM     31  C   UNL     1      -2.275  -2.118   0.000  0.00  0.00    +0.000 A 
ATOM     32  C   UNL     1      -1.037  -2.833   0.000  0.00  0.00    +0.000 A 
ATOM     33  C   UNL     1      -2.687  -2.833   0.000  0.00  0.00    +0.000 A 
ATOM     34  C   UNL     1      -1.450  -3.547   0.000  0.00  0.00    +0.000 A 
ATOM     35  C   UNL     1      -2.275  -3.547   0.000  0.00  0.00    +0.000 A 
ENDBRANCH  24  30
ENDBRANCH  20  23
ENDBRANCH  19  20
ENDBRANCH   1  19
TORSDOF 7
