REMARK  Name = 
REMARK  7 active torsions:
REMARK  status: ('A' for Active; 'I' for Inactive)
REMARK    1  A    between atoms: C_2  and  C_3
REMARK    2  A    between atoms: C_3  and  C_4
REMARK    3  A    between atoms: C_4  and  C_5
REMARK    4  A    between atoms: C_5  and  C_6
REMARK    5  A    between atoms: C_5  and  C_8
REMARK    6  A    between atoms: N_11  and  S_15
REMARK    7  A    between atoms: S_15  and  C_16
REMARK                            x       y       z     vdW  Elec       q    Type
REMARK                         _______ _______ _______ _____ _____    ______ ____
ROOT
ATOM      1  C   UNL     1       5.383  -3.596   0.000  0.00  0.00    +0.000 C 
ATOM      2  C   UNL     1       6.204  -3.682   0.000  0.00  0.00    +0.000 C 
ATOM      3  O   UNL     1       6.756  -3.069   0.000  0.00  0.00    +0.000 OA
ATOM      4  N   UNL     1       6.375  -4.489   0.000  0.00  0.00    +0.000 N 
ATOM      5  C   UNL     1       5.661  -4.902   0.000  0.00  0.00    +0.000 C 
ATOM      6  O   UNL     1       5.575  -5.722   0.000  0.00  0.00    +0.000 OA
ATOM      7  N   UNL     1       5.048  -4.350   0.000  0.00  0.00    +0.000 NA
ENDROOT
BRANCH   1   8
ATOM      8  C   UNL     1       4.971  -2.882   0.000  0.00  0.00    +0.000 C 
BRANCH   8   9
ATOM      9  C   UNL     1       5.383  -2.167   0.000  0.00  0.00    +0.000 C 
ATOM     10  C   UNL     1       6.208  -2.167   0.000  0.00  0.00    +0.000 C 
ENDBRANCH   8   9
BRANCH   8  11
ATOM     11  C   UNL     1       4.146  -2.882   0.000  0.00  0.00    +0.000 C 
BRANCH  11  12
ATOM     12  C   UNL     1       3.733  -2.167   0.000  0.00  0.00    +0.000 C 
BRANCH  12  14
ATOM     13  C   UNL     1       2.496  -1.453   0.000  0.00  0.00    +0.000 C 
ATOM     14  C   UNL     1       2.908  -2.167   0.000  0.00  0.00    +0.000 C 
ENDBRANCH  12  14
ENDBRANCH  11  12
ENDBRANCH   8  11
ENDBRANCH   1   8
BRANCH   4  15
ATOM     15  S   UNL     1       7.129  -4.825   0.000  0.00  0.00    +0.000 S 
BRANCH  15  16
ATOM     16  C   UNL     1       7.797  -4.340   0.000  0.00  0.00    +0.000 C 
ATOM     17 CL   UNL     1       8.464  -3.855   0.000  0.00  0.00    +0.000 Cl
ATOM     18 CL   UNL     1       8.281  -5.008   0.000  0.00  0.00    +0.000 Cl
ATOM     19 CL   UNL     1       7.312  -3.673   0.000  0.00  0.00    +0.000 Cl
ENDBRANCH  15  16
ENDBRANCH   4  15
TORSDOF 7
