REMARK  Name = 
REMARK  7 active torsions:
REMARK  status: ('A' for Active; 'I' for Inactive)
REMARK    1  A    between atoms: C_6  and  N_25
REMARK    2  A    between atoms: C_10  and  S_22
REMARK    3  A    between atoms: C_13  and  O_20
REMARK    4  A    between atoms: C_14  and  O_18
REMARK    5  A    between atoms: C_15  and  O_17
REMARK    6  A    between atoms: O_17  and  C_29
REMARK    7  A    between atoms: C_31  and  C_37
REMARK                            x       y       z     vdW  Elec       q    Type
REMARK                         _______ _______ _______ _____ _____    ______ ____
ROOT
ATOM      1  C   UNL     1       0.245   0.309   0.000  0.00  0.00    +0.000 A 
ATOM      2  C   UNL     1       0.905   0.887   0.000  0.00  0.00    +0.000 A 
ATOM      3  C   UNL     1       1.689   0.681   0.000  0.00  0.00    +0.000 A 
ATOM      4  C   UNL     1       2.061  -0.103   0.000  0.00  0.00    +0.000 A 
ATOM      5  C   UNL     1       0.245  -0.516   0.000  0.00  0.00    +0.000 C 
ATOM      6  C   UNL     1       1.689  -0.846   0.000  0.00  0.00    +0.000 C 
ATOM      7  C   UNL     1       0.905  -1.011   0.000  0.00  0.00    +0.000 C 
ATOM      8  C   UNL     1       2.019   1.423   0.000  0.00  0.00    +0.000 A 
ATOM      9  C   UNL     1       2.844   1.629   0.000  0.00  0.00    +0.000 A 
ATOM     10  C   UNL     1       3.504   1.134   0.000  0.00  0.00    +0.000 A 
ATOM     11  C   UNL     1       3.504   0.268   0.000  0.00  0.00    +0.000 A 
ATOM     12  C   UNL     1       2.885  -0.268   0.000  0.00  0.00    +0.000 A 
ATOM     13  C   UNL     1       0.699   1.671   0.000  0.00  0.00    +0.000 A 
ATOM     14  C   UNL     1      -0.084   1.877   0.000  0.00  0.00    +0.000 A 
ATOM     15  C   UNL     1      -0.703   1.299   0.000  0.00  0.00    +0.000 A 
ATOM     16  C   UNL     1      -0.456   0.516   0.000  0.00  0.00    +0.000 A 
ATOM     17  O   UNL     1       4.288  -0.062   0.000  0.00  0.00    +0.000 OA
ENDROOT
BRANCH   6  18
ATOM     18  N   UNL     1       2.184  -1.506   0.000  0.00  0.00    +0.000 NA
ATOM     19  C   UNL     1       1.772  -2.207   0.000  0.00  0.00    +0.000 C 
ATOM     20  O   UNL     1       0.947  -2.207   0.000  0.00  0.00    +0.000 OA
ATOM     21  C   UNL     1       2.184  -2.908   0.000  0.00  0.00    +0.000 C 
ENDBRANCH   6  18
BRANCH  13  22
ATOM     22  O   UNL     1       1.277   2.248   0.000  0.00  0.00    +0.000 OA
ATOM     23  C   UNL     1       2.061   2.042   0.000  0.00  0.00    +0.000 C 
ENDBRANCH  13  22
BRANCH  10  24
ATOM     24  S   UNL     1       4.247   1.506   0.000  0.00  0.00    +0.000 S 
ATOM     25  C   UNL     1       4.948   1.093   0.000  0.00  0.00    +0.000 C 
ENDBRANCH  10  24
BRANCH  14  26
ATOM     26  O   UNL     1      -0.332   2.661   0.000  0.00  0.00    +0.000 OA
ATOM     27  C   UNL     1      -1.116   2.908   0.000  0.00  0.00    +0.000 C 
ENDBRANCH  14  26
BRANCH  15  28
ATOM     28  O   UNL     1      -1.487   1.547   0.000  0.00  0.00    +0.000 OA
BRANCH  28  29
ATOM     29  C   UNL     1      -2.095   0.990   0.000  0.00  0.00    +0.000 C 
ATOM     30  O   UNL     1      -2.803   1.411   0.000  0.00  0.00    +0.000 OA
ATOM     31  C   UNL     1      -3.523   1.008   0.000  0.00  0.00    +0.000 C 
ATOM     32  C   UNL     1      -3.493   0.183   0.000  0.00  0.00    +0.000 C 
ATOM     33  C   UNL     1      -2.822  -0.241   0.000  0.00  0.00    +0.000 C 
ATOM     34  C   UNL     1      -2.102   0.162   0.000  0.00  0.00    +0.000 C 
ATOM     35  O   UNL     1      -1.387  -0.261   0.000  0.00  0.00    +0.000 OA
ATOM     36  O   UNL     1      -4.218  -0.234   0.000  0.00  0.00    +0.000 OA
ATOM     37  O   UNL     1      -2.808  -1.052   0.000  0.00  0.00    +0.000 OA
BRANCH  31  38
ATOM     38  C   UNL     1      -4.232   1.407   0.000  0.00  0.00    +0.000 C 
ATOM     39  O   UNL     1      -4.948   0.982   0.000  0.00  0.00    +0.000 OA
ENDBRANCH  31  38
ENDBRANCH  28  29
ENDBRANCH  15  28
TORSDOF 7
