REMARK  Name = 
REMARK  5 active torsions:
REMARK  status: ('A' for Active; 'I' for Inactive)
REMARK    1  A    between atoms: CA_6  and  C_8
REMARK    2  A    between atoms: CA_10  and  N_11
REMARK    3  A    between atoms: C_12  and  C_14
REMARK    4  A    between atoms: C_14  and  O_20
REMARK    5  A    between atoms: O_20  and  C_21
REMARK                            x       y       z     vdW  Elec       q    Type
REMARK                         _______ _______ _______ _____ _____    ______ ____
ROOT
ATOM      1  N   UNL     1       1.921  -0.411   0.000  0.00  0.00    +0.000 N 
ATOM      2  S   UNL     1       2.706   0.669   0.000  0.00  0.00    +0.000 S 
ATOM      3  C   UNL     1       3.905  -0.411   0.000  0.00  0.00    +0.000 C 
ATOM      4  C   UNL     1       3.191   0.001   0.000  0.00  0.00    +0.000 C 
ATOM      5  C   UNL     1       3.905   0.414   0.000  0.00  0.00    +0.000 C 
ATOM      6  CA  UNL     1       2.706  -0.666   0.000  0.00  0.00    +0.000 C 
ATOM      7  CA  UNL     1       1.096   0.414   0.000  0.00  0.00    +0.000 C 
ATOM      8  C   UNL     1       1.096  -0.411   0.000  0.00  0.00    +0.000 C 
ATOM      9  O   UNL     1       0.513  -0.995   0.000  0.00  0.00    +0.000 OA
ATOM     10  C   UNL     1       1.921   0.414   0.000  0.00  0.00    +0.000 C 
ENDROOT
BRANCH   6  12
ATOM     11  O   UNL     1       3.768  -1.622   0.000  0.00  0.00    +0.000 OA
ATOM     12  C   UNL     1       2.961  -1.451   0.000  0.00  0.00    +0.000 C 
ATOM     13  OXT UNL     1       2.409  -2.064   0.000  0.00  0.00    +0.000 OA
ENDBRANCH   6  12
BRANCH   7  14
ATOM     14  N   UNL     1       0.382   0.826   0.000  0.00  0.00    +0.000 NA
ATOM     15  C   UNL     1      -0.333   0.414   0.000  0.00  0.00    +0.000 C 
ATOM     16  O   UNL     1      -0.333  -0.411   0.000  0.00  0.00    +0.000 OA
BRANCH  15  17
ATOM     17  C   UNL     1      -1.047   0.826   0.000  0.00  0.00    +0.000 C 
ATOM     18  C   UNL     1      -1.047   1.651   0.000  0.00  0.00    +0.000 C 
BRANCH  17  19
ATOM     19  O   UNL     1      -1.762   0.414   0.000  0.00  0.00    +0.000 OA
BRANCH  19  20
ATOM     20  C   UNL     1      -2.476   0.826   0.000  0.00  0.00    +0.000 A 
ATOM     21  C   UNL     1      -2.476   1.651   0.000  0.00  0.00    +0.000 A 
ATOM     22  C   UNL     1      -3.191   2.064   0.000  0.00  0.00    +0.000 A 
ATOM     23  C   UNL     1      -3.191   0.414   0.000  0.00  0.00    +0.000 A 
ATOM     24  C   UNL     1      -3.905   1.651   0.000  0.00  0.00    +0.000 A 
ATOM     25  C   UNL     1      -3.905   0.826   0.000  0.00  0.00    +0.000 A 
ENDBRANCH  19  20
ENDBRANCH  17  19
ENDBRANCH  15  17
ENDBRANCH   7  14
TORSDOF 5
