REMARK  Name = 
REMARK  7 active torsions:
REMARK  status: ('A' for Active; 'I' for Inactive)
REMARK    1  A    between atoms: C_4  and  C_19
REMARK    2  A    between atoms: C_15  and  C_16
REMARK    3  A    between atoms: C_15  and  C_20
REMARK    4  A    between atoms: C_16  and  N_21
REMARK    5  A    between atoms: C_17  and  C_20
REMARK    6  A    between atoms: C_18  and  C_20
REMARK    7  A    between atoms: C_19  and  C_20
REMARK                            x       y       z     vdW  Elec       q    Type
REMARK                         _______ _______ _______ _____ _____    ______ ____
ROOT
ATOM      1  C   UNL     1       3.572   3.712   0.000  0.00  0.00    +0.000 C 
ENDROOT
BRANCH   1   7
ATOM      2  C   UNL     1       3.572   1.238   0.000  0.00  0.00    +0.000 A 
ATOM      3  C   UNL     1       4.287   1.650   0.000  0.00  0.00    +0.000 A 
ATOM      4  C   UNL     1       2.858   1.650   0.000  0.00  0.00    +0.000 A 
ATOM      5  C   UNL     1       4.287   2.475   0.000  0.00  0.00    +0.000 A 
ATOM      6  C   UNL     1       2.858   2.475   0.000  0.00  0.00    +0.000 A 
ATOM      7  C   UNL     1       3.572   2.888   0.000  0.00  0.00    +0.000 A 
ENDBRANCH   1   7
BRANCH   1  13
ATOM      8  C   UNL     1       3.572   6.188   0.000  0.00  0.00    +0.000 A 
ATOM      9  C   UNL     1       2.858   5.775   0.000  0.00  0.00    +0.000 A 
ATOM     10  C   UNL     1       4.287   5.775   0.000  0.00  0.00    +0.000 A 
ATOM     11  C   UNL     1       2.858   4.950   0.000  0.00  0.00    +0.000 A 
ATOM     12  C   UNL     1       4.287   4.950   0.000  0.00  0.00    +0.000 A 
ATOM     13  C   UNL     1       3.572   4.537   0.000  0.00  0.00    +0.000 A 
ENDBRANCH   1  13
BRANCH   1  14
ATOM     14  C   UNL     1       2.747   3.712   0.000  0.00  0.00    +0.000 C 
ATOM     15  O   UNL     1       2.335   4.427   0.000  0.00  0.00    +0.000 OA
BRANCH  14  17
ATOM     16  C   UNL     1       1.510   2.998   0.000  0.00  0.00    +0.000 C 
ATOM     17  C   UNL     1       2.335   2.998   0.000  0.00  0.00    +0.000 C 
ENDBRANCH  14  17
ENDBRANCH   1  14
BRANCH   1  18
ATOM     18  C   UNL     1       4.397   3.712   0.000  0.00  0.00    +0.000 C 
BRANCH  18  19
ATOM     19  C   UNL     1       4.810   4.427   0.000  0.00  0.00    +0.000 C 
BRANCH  19  22
ATOM     20  C   UNL     1       6.047   5.141   0.000  0.00  0.00    +0.000 C 
ATOM     21  C   UNL     1       6.047   3.712   0.000  0.00  0.00    +0.000 C 
ATOM     22  N   UNL     1       5.635   4.427   0.000  0.00  0.00    +0.000 NA
ENDBRANCH  19  22
ENDBRANCH  18  19
ENDBRANCH   1  18
TORSDOF 7
