REMARK  Name = 
REMARK  9 active torsions:
REMARK  status: ('A' for Active; 'I' for Inactive)
REMARK    1  A    between atoms: N_4  and  C_9
REMARK    2  A    between atoms: C_5  and  C_6
REMARK    3  A    between atoms: C_6  and  C_9
REMARK    4  A    between atoms: C_9  and  C_13
REMARK    5  A    between atoms: C_13  and  C_14
REMARK    6  A    between atoms: C_14  and  C_15
REMARK    7  A    between atoms: C_15  and  C_16
REMARK    8  A    between atoms: C_15  and  C_18
REMARK    9  A    between atoms: C_16  and  C_17
REMARK                            x       y       z     vdW  Elec       q    Type
REMARK                         _______ _______ _______ _____ _____    ______ ____
ROOT
ATOM      1  C   UNL     1      -0.357  -0.412   0.000  0.00  0.00    +0.000 C 
ENDROOT
BRANCH   1   2
ATOM      2  N   UNL     1       0.357  -0.825   0.000  0.00  0.00    +0.000 NA
ATOM      3  H   UNL     1       0.357  -1.337   0.000  0.00  0.00    +0.000 HD
ATOM      4  H   UNL     1       0.800  -0.569   0.000  0.00  0.00    +0.000 HD
ENDBRANCH   1   2
BRANCH   1   6
ATOM      5  O   UNL     1      -1.072   0.825   0.000  0.00  0.00    +0.000 OA
ATOM      6  C   UNL     1      -0.357   0.412   0.000  0.00  0.00    +0.000 C 
BRANCH   6   7
ATOM      7  C   UNL     1       0.357   0.825   0.000  0.00  0.00    +0.000 C 
BRANCH   7   8
ATOM      8  C   UNL     1       0.357   1.650   0.000  0.00  0.00    +0.000 C 
BRANCH   8  11
ATOM      9  O   UNL     1       1.072   2.888   0.000  0.00  0.00    +0.000 OA
ATOM     10  O   UNL     1       1.786   1.650   0.000  0.00  0.00    +0.000 OA
ATOM     11  C   UNL     1       1.072   2.062   0.000  0.00  0.00    +0.000 C 
ENDBRANCH   8  11
BRANCH   8  12
ATOM     12  C   UNL     1      -0.357   2.062   0.000  0.00  0.00    +0.000 C 
BRANCH  12  13
ATOM     13  C   UNL     1      -0.357   2.888   0.000  0.00  0.00    +0.000 C 
ATOM     14  C   UNL     1      -1.072   3.300   0.000  0.00  0.00    +0.000 C 
ATOM     15  C   UNL     1       0.357   3.300   0.000  0.00  0.00    +0.000 C 
ENDBRANCH  12  13
ENDBRANCH   8  12
ENDBRANCH   7   8
ENDBRANCH   6   7
ENDBRANCH   1   6
BRANCH   1  16
ATOM     16  C   UNL     1      -1.072  -0.825   0.000  0.00  0.00    +0.000 C 
BRANCH  16  17
ATOM     17  C   UNL     1      -1.072  -1.650   0.000  0.00  0.00    +0.000 C 
ATOM     18  C   UNL     1      -1.786  -2.062   0.000  0.00  0.00    +0.000 C 
ATOM     19  C   UNL     1      -0.357  -2.062   0.000  0.00  0.00    +0.000 C 
ATOM     20  C   UNL     1      -1.786  -2.888   0.000  0.00  0.00    +0.000 C 
ATOM     21  C   UNL     1      -0.357  -2.888   0.000  0.00  0.00    +0.000 C 
ATOM     22  C   UNL     1      -1.072  -3.300   0.000  0.00  0.00    +0.000 C 
ENDBRANCH  16  17
ENDBRANCH   1  16
TORSDOF 9
