REMARK  Name = 
REMARK  5 active torsions:
REMARK  status: ('A' for Active; 'I' for Inactive)
REMARK    1  A    between atoms: N_5  and  S_8
REMARK    2  A    between atoms: S_8  and  C_11
REMARK    3  A    between atoms: C_15  and  C_17
REMARK    4  A    between atoms: N_19  and  N_20
REMARK    5  A    between atoms: C_21  and  C_23
REMARK                            x       y       z     vdW  Elec       q    Type
REMARK                         _______ _______ _______ _____ _____    ______ ____
ROOT
ATOM      1  C   UNL     1       2.143  -8.662   0.000  0.00  0.00    +0.000 A 
ATOM      2  C   UNL     1       2.858  -9.075   0.000  0.00  0.00    +0.000 A 
ATOM      3  C   UNL     1       2.858  -9.900   0.000  0.00  0.00    +0.000 A 
ATOM      4  C   UNL     1       2.143 -10.312   0.000  0.00  0.00    +0.000 A 
ATOM      5  C   UNL     1       1.429  -9.900   0.000  0.00  0.00    +0.000 A 
ATOM      6  C   UNL     1       1.429  -9.075   0.000  0.00  0.00    +0.000 A 
ENDROOT
BRANCH   1   7
ATOM      7  S   UNL     1       2.143  -7.838   0.000  0.00  0.00    +0.000 S 
ATOM      8  O   UNL     1       1.318  -7.838   0.000  0.00  0.00    +0.000 OA
ATOM      9  O   UNL     1       2.968  -7.838   0.000  0.00  0.00    +0.000 OA
BRANCH   7  14
ATOM     10  C   UNL     1       2.143  -4.537   0.000  0.00  0.00    +0.000 C 
ATOM     11  N   UNL     1       2.143  -5.362   0.000  0.00  0.00    +0.000 NA
ATOM     12  C   UNL     1       2.858  -5.775   0.000  0.00  0.00    +0.000 C 
ATOM     13  C   UNL     1       2.858  -6.600   0.000  0.00  0.00    +0.000 C 
ATOM     14  N   UNL     1       2.143  -7.013   0.000  0.00  0.00    +0.000 NA
ATOM     15  C   UNL     1       1.429  -6.600   0.000  0.00  0.00    +0.000 C 
ATOM     16  C   UNL     1       1.429  -5.775   0.000  0.00  0.00    +0.000 C 
ENDBRANCH   7  14
ENDBRANCH   1   7
BRANCH   5  17
ATOM     17  C   UNL     1       0.715 -10.312   0.000  0.00  0.00    +0.000 C 
ATOM     18  O   UNL     1       0.715 -11.137   0.000  0.00  0.00    +0.000 OA
ATOM     19  N   UNL     1       0.000  -9.900   0.000  0.00  0.00    +0.000 NA
BRANCH  19  20
ATOM     20  N   UNL     1      -0.715 -10.312   0.000  0.00  0.00    +0.000 NA
ATOM     21  C   UNL     1      -1.429  -9.900   0.000  0.00  0.00    +0.000 C 
ATOM     22  C   UNL     1      -1.429  -9.075   0.000  0.00  0.00    +0.000 C 
BRANCH  21  23
ATOM     23  C   UNL     1      -2.143 -10.312   0.000  0.00  0.00    +0.000 A 
ATOM     24  C   UNL     1      -2.143 -11.137   0.000  0.00  0.00    +0.000 A 
ATOM     25  O   UNL     1      -1.429 -11.550   0.000  0.00  0.00    +0.000 OA
ATOM     26  C   UNL     1      -2.858 -11.550   0.000  0.00  0.00    +0.000 A 
ATOM     27  C   UNL     1      -3.572 -11.137   0.000  0.00  0.00    +0.000 A 
ATOM     28  C   UNL     1      -3.572 -10.312   0.000  0.00  0.00    +0.000 A 
ATOM     29 CL   UNL     1      -4.287  -9.900   0.000  0.00  0.00    +0.000 Cl
ATOM     30  C   UNL     1      -2.858  -9.900   0.000  0.00  0.00    +0.000 A 
ENDBRANCH  21  23
ENDBRANCH  19  20
ENDBRANCH   5  17
TORSDOF 5
