REMARK  Name = 
REMARK  4 active torsions:
REMARK  status: ('A' for Active; 'I' for Inactive)
REMARK    1  A    between atoms: O_2  and  C_3
REMARK    2  A    between atoms: C_3  and  C_5
REMARK    3  A    between atoms: C_5  and  C_6
REMARK    4  A    between atoms: C_6  and  C_7
REMARK                            x       y       z     vdW  Elec       q    Type
REMARK                         _______ _______ _______ _____ _____    ______ ____
ROOT
ATOM      1  C   UNL     1       3.572  -2.888   0.000  0.00  0.00    +0.000 A 
ATOM      2  C   UNL     1       4.287  -2.475   0.000  0.00  0.00    +0.000 A 
ATOM      3  C   UNL     1       5.001  -2.888   0.000  0.00  0.00    +0.000 A 
ATOM      4  C   UNL     1       5.001  -3.712   0.000  0.00  0.00    +0.000 A 
ATOM      5  C   UNL     1       4.287  -4.125   0.000  0.00  0.00    +0.000 A 
ATOM      6  C   UNL     1       3.572  -3.712   0.000  0.00  0.00    +0.000 A 
ATOM      7  O   UNL     1       4.287  -4.950   0.000  0.00  0.00    +0.000 OA
ATOM      8  O   UNL     1       5.716  -4.125   0.000  0.00  0.00    +0.000 OA
ENDROOT
BRANCH   1   9
ATOM      9  C   UNL     1       2.858  -2.475   0.000  0.00  0.00    +0.000 C 
BRANCH   9  10
ATOM     10  C   UNL     1       2.143  -2.888   0.000  0.00  0.00    +0.000 C 
ATOM     11  N   UNL     1       2.143  -3.712   0.000  0.00  0.00    +0.000 NA
BRANCH  10  12
ATOM     12  C   UNL     1       1.429  -2.475   0.000  0.00  0.00    +0.000 C 
ATOM     13  O   UNL     1       1.429  -1.650   0.000  0.00  0.00    +0.000 OA
BRANCH  12  15
ATOM     14  C   UNL     1       0.000  -2.475   0.000  0.00  0.00    +0.000 C 
ATOM     15  O   UNL     1       0.715  -2.888   0.000  0.00  0.00    +0.000 OA
ENDBRANCH  12  15
ENDBRANCH  10  12
ENDBRANCH   9  10
ENDBRANCH   1   9
TORSDOF 4
