REMARK  Name = 
REMARK  7 active torsions:
REMARK  status: ('A' for Active; 'I' for Inactive)
REMARK    1  A    between atoms: C_9  and  C_11
REMARK    2  A    between atoms: C_11  and  N_12
REMARK    3  A    between atoms: N_12  and  C_13
REMARK    4  A    between atoms: C_13  and  C_14
REMARK    5  A    between atoms: C_14  and  C_15
REMARK    6  A    between atoms: C_15  and  C_16
REMARK    7  A    between atoms: C_16  and  N_17
REMARK                            x       y       z     vdW  Elec       q    Type
REMARK                         _______ _______ _______ _____ _____    ______ ____
ROOT
ATOM      1  C   UNL     1       3.572   2.062   0.000  0.00  0.00    +0.000 C 
ENDROOT
BRANCH   1   2
ATOM      2  C   UNL     1       2.858   1.650   0.000  0.00  0.00    +0.000 C 
BRANCH   2   3
ATOM      3  N   UNL     1       2.143   2.062   0.000  0.00  0.00    +0.000 NA
BRANCH   3   4
ATOM      4  C   UNL     1       1.429   1.650   0.000  0.00  0.00    +0.000 C 
BRANCH   4  13
ATOM      5  C   UNL     1      -2.143   2.888   0.000  0.00  0.00    +0.000 A 
ATOM      6  C   UNL     1      -2.143   2.062   0.000  0.00  0.00    +0.000 A 
ATOM      7  C   UNL     1      -1.429   1.650   0.000  0.00  0.00    +0.000 A 
ATOM      8  C   UNL     1      -0.715   2.062   0.000  0.00  0.00    +0.000 A 
ATOM      9  C   UNL     1      -0.715   2.888   0.000  0.00  0.00    +0.000 A 
ATOM     10  C   UNL     1      -1.429   3.300   0.000  0.00  0.00    +0.000 A 
ATOM     11  C   UNL     1       0.000   3.300   0.000  0.00  0.00    +0.000 C 
ATOM     12  C   UNL     1       0.715   2.888   0.000  0.00  0.00    +0.000 C 
ATOM     13  C   UNL     1       0.715   2.062   0.000  0.00  0.00    +0.000 C 
ATOM     14  O   UNL     1       0.000   1.650   0.000  0.00  0.00    +0.000 OA
ENDBRANCH   4  13
ENDBRANCH   3   4
ENDBRANCH   2   3
ENDBRANCH   1   2
BRANCH   1  15
ATOM     15  C   UNL     1       4.287   1.650   0.000  0.00  0.00    +0.000 C 
BRANCH  15  16
ATOM     16  C   UNL     1       5.001   2.062   0.000  0.00  0.00    +0.000 C 
BRANCH  16  17
ATOM     17  N   UNL     1       5.716   1.650   0.000  0.00  0.00    +0.000 N 
ATOM     18  C   UNL     1       6.469   1.986   0.000  0.00  0.00    +0.000 C 
ATOM     19  O   UNL     1       6.641   2.792   0.000  0.00  0.00    +0.000 OA
ATOM     20  C   UNL     1       7.021   1.373   0.000  0.00  0.00    +0.000 A 
ATOM     21  C   UNL     1       7.846   1.373   0.000  0.00  0.00    +0.000 A 
ATOM     22  C   UNL     1       8.259   0.658   0.000  0.00  0.00    +0.000 A 
ATOM     23  C   UNL     1       7.846  -0.057   0.000  0.00  0.00    +0.000 A 
ATOM     24  C   UNL     1       7.021  -0.057   0.000  0.00  0.00    +0.000 A 
ATOM     25  C   UNL     1       6.609   0.658   0.000  0.00  0.00    +0.000 A 
ATOM     26  S   UNL     1       5.802   0.830   0.000  0.00  0.00    +0.000 S 
ATOM     27  O   UNL     1       5.539   0.048   0.000  0.00  0.00    +0.000 OA
ATOM     28  O   UNL     1       4.997   0.650   0.000  0.00  0.00    +0.000 OA
ENDBRANCH  16  17
ENDBRANCH  15  16
ENDBRANCH   1  15
TORSDOF 7
