REMARK  Name = 
REMARK  31 active torsions:
REMARK  status: ('A' for Active; 'I' for Inactive)
REMARK    1  A    between atoms: C_2  and  C_3
REMARK    2  A    between atoms: C_3  and  C_4
REMARK    3  A    between atoms: C_4  and  C_5
REMARK    4  A    between atoms: C_5  and  C_6
REMARK    5  A    between atoms: C_6  and  C_7
REMARK    6  A    between atoms: C_7  and  C_8
REMARK    7  A    between atoms: C_8  and  C_9
REMARK    8  A    between atoms: C_9  and  C_10
REMARK    9  A    between atoms: C_10  and  C_11
REMARK   10  A    between atoms: C_11  and  C_12
REMARK   11  A    between atoms: C_12  and  S_13
REMARK   12  A    between atoms: S_13  and  C_14
REMARK   13  A    between atoms: C_14  and  C_15
REMARK   14  A    between atoms: C_15  and  C_16
REMARK   15  A    between atoms: C_15  and  O_40
REMARK   16  A    between atoms: C_16  and  O_17
REMARK   17  A    between atoms: O_17  and  P_18
REMARK   18  A    between atoms: P_18  and  O_21
REMARK   19  A    between atoms: O_21  and  C_22
REMARK   20  A    between atoms: C_22  and  C_23
REMARK   21  A    between atoms: C_24  and  N_37
REMARK   22  A    between atoms: C_26  and  N_28
REMARK   23  A    between atoms: O_40  and  C_41
REMARK   24  A    between atoms: C_41  and  C_42
REMARK   25  A    between atoms: C_42  and  C_43
REMARK   26  A    between atoms: C_43  and  C_44
REMARK   27  A    between atoms: C_44  and  C_45
REMARK   28  A    between atoms: C_45  and  C_46
REMARK   29  A    between atoms: C_46  and  C_47
REMARK   30  A    between atoms: C_47  and  C_48
REMARK   31  A    between atoms: C_48  and  C_49
REMARK                            x       y       z     vdW  Elec       q    Type
REMARK                         _______ _______ _______ _____ _____    ______ ____
ROOT
ATOM      1  C   UNL     1      10.931 -11.319   0.000  0.00  0.00    +0.000 C 
ENDROOT
BRANCH   1   2
ATOM      2  C   UNL     1      10.107 -11.276   0.000  0.00  0.00    +0.000 C 
BRANCH   2   3
ATOM      3  S   UNL     1       9.658 -11.968   0.000  0.00  0.00    +0.000 S 
BRANCH   3   4
ATOM      4  C   UNL     1       8.834 -11.925   0.000  0.00  0.00    +0.000 C 
BRANCH   4   5
ATOM      5  C   UNL     1       8.385 -12.616   0.000  0.00  0.00    +0.000 C 
BRANCH   5   6
ATOM      6  C   UNL     1       7.561 -12.573   0.000  0.00  0.00    +0.000 C 
BRANCH   6   7
ATOM      7  C   UNL     1       7.112 -13.265   0.000  0.00  0.00    +0.000 C 
BRANCH   7   8
ATOM      8  C   UNL     1       6.288 -13.222   0.000  0.00  0.00    +0.000 C 
BRANCH   8   9
ATOM      9  C   UNL     1       5.838 -13.914   0.000  0.00  0.00    +0.000 C 
BRANCH   9  10
ATOM     10  C   UNL     1       5.014 -13.870   0.000  0.00  0.00    +0.000 C 
BRANCH  10  11
ATOM     11  C   UNL     1       4.565 -14.562   0.000  0.00  0.00    +0.000 C 
BRANCH  11  12
ATOM     12  C   UNL     1       3.741 -14.519   0.000  0.00  0.00    +0.000 C 
BRANCH  12  13
ATOM     13  C   UNL     1       3.292 -15.211   0.000  0.00  0.00    +0.000 C 
BRANCH  13  15
ATOM     14  C   UNL     1       2.018 -15.860   0.000  0.00  0.00    +0.000 C 
ATOM     15  C   UNL     1       2.468 -15.168   0.000  0.00  0.00    +0.000 C 
ENDBRANCH  13  15
ENDBRANCH  12  13
ENDBRANCH  11  12
ENDBRANCH  10  11
ENDBRANCH   9  10
ENDBRANCH   8   9
ENDBRANCH   7   8
ENDBRANCH   6   7
ENDBRANCH   5   6
ENDBRANCH   4   5
ENDBRANCH   3   4
ENDBRANCH   2   3
ENDBRANCH   1   2
BRANCH   1  16
ATOM     16  C   UNL     1      11.381 -10.627   0.000  0.00  0.00    +0.000 C 
BRANCH  16  17
ATOM     17  O   UNL     1      12.204 -10.671   0.000  0.00  0.00    +0.000 OA
BRANCH  17  18
ATOM     18  P   UNL     1      12.654  -9.979   0.000  0.00  0.00    +0.000 P 
ATOM     19  O   UNL     1      13.346 -10.428   0.000  0.00  0.00    +0.000 OA
ATOM     20  O   UNL     1      11.962  -9.529   0.000  0.00  0.00    +0.000 OA
BRANCH  18  21
ATOM     21  O   UNL     1      13.103  -9.287   0.000  0.00  0.00    +0.000 OA
BRANCH  21  22
ATOM     22  C   UNL     1      13.927  -9.330   0.000  0.00  0.00    +0.000 C 
BRANCH  22  23
ATOM     23  C   UNL     1      14.377  -8.638   0.000  0.00  0.00    +0.000 C 
ATOM     24  C   UNL     1      14.081  -7.868   0.000  0.00  0.00    +0.000 C 
ATOM     25  C   UNL     1      14.722  -7.349   0.000  0.00  0.00    +0.000 C 
ATOM     26  C   UNL     1      15.414  -7.798   0.000  0.00  0.00    +0.000 C 
ATOM     27  O   UNL     1      15.200  -8.595   0.000  0.00  0.00    +0.000 OA
BRANCH  26  28
ATOM     28  N   UNL     1      16.184  -7.503   0.000  0.00  0.00    +0.000 N 
ATOM     29  C   UNL     1      16.313  -6.688   0.000  0.00  0.00    +0.000 A 
ATOM     30  C   UNL     1      17.084  -6.392   0.000  0.00  0.00    +0.000 A 
ATOM     31  C   UNL     1      17.725  -6.911   0.000  0.00  0.00    +0.000 A 
ATOM     32  O   UNL     1      18.495  -6.616   0.000  0.00  0.00    +0.000 OA
ATOM     33  N   UNL     1      17.596  -7.726   0.000  0.00  0.00    +0.000 NA
ATOM     34  C   UNL     1      16.825  -8.022   0.000  0.00  0.00    +0.000 A 
ATOM     35  O   UNL     1      16.696  -8.837   0.000  0.00  0.00    +0.000 OA
ATOM     36  C   UNL     1      17.213  -5.577   0.000  0.00  0.00    +0.000 C 
ENDBRANCH  26  28
BRANCH  24  37
ATOM     37  N   UNL     1      13.284  -7.654   0.000  0.00  0.00    +0.000 NA
ATOM     38  N   UNL     1      13.071  -6.857   0.000  0.00  0.00    +0.000 NA
ATOM     39  N   UNL     1      12.857  -6.061   0.000  0.00  0.00    +0.000 NA
ENDBRANCH  24  37
ENDBRANCH  22  23
ENDBRANCH  21  22
ENDBRANCH  18  21
ENDBRANCH  17  18
ENDBRANCH  16  17
ENDBRANCH   1  16
BRANCH   1  40
ATOM     40  O   UNL     1      11.306 -12.054   0.000  0.00  0.00    +0.000 OA
BRANCH  40  41
ATOM     41  C   UNL     1      12.130 -12.097   0.000  0.00  0.00    +0.000 C 
BRANCH  41  42
ATOM     42  C   UNL     1      12.504 -12.832   0.000  0.00  0.00    +0.000 C 
BRANCH  42  43
ATOM     43  C   UNL     1      13.328 -12.876   0.000  0.00  0.00    +0.000 C 
BRANCH  43  44
ATOM     44  C   UNL     1      13.702 -13.611   0.000  0.00  0.00    +0.000 C 
BRANCH  44  45
ATOM     45  C   UNL     1      14.526 -13.654   0.000  0.00  0.00    +0.000 C 
BRANCH  45  46
ATOM     46  C   UNL     1      14.901 -14.389   0.000  0.00  0.00    +0.000 C 
BRANCH  46  47
ATOM     47  C   UNL     1      15.725 -14.432   0.000  0.00  0.00    +0.000 C 
BRANCH  47  48
ATOM     48  C   UNL     1      16.099 -15.168   0.000  0.00  0.00    +0.000 C 
BRANCH  48  49
ATOM     49  C   UNL     1      16.923 -15.211   0.000  0.00  0.00    +0.000 C 
ATOM     50  C   UNL     1      17.297 -15.946   0.000  0.00  0.00    +0.000 C 
ENDBRANCH  48  49
ENDBRANCH  47  48
ENDBRANCH  46  47
ENDBRANCH  45  46
ENDBRANCH  44  45
ENDBRANCH  43  44
ENDBRANCH  42  43
ENDBRANCH  41  42
ENDBRANCH  40  41
ENDBRANCH   1  40
TORSDOF 31
