REMARK  Name = 
REMARK  0 active torsions:
REMARK  status: ('A' for Active; 'I' for Inactive)
REMARK                            x       y       z     vdW  Elec       q    Type
REMARK                         _______ _______ _______ _____ _____    ______ ____
ROOT
ATOM      1  N   UNL     1      -0.985   0.012   0.000  0.00  0.00    +0.000 NA
ATOM      2  C   UNL     1      -0.985  -0.817   0.000  0.00  0.00    +0.000 A 
ATOM      3  N   UNL     1      -0.266  -1.226   0.000  0.00  0.00    +0.000 NA
ATOM      4  C   UNL     1       0.440  -0.817   0.000  0.00  0.00    +0.000 A 
ATOM      5  C   UNL     1       0.440   0.012   0.000  0.00  0.00    +0.000 A 
ATOM      6  C   UNL     1      -0.266   0.409   0.000  0.00  0.00    +0.000 A 
ATOM      7  N   UNL     1       1.220   0.260   0.000  0.00  0.00    +0.000 NA
ATOM      8  N   UNL     1       1.703  -0.409   0.000  0.00  0.00    +0.000 NA
ATOM      9  N   UNL     1       1.220  -1.077   0.000  0.00  0.00    +0.000 NA
ATOM     10  O   UNL     1      -1.703  -1.238   0.000  0.00  0.00    +0.000 OA
ATOM     11  O   UNL     1      -0.266   1.238   0.000  0.00  0.00    +0.000 OA
ENDROOT
TORSDOF 0
