REMARK  Name = 
REMARK  1 active torsions:
REMARK  status: ('A' for Active; 'I' for Inactive)
REMARK    1  A    between atoms: C_18  and  C_42
REMARK                            x       y       z     vdW  Elec       q    Type
REMARK                         _______ _______ _______ _____ _____    ______ ____
ROOT
ATOM      1  O   UNL     1      -4.368   1.491   0.000  0.00  0.00    +0.000 OA
ATOM      2  C   UNL     1      -3.578   1.727   0.000  0.00  0.00    +0.000 C 
ATOM      3  C   UNL     1      -3.555   2.551   0.000  0.00  0.00    +0.000 C 
ATOM      4  C   UNL     1      -4.336   2.827   0.000  0.00  0.00    +0.000 C 
ATOM      5  C   UNL     1      -4.834   2.171   0.000  0.00  0.00    +0.000 C 
ATOM      6  C   UNL     1      -2.862   1.320   0.000  0.00  0.00    +0.000 C 
ATOM      7  C   UNL     1      -2.150   1.728   0.000  0.00  0.00    +0.000 C 
ATOM      8  C   UNL     1      -2.150   2.553   0.000  0.00  0.00    +0.000 C 
ATOM      9  C   UNL     1      -2.862   2.970   0.000  0.00  0.00    +0.000 C 
ATOM     10  C   UNL     1      -5.745   6.295   0.000  0.00  0.00    +0.000 C 
ATOM     11  C   UNL     1      -4.983   6.666   0.000  0.00  0.00    +0.000 C 
ATOM     12  C   UNL     1      -4.270   6.258   0.000  0.00  0.00    +0.000 C 
ATOM     13  C   UNL     1      -3.558   6.670   0.000  0.00  0.00    +0.000 C 
ATOM     14  C   UNL     1      -2.845   6.262   0.000  0.00  0.00    +0.000 C 
ATOM     15  C   UNL     1      -1.421   7.087   0.000  0.00  0.00    +0.000 C 
ATOM     16  C   UNL     1      -1.421   6.262   0.000  0.00  0.00    +0.000 C 
ATOM     17  O   UNL     1      -0.709   5.853   0.000  0.00  0.00    +0.000 OA
ATOM     18  C   UNL     1       0.003   6.262   0.000  0.00  0.00    +0.000 C 
ATOM     19  C   UNL     1       0.003   7.087   0.000  0.00  0.00    +0.000 C 
ATOM     20  C   UNL     1      -0.709   7.503   0.000  0.00  0.00    +0.000 C 
ATOM     21  C   UNL     1      -2.845   5.437   0.000  0.00  0.00    +0.000 C 
ATOM     22  C   UNL     1      -2.133   5.028   0.000  0.00  0.00    +0.000 C 
ATOM     23  C   UNL     1      -1.421   5.437   0.000  0.00  0.00    +0.000 C 
ATOM     24  O   UNL     1      -2.133   6.678   0.000  0.00  0.00    +0.000 OA
ATOM     25  C   UNL     1      -5.011   7.491   0.000  0.00  0.00    +0.000 C 
ATOM     26  C   UNL     1       0.713   7.503   0.000  0.00  0.00    +0.000 C 
ATOM     27  O   UNL     1      -2.141   4.203   0.000  0.00  0.00    +0.000 OA
ATOM     28  C   UNL     1      -2.858   3.795   0.000  0.00  0.00    +0.000 C 
ATOM     29  O   UNL     1      -3.574   4.207   0.000  0.00  0.00    +0.000 OA
ATOM     30  C   UNL     1      -1.441   1.316   0.000  0.00  0.00    +0.000 C 
ATOM     31  N   UNL     1      -2.866   0.495   0.000  0.00  0.00    +0.000 NA
ATOM     32  C   UNL     1      -4.341   3.653   0.000  0.00  0.00    +0.000 C 
ATOM     33  C   UNL     1      -5.058   4.066   0.000  0.00  0.00    +0.000 C 
ATOM     34  C   UNL     1      -5.062   4.891   0.000  0.00  0.00    +0.000 C 
ATOM     35  C   UNL     1      -5.779   5.303   0.000  0.00  0.00    +0.000 C 
ATOM     36  C   UNL     1      -6.495   4.895   0.000  0.00  0.00    +0.000 C 
ATOM     37  O   UNL     1      -3.562   3.378   0.000  0.00  0.00    +0.000 OA
ATOM     38  O   UNL     1      -3.450  -0.088   0.000  0.00  0.00    +0.000 OA
ENDROOT
BRANCH  18  39
ATOM     39  C   UNL     1       0.717   5.848   0.000  0.00  0.00    +0.000 C 
ATOM     40  C   UNL     1       1.432   6.260   0.000  0.00  0.00    +0.000 C 
ENDBRANCH  18  39
TORSDOF 1
REMARK  Name = 
REMARK  1 active torsions:
REMARK  status: ('A' for Active; 'I' for Inactive)
REMARK    1  A    between atoms: C_18  and  C_42
REMARK                            x       y       z     vdW  Elec       q    Type
REMARK                         _______ _______ _______ _____ _____    ______ ____
ROOT
ATOM      1  O   UNL     1       1.410  -5.924   0.000  0.00  0.00    +0.000 OA
ATOM      2  C   UNL     1       2.201  -5.688   0.000  0.00  0.00    +0.000 C 
ATOM      3  C   UNL     1       2.223  -4.864   0.000  0.00  0.00    +0.000 C 
ATOM      4  C   UNL     1       1.443  -4.588   0.000  0.00  0.00    +0.000 C 
ATOM      5  C   UNL     1       0.945  -5.245   0.000  0.00  0.00    +0.000 C 
ATOM      6  C   UNL     1       2.917  -6.095   0.000  0.00  0.00    +0.000 C 
ATOM      7  C   UNL     1       3.629  -5.687   0.000  0.00  0.00    +0.000 C 
ATOM      8  C   UNL     1       3.629  -4.862   0.000  0.00  0.00    +0.000 C 
ATOM      9  C   UNL     1       2.917  -4.445   0.000  0.00  0.00    +0.000 C 
ATOM     10  C   UNL     1       0.033  -1.120   0.000  0.00  0.00    +0.000 C 
ATOM     11  C   UNL     1       0.796  -0.749   0.000  0.00  0.00    +0.000 C 
ATOM     12  C   UNL     1       1.508  -1.157   0.000  0.00  0.00    +0.000 C 
ATOM     13  C   UNL     1       2.221  -0.745   0.000  0.00  0.00    +0.000 C 
ATOM     14  C   UNL     1       2.933  -1.153   0.000  0.00  0.00    +0.000 C 
ATOM     15  C   UNL     1       4.357  -0.328   0.000  0.00  0.00    +0.000 C 
ATOM     16  C   UNL     1       4.357  -1.153   0.000  0.00  0.00    +0.000 C 
ATOM     17  O   UNL     1       5.069  -1.562   0.000  0.00  0.00    +0.000 OA
ATOM     18  C   UNL     1       5.781  -1.153   0.000  0.00  0.00    +0.000 C 
ATOM     19  C   UNL     1       5.781  -0.328   0.000  0.00  0.00    +0.000 C 
ATOM     20  C   UNL     1       5.069   0.088   0.000  0.00  0.00    +0.000 C 
ATOM     21  C   UNL     1       2.933  -1.978   0.000  0.00  0.00    +0.000 C 
ATOM     22  C   UNL     1       3.645  -2.387   0.000  0.00  0.00    +0.000 C 
ATOM     23  C   UNL     1       4.357  -1.978   0.000  0.00  0.00    +0.000 C 
ATOM     24  O   UNL     1       3.645  -0.737   0.000  0.00  0.00    +0.000 OA
ATOM     25  C   UNL     1       0.767   0.076   0.000  0.00  0.00    +0.000 C 
ATOM     26  C   UNL     1       6.492   0.088   0.000  0.00  0.00    +0.000 C 
ATOM     27  O   UNL     1       3.638  -3.212   0.000  0.00  0.00    +0.000 OA
ATOM     28  C   UNL     1       2.921  -3.620   0.000  0.00  0.00    +0.000 C 
ATOM     29  O   UNL     1       2.204  -3.208   0.000  0.00  0.00    +0.000 OA
ATOM     30  C   UNL     1       4.338  -6.099   0.000  0.00  0.00    +0.000 C 
ATOM     31  N   UNL     1       2.913  -6.920   0.000  0.00  0.00    +0.000 NA
ATOM     32  C   UNL     1       1.438  -3.762   0.000  0.00  0.00    +0.000 C 
ATOM     33  C   UNL     1       0.721  -3.349   0.000  0.00  0.00    +0.000 C 
ATOM     34  C   UNL     1       0.717  -2.524   0.000  0.00  0.00    +0.000 C 
ATOM     35  C   UNL     1       0.000  -2.112   0.000  0.00  0.00    +0.000 C 
ATOM     36  C   UNL     1      -0.717  -2.520   0.000  0.00  0.00    +0.000 C 
ATOM     37  O   UNL     1       2.217  -4.037   0.000  0.00  0.00    +0.000 OA
ATOM     38  O   UNL     1       2.329  -7.503   0.000  0.00  0.00    +0.000 OA
ATOM     39  C   UNL     1       6.495  -1.567   0.000  0.00  0.00    +0.000 C 
ENDROOT
TORSDOF 0
