REMARK  Name = 
REMARK  2 active torsions:
REMARK  status: ('A' for Active; 'I' for Inactive)
REMARK    1  A    between atoms: C_1  and  C_8
REMARK    2  A    between atoms: C_15  and  S_19
REMARK                            x       y       z     vdW  Elec       q    Type
REMARK                         _______ _______ _______ _____ _____    ______ ____
ROOT
ATOM      1  C   UNL     1       1.072  -0.151   0.000  0.00  0.00    +0.000 C 
ATOM      2  N   UNL     1       1.072   0.674   0.000  0.00  0.00    +0.000 NA
ATOM      3  S   UNL     1       0.357   1.086   0.000  0.00  0.00    +0.000 S 
ATOM      4  C   UNL     1      -0.357   0.674   0.000  0.00  0.00    +0.000 A 
ATOM      5  C   UNL     1      -0.357  -0.151   0.000  0.00  0.00    +0.000 A 
ATOM      6  N   UNL     1       0.357  -0.563   0.000  0.00  0.00    +0.000 NA
ATOM      7  C   UNL     1      -1.072   1.086   0.000  0.00  0.00    +0.000 A 
ATOM      8  C   UNL     1      -1.786   0.674   0.000  0.00  0.00    +0.000 A 
ATOM      9  C   UNL     1      -1.786  -0.151   0.000  0.00  0.00    +0.000 A 
ATOM     10  C   UNL     1      -1.072  -0.563   0.000  0.00  0.00    +0.000 A 
ATOM     11 CL   UNL     1      -2.501  -0.563   0.000  0.00  0.00    +0.000 Cl
ATOM     12  O   UNL     1      -0.055   1.801   0.000  0.00  0.00    +0.000 OA
ATOM     13  O   UNL     1       0.770   1.801   0.000  0.00  0.00    +0.000 OA
ENDROOT
BRANCH   1  14
ATOM     14  C   UNL     1       1.786  -0.563   0.000  0.00  0.00    +0.000 C 
ATOM     15  C   UNL     1       2.501  -0.151   0.000  0.00  0.00    +0.000 C 
ATOM     16  C   UNL     1       3.215  -0.563   0.000  0.00  0.00    +0.000 C 
ATOM     17  C   UNL     1       3.215  -1.389   0.000  0.00  0.00    +0.000 C 
ATOM     18  C   UNL     1       2.501  -1.801   0.000  0.00  0.00    +0.000 C 
ATOM     19  C   UNL     1       1.786  -1.389   0.000  0.00  0.00    +0.000 C 
ATOM     20  C   UNL     1       2.164  -0.976   0.000  0.00  0.00    +0.000 C 
ENDBRANCH   1  14
BRANCH   8  21
ATOM     21  S   UNL     1      -2.501   1.086   0.000  0.00  0.00    +0.000 S 
ATOM     22  O   UNL     1      -2.088   1.801   0.000  0.00  0.00    +0.000 OA
ATOM     23  O   UNL     1      -2.913   1.801   0.000  0.00  0.00    +0.000 OA
ATOM     24  N   UNL     1      -3.215   0.674   0.000  0.00  0.00    +0.000 NA
ENDBRANCH   8  21
TORSDOF 2
