REMARK  Name = 
REMARK  11 active torsions:
REMARK  status: ('A' for Active; 'I' for Inactive)
REMARK    1  A    between atoms: C_2  and  C_4
REMARK    2  A    between atoms: C_9  and  C_10
REMARK    3  A    between atoms: C_9  and  O_26
REMARK    4  A    between atoms: C_10  and  C_11
REMARK    5  A    between atoms: C_11  and  N_12
REMARK    6  A    between atoms: N_12  and  C_14
REMARK    7  A    between atoms: C_14  and  C_15
REMARK    8  A    between atoms: C_15  and  C_16
REMARK    9  A    between atoms: C_16  and  C_17
REMARK   10  A    between atoms: O_26  and  C_27
REMARK   11  A    between atoms: C_27  and  C_29
REMARK                            x       y       z     vdW  Elec       q    Type
REMARK                         _______ _______ _______ _____ _____    ______ ____
ROOT
ATOM      1  C   UNL     1      -3.465  -2.378   0.000  0.00  0.00    +0.000 C 
ATOM      2  C   UNL     1      -3.902  -3.078   0.000  0.00  0.00    +0.000 A 
ATOM      3  C   UNL     1      -3.515  -3.807   0.000  0.00  0.00    +0.000 A 
ATOM      4  C   UNL     1      -2.691  -3.835   0.000  0.00  0.00    +0.000 C 
ATOM      5  C   UNL     1      -2.253  -3.136   0.000  0.00  0.00    +0.000 C 
ATOM      6  C   UNL     1      -2.641  -2.407   0.000  0.00  0.00    +0.000 C 
ATOM      7  C   UNL     1      -3.952  -4.506   0.000  0.00  0.00    +0.000 A 
ATOM      8  C   UNL     1      -4.777  -4.477   0.000  0.00  0.00    +0.000 A 
ATOM      9  F   UNL     1      -5.214  -5.177   0.000  0.00  0.00    +0.000 F 
ATOM     10  C   UNL     1      -5.164  -3.749   0.000  0.00  0.00    +0.000 A 
ATOM     11  C   UNL     1      -4.727  -3.049   0.000  0.00  0.00    +0.000 A 
ENDROOT
BRANCH   1  13
ATOM     12  C   UNL     1      -3.415  -0.950   0.000  0.00  0.00    +0.000 C 
ATOM     13  C   UNL     1      -3.853  -1.650   0.000  0.00  0.00    +0.000 C 
ATOM     14  C   UNL     1      -4.677  -1.621   0.000  0.00  0.00    +0.000 C 
ENDBRANCH   1  13
BRANCH   6  15
ATOM     15  C   UNL     1      -1.926  -1.995   0.000  0.00  0.00    +0.000 C 
BRANCH  15  16
ATOM     16  C   UNL     1      -1.212  -2.407   0.000  0.00  0.00    +0.000 C 
BRANCH  16  17
ATOM     17  N   UNL     1      -0.497  -1.995   0.000  0.00  0.00    +0.000 NA
ATOM     18  C   UNL     1      -0.497  -1.170   0.000  0.00  0.00    +0.000 C 
BRANCH  17  19
ATOM     19  C   UNL     1       0.217  -2.407   0.000  0.00  0.00    +0.000 C 
BRANCH  19  20
ATOM     20  C   UNL     1       0.932  -1.995   0.000  0.00  0.00    +0.000 C 
BRANCH  20  21
ATOM     21  C   UNL     1       1.646  -2.407   0.000  0.00  0.00    +0.000 C 
BRANCH  21  22
ATOM     22  C   UNL     1       2.361  -1.995   0.000  0.00  0.00    +0.000 A 
ATOM     23  N   UNL     1       2.447  -1.174   0.000  0.00  0.00    +0.000 NA
ATOM     24  C   UNL     1       3.254  -1.003   0.000  0.00  0.00    +0.000 A 
ATOM     25  C   UNL     1       3.666  -0.288   0.000  0.00  0.00    +0.000 A 
ATOM     26  C   UNL     1       4.491  -0.288   0.000  0.00  0.00    +0.000 A 
ATOM     27  C   UNL     1       4.904  -1.003   0.000  0.00  0.00    +0.000 A 
ATOM     28  C   UNL     1       4.491  -1.717   0.000  0.00  0.00    +0.000 A 
ATOM     29  C   UNL     1       3.666  -1.717   0.000  0.00  0.00    +0.000 A 
ATOM     30  N   UNL     1       3.114  -2.330   0.000  0.00  0.00    +0.000 NA
ENDBRANCH  21  22
ENDBRANCH  20  21
ENDBRANCH  19  20
ENDBRANCH  17  19
ENDBRANCH  16  17
ENDBRANCH  15  16
ENDBRANCH   6  15
BRANCH   6  31
ATOM     31  O   UNL     1      -2.583  -1.584   0.000  0.00  0.00    +0.000 OA
BRANCH  31  32
ATOM     32  C   UNL     1      -1.842  -1.223   0.000  0.00  0.00    +0.000 C 
ATOM     33  O   UNL     1      -1.158  -1.684   0.000  0.00  0.00    +0.000 OA
BRANCH  32  34
ATOM     34  C   UNL     1      -1.784  -0.400   0.000  0.00  0.00    +0.000 C 
ATOM     35  C   UNL     1      -2.146   0.342   0.000  0.00  0.00    +0.000 C 
ATOM     36  C   UNL     1      -1.323   0.284   0.000  0.00  0.00    +0.000 C 
ENDBRANCH  32  34
ENDBRANCH  31  32
ENDBRANCH   6  31
TORSDOF 11
