REMARK  Name = 
REMARK  19 active torsions:
REMARK  status: ('A' for Active; 'I' for Inactive)
REMARK    1  A    between atoms: C_2  and  C_3
REMARK    2  A    between atoms: C_2  and  C_14
REMARK    3  A    between atoms: N_4  and  C_5
REMARK    4  A    between atoms: C_5  and  C_6
REMARK    5  A    between atoms: C_5  and  C_22
REMARK    6  A    between atoms: N_7  and  C_8
REMARK    7  A    between atoms: C_8  and  C_9
REMARK    8  A    between atoms: C_8  and  C_33
REMARK    9  A    between atoms: N_10  and  C_11
REMARK   10  A    between atoms: C_11  and  C_12
REMARK   11  A    between atoms: C_11  and  C_39
REMARK   12  A    between atoms: C_14  and  C_15
REMARK   13  A    between atoms: C_15  and  C_16
REMARK   14  A    between atoms: C_16  and  N_17
REMARK   15  A    between atoms: C_22  and  C_23
REMARK   16  A    between atoms: C_33  and  C_34
REMARK   17  A    between atoms: C_34  and  C_35
REMARK   18  A    between atoms: C_35  and  C_36
REMARK   19  A    between atoms: C_39  and  C_40
REMARK                            x       y       z     vdW  Elec       q    Type
REMARK                         _______ _______ _______ _____ _____    ______ ____
ROOT
ATOM      1  C   UNL     1      -1.072  -0.825   0.000  0.00  0.00    +0.000 C 
ENDROOT
BRANCH   1   2
ATOM      2  C   UNL     1      -0.357  -0.412   0.000  0.00  0.00    +0.000 C 
ATOM      3  N   UNL     1       0.357  -0.825   0.000  0.00  0.00    +0.000 NA
ATOM      4  O   UNL     1      -0.357   0.412   0.000  0.00  0.00    +0.000 OA
BRANCH   3   5
ATOM      5  C   UNL     1       1.072  -0.412   0.000  0.00  0.00    +0.000 C 
BRANCH   5   6
ATOM      6  C   UNL     1       1.786  -0.825   0.000  0.00  0.00    +0.000 C 
ATOM      7  N   UNL     1       2.501  -0.412   0.000  0.00  0.00    +0.000 NA
ATOM      8  O   UNL     1       1.786  -1.650   0.000  0.00  0.00    +0.000 OA
BRANCH   7   9
ATOM      9  C   UNL     1       3.215  -0.825   0.000  0.00  0.00    +0.000 C 
BRANCH   9  10
ATOM     10  C   UNL     1       3.930  -0.412   0.000  0.00  0.00    +0.000 C 
ATOM     11  N   UNL     1       4.644  -0.825   0.000  0.00  0.00    +0.000 NA
ATOM     12  O   UNL     1       3.930   0.412   0.000  0.00  0.00    +0.000 OA
ENDBRANCH   9  10
BRANCH   9  13
ATOM     13  C   UNL     1       3.215  -1.650   0.000  0.00  0.00    +0.000 C 
BRANCH  13  14
ATOM     14  C   UNL     1       3.930  -2.062   0.000  0.00  0.00    +0.000 A 
ATOM     15  C   UNL     1       3.930  -2.887   0.000  0.00  0.00    +0.000 A 
ATOM     16  C   UNL     1       4.644  -3.300   0.000  0.00  0.00    +0.000 A 
ATOM     17  C   UNL     1       5.359  -2.887   0.000  0.00  0.00    +0.000 A 
ATOM     18  C   UNL     1       5.359  -2.062   0.000  0.00  0.00    +0.000 A 
ATOM     19  C   UNL     1       4.644  -1.650   0.000  0.00  0.00    +0.000 A 
ENDBRANCH  13  14
ENDBRANCH   9  13
ENDBRANCH   7   9
ENDBRANCH   5   6
BRANCH   5  20
ATOM     20  C   UNL     1       1.072   0.412   0.000  0.00  0.00    +0.000 C 
BRANCH  20  21
ATOM     21  C   UNL     1       1.786   0.825   0.000  0.00  0.00    +0.000 C 
BRANCH  21  22
ATOM     22  C   UNL     1       1.786   1.650   0.000  0.00  0.00    +0.000 C 
BRANCH  22  23
ATOM     23  C   UNL     1       2.501   2.062   0.000  0.00  0.00    +0.000 C 
ATOM     24  N   UNL     1       2.501   2.888   0.000  0.00  0.00    +0.000 NA
ENDBRANCH  22  23
ENDBRANCH  21  22
ENDBRANCH  20  21
ENDBRANCH   5  20
ENDBRANCH   3   5
ENDBRANCH   1   2
BRANCH   1  26
ATOM     25  C   UNL     1      -2.501  -0.825   0.000  0.00  0.00    +0.000 C 
ATOM     26  N   UNL     1      -1.786  -0.412   0.000  0.00  0.00    +0.000 NA
ATOM     27  O   UNL     1      -2.501  -1.650   0.000  0.00  0.00    +0.000 OA
BRANCH  25  29
ATOM     28  N   UNL     1      -3.929  -0.825   0.000  0.00  0.00    +0.000 NA
ATOM     29  C   UNL     1      -3.215  -0.412   0.000  0.00  0.00    +0.000 C 
BRANCH  29  30
ATOM     30  C   UNL     1      -3.215   0.412   0.000  0.00  0.00    +0.000 C 
BRANCH  30  31
ATOM     31  C   UNL     1      -3.929   0.825   0.000  0.00  0.00    +0.000 C 
BRANCH  31  32
ATOM     32  C   UNL     1      -3.929   1.650   0.000  0.00  0.00    +0.000 C 
BRANCH  32  33
ATOM     33  N   UNL     1      -4.644   2.062   0.000  0.00  0.00    +0.000 NA
ATOM     34  C   UNL     1      -4.644   2.888   0.000  0.00  0.00    +0.000 C 
ATOM     35  N   UNL     1      -5.359   3.300   0.000  0.00  0.00    +0.000 NA
ATOM     36  N   UNL     1      -3.929   3.300   0.000  0.00  0.00    +0.000 NA
ENDBRANCH  32  33
ENDBRANCH  31  32
ENDBRANCH  30  31
ENDBRANCH  29  30
ENDBRANCH  25  29
ENDBRANCH   1  26
BRANCH   1  37
ATOM     37  C   UNL     1      -1.072  -1.650   0.000  0.00  0.00    +0.000 C 
BRANCH  37  38
ATOM     38  C   UNL     1      -0.357  -2.062   0.000  0.00  0.00    +0.000 A 
ATOM     39  C   UNL     1      -0.357  -2.887   0.000  0.00  0.00    +0.000 A 
ATOM     40  C   UNL     1       0.357  -3.300   0.000  0.00  0.00    +0.000 A 
ATOM     41  C   UNL     1       1.072  -2.887   0.000  0.00  0.00    +0.000 A 
ATOM     42  C   UNL     1       1.072  -2.062   0.000  0.00  0.00    +0.000 A 
ATOM     43  C   UNL     1       0.357  -1.650   0.000  0.00  0.00    +0.000 A 
ATOM     44  C   UNL     1       0.941  -1.067   0.000  0.00  0.00    +0.000 C 
ATOM     45  O   UNL     1       1.786  -3.300   0.000  0.00  0.00    +0.000 OA
ATOM     46  C   UNL     1      -1.072  -3.300   0.000  0.00  0.00    +0.000 C 
ENDBRANCH  37  38
ENDBRANCH   1  37
TORSDOF 19
