REMARK  Name = 
REMARK  5 active torsions:
REMARK  status: ('A' for Active; 'I' for Inactive)
REMARK    1  A    between atoms: C_5  and  S_8
REMARK    2  A    between atoms: S_8  and  N_11
REMARK    3  A    between atoms: N_11  and  C_12
REMARK    4  A    between atoms: C_15  and  O_18
REMARK    5  A    between atoms: O_18  and  C_19
REMARK                            x       y       z     vdW  Elec       q    Type
REMARK                         _______ _______ _______ _____ _____    ______ ____
ROOT
ATOM      1  S   UNL     1      -1.374  -0.206   0.000  0.00  0.00    +0.000 S 
ATOM      2  O   UNL     1      -0.549  -0.206   0.000  0.00  0.00    +0.000 OA
ATOM      3  O   UNL     1      -2.199  -0.206   0.000  0.00  0.00    +0.000 OA
ENDROOT
BRANCH   1   8
ATOM      4  N   UNL     1      -1.374  -3.506   0.000  0.00  0.00    +0.000 NA
ATOM      5  C   UNL     1      -1.374  -2.681   0.000  0.00  0.00    +0.000 A 
ATOM      6  C   UNL     1      -0.659  -2.269   0.000  0.00  0.00    +0.000 A 
ATOM      7  C   UNL     1      -0.659  -1.444   0.000  0.00  0.00    +0.000 A 
ATOM      8  C   UNL     1      -1.374  -1.031   0.000  0.00  0.00    +0.000 A 
ATOM      9  C   UNL     1      -2.088  -1.444   0.000  0.00  0.00    +0.000 A 
ATOM     10  C   UNL     1      -2.088  -2.269   0.000  0.00  0.00    +0.000 A 
ENDBRANCH   1   8
BRANCH   1  11
ATOM     11  N   UNL     1      -1.374   0.619   0.000  0.00  0.00    +0.000 NA
BRANCH  11  12
ATOM     12  C   UNL     1      -0.659   1.031   0.000  0.00  0.00    +0.000 A 
ATOM     13  N   UNL     1       0.055   0.619   0.000  0.00  0.00    +0.000 NA
ATOM     14  C   UNL     1      -0.659   1.856   0.000  0.00  0.00    +0.000 A 
ATOM     15  C   UNL     1       0.770   1.856   0.000  0.00  0.00    +0.000 A 
ATOM     16  N   UNL     1       0.770   1.031   0.000  0.00  0.00    +0.000 NA
ATOM     17  C   UNL     1       0.055   2.269   0.000  0.00  0.00    +0.000 A 
BRANCH  15  18
ATOM     18  O   UNL     1       1.484   2.269   0.000  0.00  0.00    +0.000 OA
BRANCH  18  19
ATOM     19  C   UNL     1       1.484   3.094   0.000  0.00  0.00    +0.000 C 
ATOM     20  C   UNL     1       2.199   3.506   0.000  0.00  0.00    +0.000 C 
ENDBRANCH  18  19
ENDBRANCH  15  18
ENDBRANCH  11  12
ENDBRANCH   1  11
TORSDOF 5
