REMARK  Name = 
REMARK  13 active torsions:
REMARK  status: ('A' for Active; 'I' for Inactive)
REMARK    1  A    between atoms: C_6  and  N_7
REMARK    2  A    between atoms: N_10  and  C_11
REMARK    3  A    between atoms: C_11  and  C_12
REMARK    4  A    between atoms: C_12  and  C_13
REMARK    5  A    between atoms: C_13  and  C_14
REMARK    6  A    between atoms: C_14  and  C_15
REMARK    7  A    between atoms: C_15  and  C_16
REMARK    8  A    between atoms: C_15  and  N_19
REMARK    9  A    between atoms: N_22  and  C_23
REMARK   10  A    between atoms: C_23  and  C_24
REMARK   11  A    between atoms: C_23  and  C_29
REMARK   12  A    between atoms: C_24  and  C_25
REMARK   13  A    between atoms: C_25  and  C_26
REMARK                            x       y       z     vdW  Elec       q    Type
REMARK                         _______ _______ _______ _____ _____    ______ ____
ROOT
ATOM      1  C   UNK A   1       7.145   0.000   0.000  0.00  0.00    +0.000 C 
ENDROOT
BRANCH   1   2
ATOM      2  N   UNK A   1       7.859  -0.412   0.000  0.00  0.00    +0.000 NA
ATOM      3  C   UNK A   0       8.574   0.000   0.000  0.00  0.00    +0.000 C 
ATOM      4  O   UNK A   0       8.574   0.825   0.000  0.00  0.00    +0.000 OA
ATOM      5  N   UNK A   1       9.288  -0.412   0.000  0.00  0.00    +0.000 NA
BRANCH   5   6
ATOM      6  C   UNK A   1      10.003   0.000   0.000  0.00  0.00    +0.000 C 
BRANCH   6   7
ATOM      7  C   UNK A   1      10.003   0.825   0.000  0.00  0.00    +0.000 C 
ATOM      8  O   UNK A   1      10.717   1.238   0.000  0.00  0.00    +0.000 OA
ATOM      9  O   UNK A   1       9.288   1.238   0.000  0.00  0.00    +0.000 OA
ENDBRANCH   6   7
BRANCH   6  10
ATOM     10  C   UNK A   1      10.717  -0.412   0.000  0.00  0.00    +0.000 C 
BRANCH  10  11
ATOM     11  C   UNK A   1      11.431   0.000   0.000  0.00  0.00    +0.000 C 
BRANCH  11  12
ATOM     12  C   UNK A   1      12.146  -0.412   0.000  0.00  0.00    +0.000 C 
ATOM     13  O   UNK A   1      12.861   0.000   0.000  0.00  0.00    +0.000 OA
ATOM     14  O   UNK A   1      12.146  -1.238   0.000  0.00  0.00    +0.000 OA
ENDBRANCH  11  12
ENDBRANCH  10  11
ENDBRANCH   6  10
ENDBRANCH   5   6
ENDBRANCH   1   2
BRANCH   1  15
ATOM     15  C   UNK A   1       7.145   0.825   0.000  0.00  0.00    +0.000 C 
ATOM     16  O   UNK A   1       7.859   1.238   0.000  0.00  0.00    +0.000 OA
ATOM     17  O   UNK A   1       6.430   1.238   0.000  0.00  0.00    +0.000 OA
ENDBRANCH   1  15
BRANCH   1  18
ATOM     18  C   UNK A   1       6.430  -0.412   0.000  0.00  0.00    +0.000 C 
BRANCH  18  19
ATOM     19  C   UNK A   1       5.716   0.000   0.000  0.00  0.00    +0.000 C 
BRANCH  19  20
ATOM     20  C   UNK A   1       5.001  -0.412   0.000  0.00  0.00    +0.000 C 
BRANCH  20  21
ATOM     21  C   UNK A   1       4.287   0.000   0.000  0.00  0.00    +0.000 C 
BRANCH  21  25
ATOM     22  N   UNK A   1       2.143  -0.412   0.000  0.00  0.00    +0.000 NA
ATOM     23  C   UNK A   1       2.858   0.000   0.000  0.00  0.00    +0.000 C 
ATOM     24  O   UNK A   1       2.858   0.825   0.000  0.00  0.00    +0.000 OA
ATOM     25  N   UNK A   1       3.572  -0.412   0.000  0.00  0.00    +0.000 NA
BRANCH  22  31
ATOM     26  C   UNK A   1       0.715  -0.412   0.000  0.00  0.00    +0.000 A 
ATOM     27  C   UNK A   1       0.000   0.000   0.000  0.00  0.00    +0.000 A 
ATOM     28  C   UNK A   1       0.000   0.825   0.000  0.00  0.00    +0.000 A 
ATOM     29  C   UNK A   1       0.715   1.238   0.000  0.00  0.00    +0.000 A 
ATOM     30  C   UNK A   1       1.429   0.825   0.000  0.00  0.00    +0.000 A 
ATOM     31  C   UNK A   1       1.429   0.000   0.000  0.00  0.00    +0.000 A 
ATOM     32  I   UNK A   1      -0.715   1.238   0.000  0.00  0.00    +0.000 I 
ENDBRANCH  22  31
ENDBRANCH  21  25
ENDBRANCH  20  21
ENDBRANCH  19  20
ENDBRANCH  18  19
ENDBRANCH   1  18
TORSDOF 13
