REMARK  Name = 
REMARK  4 active torsions:
REMARK  status: ('A' for Active; 'I' for Inactive)
REMARK    1  A    between atoms: C_1  and  C_3
REMARK    2  A    between atoms: C_1  and  C_4
REMARK    3  A    between atoms: C_2  and  C_6
REMARK    4  A    between atoms: C_6  and  N_9
REMARK                            x       y       z     vdW  Elec       q    Type
REMARK                         _______ _______ _______ _____ _____    ______ ____
ROOT
ATOM      1  C   UNL     1      -0.391   0.391   0.000  0.00  0.00    +0.000 C 
ATOM      2  C   UNL     1       0.434   0.391   0.000  0.00  0.00    +0.000 C 
ENDROOT
BRANCH   1   3
ATOM      3  C   UNL     1      -0.847  -0.352   0.000  0.00  0.00    +0.000 A 
ATOM      4  C   UNL     1      -1.672  -0.352   0.000  0.00  0.00    +0.000 A 
ATOM      5  C   UNL     1      -0.410  -1.065   0.000  0.00  0.00    +0.000 A 
ATOM      6  C   UNL     1      -1.672  -1.779   0.000  0.00  0.00    +0.000 A 
ATOM      7  C   UNL     1      -0.847  -1.779   0.000  0.00  0.00    +0.000 A 
ATOM      8  C   UNL     1      -2.079  -1.065   0.000  0.00  0.00    +0.000 A 
ATOM      9 BR   UNL     1      -2.079  -2.516   0.000  0.00  0.00    +0.000 Br
ENDBRANCH   1   3
BRANCH   1  10
ATOM     10  C   UNL     1      -0.827   1.104   0.000  0.00  0.00    +0.000 A 
ATOM     11  N   UNL     1      -2.065   1.793   0.000  0.00  0.00    +0.000 NA
ATOM     12  C   UNL     1      -1.648   1.104   0.000  0.00  0.00    +0.000 A 
ATOM     13  C   UNL     1      -1.648   2.502   0.000  0.00  0.00    +0.000 A 
ATOM     14  C   UNL     1      -0.391   1.793   0.000  0.00  0.00    +0.000 A 
ATOM     15  C   UNL     1      -0.827   2.516   0.000  0.00  0.00    +0.000 A 
ENDBRANCH   1  10
BRANCH   2  16
ATOM     16  C   UNL     1       0.847   1.080   0.000  0.00  0.00    +0.000 C 
BRANCH  16  17
ATOM     17  N   UNL     1       1.672   1.080   0.000  0.00  0.00    +0.000 NA
ATOM     18  C   UNL     1       2.079   1.774   0.000  0.00  0.00    +0.000 C 
ATOM     19  C   UNL     1       2.079   0.361   0.000  0.00  0.00    +0.000 C 
ENDBRANCH  16  17
ENDBRANCH   2  16
TORSDOF 4
