REMARK  Name = 
REMARK  8 active torsions:
REMARK  status: ('A' for Active; 'I' for Inactive)
REMARK    1  A    between atoms: C_2  and  C_3
REMARK    2  A    between atoms: C_2  and  N_29
REMARK    3  A    between atoms: C_3  and  C_4
REMARK    4  A    between atoms: C_3  and  O_12
REMARK    5  A    between atoms: C_8  and  O_10
REMARK    6  A    between atoms: O_12  and  C_13
REMARK    7  A    between atoms: N_21  and  C_22
REMARK    8  A    between atoms: C_30  and  C_32
REMARK                            x       y       z     vdW  Elec       q    Type
REMARK                         _______ _______ _______ _____ _____    ______ ____
ROOT
ATOM      1  C   UNL     1       4.067   3.173   0.000  0.00  0.00    +0.000 C 
ENDROOT
BRANCH   1   2
ATOM      2  C   UNL     1       3.352   3.585   0.000  0.00  0.00    +0.000 A 
ATOM      3  C   UNL     1       2.638   3.173   0.000  0.00  0.00    +0.000 A 
ATOM      4  C   UNL     1       1.923   3.585   0.000  0.00  0.00    +0.000 A 
ATOM      5  C   UNL     1       1.923   4.410   0.000  0.00  0.00    +0.000 A 
ATOM      6  C   UNL     1       2.638   4.823   0.000  0.00  0.00    +0.000 A 
ATOM      7  C   UNL     1       3.352   4.410   0.000  0.00  0.00    +0.000 A 
BRANCH   6   8
ATOM      8  O   UNL     1       2.638   5.648   0.000  0.00  0.00    +0.000 OA
ATOM      9  C   UNL     1       3.352   6.060   0.000  0.00  0.00    +0.000 C 
ENDBRANCH   6   8
ENDBRANCH   1   2
BRANCH   1  11
ATOM     10  C   UNL     1       4.781   4.410   0.000  0.00  0.00    +0.000 C 
ATOM     11  C   UNL     1       4.781   3.585   0.000  0.00  0.00    +0.000 C 
BRANCH  11  12
ATOM     12  N   UNL     1       5.496   3.173   0.000  0.00  0.00    +0.000 NA
ATOM     13  C   UNL     1       5.496   2.348   0.000  0.00  0.00    +0.000 C 
ATOM     14  O   UNL     1       4.781   1.935   0.000  0.00  0.00    +0.000 OA
BRANCH  13  15
ATOM     15  C   UNL     1       6.210   1.935   0.000  0.00  0.00    +0.000 C 
ATOM     16  F   UNL     1       5.798   1.221   0.000  0.00  0.00    +0.000 F 
ATOM     17  F   UNL     1       6.623   2.650   0.000  0.00  0.00    +0.000 F 
ATOM     18  F   UNL     1       6.925   1.523   0.000  0.00  0.00    +0.000 F 
ENDBRANCH  13  15
ENDBRANCH  11  12
ENDBRANCH   1  11
BRANCH   1  19
ATOM     19  O   UNL     1       4.067   2.348   0.000  0.00  0.00    +0.000 OA
BRANCH  19  20
ATOM     20  C   UNL     1       3.352   1.935   0.000  0.00  0.00    +0.000 A 
ATOM     21  C   UNL     1       3.352   1.110   0.000  0.00  0.00    +0.000 A 
ATOM     22  C   UNL     1       2.638   0.698   0.000  0.00  0.00    +0.000 A 
ATOM     23  C   UNL     1       1.923   1.110   0.000  0.00  0.00    +0.000 A 
ATOM     24  C   UNL     1       1.923   1.935   0.000  0.00  0.00    +0.000 A 
ATOM     25  C   UNL     1       2.638   2.348   0.000  0.00  0.00    +0.000 A 
ATOM     26  C   UNL     1       1.139   2.190   0.000  0.00  0.00    +0.000 A 
ATOM     27  N   UNL     1       0.654   1.523   0.000  0.00  0.00    +0.000 NA
ATOM     28  N   UNL     1       1.139   0.856   0.000  0.00  0.00    +0.000 N 
BRANCH  28  29
ATOM     29  C   UNL     1       0.884   0.071   0.000  0.00  0.00    +0.000 A 
ATOM     30  C   UNL     1       1.436  -0.542   0.000  0.00  0.00    +0.000 A 
ATOM     31  C   UNL     1       1.181  -1.327   0.000  0.00  0.00    +0.000 A 
ATOM     32  C   UNL     1       0.374  -1.498   0.000  0.00  0.00    +0.000 A 
ATOM     33  C   UNL     1      -0.178  -0.885   0.000  0.00  0.00    +0.000 A 
ATOM     34  C   UNL     1       0.077  -0.101   0.000  0.00  0.00    +0.000 A 
ATOM     35  F   UNL     1       0.119  -2.283   0.000  0.00  0.00    +0.000 F 
ENDBRANCH  28  29
ENDBRANCH  19  20
ENDBRANCH   1  19
TORSDOF 8
