REMARK  Name = 
REMARK  25 active torsions:
REMARK  status: ('A' for Active; 'I' for Inactive)
REMARK    1  A    between atoms: P_1  and  N_9
REMARK    2  A    between atoms: P_1  and  N_10
REMARK    3  A    between atoms: P_1  and  O_18
REMARK    4  A    between atoms: S_2  and  C_6
REMARK    5  A    between atoms: S_2  and  C_14
REMARK    6  A    between atoms: C_3  and  C_4
REMARK    7  A    between atoms: C_3  and  C_6
REMARK    8  A    between atoms: C_3  and  N_8
REMARK    9  A    between atoms: N_5  and  C_7
REMARK   10  A    between atoms: C_7  and  C_11
REMARK   11  A    between atoms: C_7  and  C_24
REMARK   12  A    between atoms: N_9  and  C_30
REMARK   13  A    between atoms: N_9  and  C_31
REMARK   14  A    between atoms: N_10  and  C_28
REMARK   15  A    between atoms: N_10  and  C_29
REMARK   16  A    between atoms: C_12  and  C_23
REMARK   17  A    between atoms: C_13  and  C_27
REMARK   18  A    between atoms: C_14  and  C_22
REMARK   19  A    between atoms: O_18  and  C_22
REMARK   20  A    between atoms: C_23  and  C_26
REMARK   21  A    between atoms: C_26  and  C_27
REMARK   22  A    between atoms: C_28  and  C_39
REMARK   23  A    between atoms: C_29  and  C_40
REMARK   24  A    between atoms: C_30  and  C_42
REMARK   25  A    between atoms: C_31  and  C_41
REMARK                            x       y       z     vdW  Elec       q    Type
REMARK                         _______ _______ _______ _____ _____    ______ ____
ROOT
ATOM      1  C   UNK A   1       1.181  -0.615   0.000  0.00  0.00    +0.000 C 
ENDROOT
BRANCH   1   2
ATOM      2  C   UNK A   1       1.181   0.210   0.000  0.00  0.00    +0.000 C 
ATOM      3  N   UNK A   2       0.465   0.623   0.000  0.00  0.00    +0.000 NA
ATOM      4  O   UNK A   1       1.894   0.623   0.000  0.00  0.00    +0.000 OA
BRANCH   3   5
ATOM      5  C   UNK A   2       0.456   1.448   0.000  0.00  0.00    +0.000 C 
BRANCH   5   6
ATOM      6  C   UNK A   2       1.169   1.861   0.000  0.00  0.00    +0.000 A 
ATOM      7  C   UNK A   2       1.165   2.682   0.000  0.00  0.00    +0.000 A 
ATOM      8  C   UNK A   2       1.890   1.452   0.000  0.00  0.00    +0.000 A 
ATOM      9  C   UNK A   2       2.598   1.869   0.000  0.00  0.00    +0.000 A 
ATOM     10  C   UNK A   2       1.873   3.102   0.000  0.00  0.00    +0.000 A 
ATOM     11  C   UNK A   2       2.594   2.694   0.000  0.00  0.00    +0.000 A 
ENDBRANCH   5   6
BRANCH   5  12
ATOM     12  C   UNK A   2      -0.256   1.861   0.000  0.00  0.00    +0.000 C 
ATOM     13  O   UNK A   2      -0.260   2.686   0.000  0.00  0.00    +0.000 OA
ATOM     14  O   UNK A   2      -0.973   1.448   0.000  0.00  0.00    +0.000 OA
ENDBRANCH   5  12
ENDBRANCH   3   5
ENDBRANCH   1   2
BRANCH   1  15
ATOM     15  N   UNK A   1       1.894  -1.027   0.000  0.00  0.00    +0.000 NA
ATOM     16  C   UNK A   1       2.607  -0.615   0.000  0.00  0.00    +0.000 C 
ATOM     17  O   UNK A   1       2.607   0.210   0.000  0.00  0.00    +0.000 OA
BRANCH  16  18
ATOM     18  C   UNK A   1       3.319  -1.027   0.000  0.00  0.00    +0.000 C 
BRANCH  18  19
ATOM     19  C   UNK A   1       4.032  -0.611   0.000  0.00  0.00    +0.000 C 
BRANCH  19  20
ATOM     20  C   UNK A   1       4.744  -1.023   0.000  0.00  0.00    +0.000 C 
ATOM     21  N   UNK A   1       4.744  -1.848   0.000  0.00  0.00    +0.000 NA
BRANCH  20  22
ATOM     22  C   UNK A   1       5.457  -0.602   0.000  0.00  0.00    +0.000 C 
ATOM     23  O   UNK A   1       5.457   0.223   0.000  0.00  0.00    +0.000 OA
ATOM     24  O   UNK A   1       6.169  -1.015   0.000  0.00  0.00    +0.000 OA
ENDBRANCH  20  22
ENDBRANCH  19  20
ENDBRANCH  18  19
ENDBRANCH  16  18
ENDBRANCH   1  15
BRANCH   1  25
ATOM     25  C   UNK A   1       0.469  -1.036   0.000  0.00  0.00    +0.000 C 
BRANCH  25  26
ATOM     26  S   UNK A   1      -0.356  -1.036   0.000  0.00  0.00    +0.000 S 
ATOM     27  O   UNK A   1      -0.356  -0.210   0.000  0.00  0.00    +0.000 OA
ATOM     28  O   UNK A   1      -0.356  -1.861   0.000  0.00  0.00    +0.000 OA
BRANCH  26  29
ATOM     29  C   UNK A   1      -1.181  -1.036   0.000  0.00  0.00    +0.000 C 
BRANCH  29  30
ATOM     30  C   UNK A   1      -1.894  -0.623   0.000  0.00  0.00    +0.000 C 
BRANCH  30  31
ATOM     31  O   UNK A   1      -2.607  -1.040   0.000  0.00  0.00    +0.000 OA
BRANCH  31  32
ATOM     32  P   UNK A   1      -3.319  -0.627   0.000  0.00  0.00    +0.000 P 
ATOM     33  O   UNK A   1      -3.319  -1.452   0.000  0.00  0.00    +0.000 OA
BRANCH  32  34
ATOM     34  N   UNK A   1      -4.032  -1.040   0.000  0.00  0.00    +0.000 NA
BRANCH  34  35
ATOM     35  C   UNK A   1      -4.744  -0.627   0.000  0.00  0.00    +0.000 C 
BRANCH  35  37
ATOM     36 CL   UNK A   1      -6.169  -0.635   0.000  0.00  0.00    +0.000 Cl
ATOM     37  C   UNK A   1      -5.457  -1.048   0.000  0.00  0.00    +0.000 C 
ENDBRANCH  35  37
ENDBRANCH  34  35
BRANCH  34  38
ATOM     38  C   UNK A   1      -4.032  -1.865   0.000  0.00  0.00    +0.000 C 
BRANCH  38  40
ATOM     39 CL   UNK A   1      -4.757  -3.102   0.000  0.00  0.00    +0.000 Cl
ATOM     40  C   UNK A   1      -4.740  -2.277   0.000  0.00  0.00    +0.000 C 
ENDBRANCH  38  40
ENDBRANCH  34  38
ENDBRANCH  32  34
BRANCH  32  41
ATOM     41  N   UNK A   1      -3.319   0.198   0.000  0.00  0.00    +0.000 NA
BRANCH  41  42
ATOM     42  C   UNK A   1      -4.036   0.610   0.000  0.00  0.00    +0.000 C 
BRANCH  42  44
ATOM     43 CL   UNK A   1      -4.757   1.848   0.000  0.00  0.00    +0.000 Cl
ATOM     44  C   UNK A   1      -4.044   1.435   0.000  0.00  0.00    +0.000 C 
ENDBRANCH  42  44
ENDBRANCH  41  42
BRANCH  41  45
ATOM     45  C   UNK A   1      -2.607   0.615   0.000  0.00  0.00    +0.000 C 
BRANCH  45  47
ATOM     46 CL   UNK A   1      -1.898   1.861   0.000  0.00  0.00    +0.000 Cl
ATOM     47  C   UNK A   1      -2.611   1.440   0.000  0.00  0.00    +0.000 C 
ENDBRANCH  45  47
ENDBRANCH  41  45
ENDBRANCH  32  41
ENDBRANCH  31  32
ENDBRANCH  30  31
ENDBRANCH  29  30
ENDBRANCH  26  29
ENDBRANCH  25  26
ENDBRANCH   1  25
TORSDOF 25
