REMARK  Name = 
REMARK  3 active torsions:
REMARK  status: ('A' for Active; 'I' for Inactive)
REMARK    1  A    between atoms: C_6  and  C_9
REMARK    2  A    between atoms: C_6  and  C_10
REMARK    3  A    between atoms: C_12  and  C_15
REMARK                            x       y       z     vdW  Elec       q    Type
REMARK                         _______ _______ _______ _____ _____    ______ ____
ROOT
ATOM      1  O   UNL     1       0.533  -1.325   0.000  0.00  0.00    +0.000 OA
ATOM      2  O   UNL     1      -0.871   1.154   0.000  0.00  0.00    +0.000 OA
ATOM      3  O   UNL     1      -2.317  -1.325   0.000  0.00  0.00    +0.000 OA
ATOM      4  N   UNL     1      -0.871  -1.325   0.000  0.00  0.00    +0.000 NA
ATOM      5  N   UNL     1      -1.617  -0.088   0.000  0.00  0.00    +0.000 NA
ATOM      6  C   UNL     1      -0.172  -0.088   0.000  0.00  0.00    +0.000 C 
ATOM      7  C   UNL     1      -0.172  -0.913   0.000  0.00  0.00    +0.000 C 
ATOM      8  C   UNL     1      -0.871   0.324   0.000  0.00  0.00    +0.000 C 
ATOM      9  C   UNL     1      -1.617  -0.913   0.000  0.00  0.00    +0.000 C 
ENDROOT
BRANCH   6  10
ATOM     10  C   UNL     1       0.658  -0.088   0.000  0.00  0.00    +0.000 C 
ATOM     11  C   UNL     1       1.071   0.616   0.000  0.00  0.00    +0.000 C 
ATOM     12  C   UNL     1       1.057  -0.783   0.000  0.00  0.00    +0.000 C 
BRANCH  11  13
ATOM     13  C   UNL     1       1.896   0.607   0.000  0.00  0.00    +0.000 C 
ATOM     14  C   UNL     1       2.317   1.325   0.000  0.00  0.00    +0.000 C 
ENDBRANCH  11  13
ENDBRANCH   6  10
BRANCH   6  15
ATOM     15  C   UNL     1      -0.172   0.742   0.000  0.00  0.00    +0.000 C 
ATOM     16  C   UNL     1       0.533   1.154   0.000  0.00  0.00    +0.000 C 
ENDBRANCH   6  15
TORSDOF 3
