REMARK  Name = 
REMARK  4 active torsions:
REMARK  status: ('A' for Active; 'I' for Inactive)
REMARK    1  A    between atoms: C_5  and  O_25
REMARK    2  A    between atoms: C_9  and  C_17
REMARK    3  A    between atoms: N_10  and  C_18
REMARK    4  A    between atoms: C_18  and  C_20
REMARK                            x       y       z     vdW  Elec       q    Type
REMARK                         _______ _______ _______ _____ _____    ______ ____
ROOT
ATOM      1  C   UNL     1       0.410   0.957   0.000  0.00  0.00    +0.000 C 
ATOM      2  C   UNL     1       0.026   0.243   0.000  0.00  0.00    +0.000 C 
ATOM      3  C   UNL     1       0.000   1.663   0.000  0.00  0.00    +0.000 C 
ATOM      4  C   UNL     1       1.244   0.957   0.000  0.00  0.00    +0.000 A 
ATOM      5  C   UNL     1      -0.821   1.663   0.000  0.00  0.00    +0.000 C 
ATOM      6  C   UNL     1       1.667   1.680   0.000  0.00  0.00    +0.000 A 
ATOM      7  O   UNL     1       0.808   2.193   0.000  0.00  0.00    +0.000 OA
ATOM      8  C   UNL     1       0.410  -0.454   0.000  0.00  0.00    +0.000 C 
ATOM      9  C   UNL     1      -1.210   0.944   0.000  0.00  0.00    +0.000 C 
ATOM     10  N   UNL     1       0.090  -1.142   0.000  0.00  0.00    +0.000 NA
ATOM     11  C   UNL     1       1.667   0.243   0.000  0.00  0.00    +0.000 A 
ATOM     12  C   UNL     1      -0.799   0.243   0.000  0.00  0.00    +0.000 C 
ATOM     13  C   UNL     1       1.244  -0.454   0.000  0.00  0.00    +0.000 C 
ATOM     14  C   UNL     1      -0.115   0.957   0.000  0.00  0.00    +0.000 C 
ATOM     15  C   UNL     1      -0.641   0.957   0.000  0.00  0.00    +0.000 C 
ATOM     16  C   UNL     1       0.872   0.346   0.000  0.00  0.00    +0.000 C 
ATOM     17  C   UNL     1       2.514   1.680   0.000  0.00  0.00    +0.000 A 
ATOM     18  C   UNL     1       0.872  -1.142   0.000  0.00  0.00    +0.000 C 
ATOM     19  C   UNL     1       2.514   0.243   0.000  0.00  0.00    +0.000 A 
ATOM     20  C   UNL     1       2.911   0.944   0.000  0.00  0.00    +0.000 A 
ATOM     21  O   UNL     1       2.937   2.394   0.000  0.00  0.00    +0.000 OA
ENDROOT
BRANCH   9  22
ATOM     22  C   UNL     1      -2.052   0.957   0.000  0.00  0.00    +0.000 C 
ATOM     23  O   UNL     1      -2.937   0.957   0.000  0.00  0.00    +0.000 OA
ATOM     24  C   UNL     1      -2.450   0.192   0.000  0.00  0.00    +0.000 C 
ATOM     25  C   UNL     1      -2.493   1.650   0.000  0.00  0.00    +0.000 C 
ENDBRANCH   9  22
BRANCH   5  26
ATOM     26  O   UNL     1      -1.171   2.283   0.000  0.00  0.00    +0.000 OA
ATOM     27  C   UNL     1      -2.052   2.283   0.000  0.00  0.00    +0.000 C 
ENDBRANCH   5  26
BRANCH  10  28
ATOM     28  C   UNL     1       0.090  -2.134   0.000  0.00  0.00    +0.000 C 
BRANCH  28  29
ATOM     29  C   UNL     1       0.893  -2.134   0.000  0.00  0.00    +0.000 C 
ATOM     30  C   UNL     1       1.625  -2.621   0.000  0.00  0.00    +0.000 C 
ATOM     31  C   UNL     1       1.625  -1.621   0.000  0.00  0.00    +0.000 C 
ENDBRANCH  28  29
ENDBRANCH  10  28
TORSDOF 4
