REMARK  Name = 
REMARK  4 active torsions:
REMARK  status: ('A' for Active; 'I' for Inactive)
REMARK    1  A    between atoms: C_2  and  C_3
REMARK    2  A    between atoms: C_3  and  C_4
REMARK    3  A    between atoms: C_4  and  C_13
REMARK    4  A    between atoms: C_13  and  C_14
REMARK                            x       y       z     vdW  Elec       q    Type
REMARK                         _______ _______ _______ _____ _____    ______ ____
ROOT
ATOM      1  C   UNL     1       0.715   1.238   0.000  0.00  0.00    +0.000 C 
ATOM      2  C   UNL     1       1.429   0.825   0.000  0.00  0.00    +0.000 C 
ATOM      3  O   UNL     1       2.236   0.997   0.000  0.00  0.00    +0.000 OA
ATOM      4  N   UNL     1       1.429   0.000   0.000  0.00  0.00    +0.000 NA
ATOM      5  C   UNL     1       0.715  -0.412   0.000  0.00  0.00    +0.000 C 
ATOM      6  O   UNL     1       0.715  -1.238   0.000  0.00  0.00    +0.000 OA
ATOM      7  N   UNL     1       0.000   0.000   0.000  0.00  0.00    +0.000 NA
ATOM      8  C   UNL     1       0.000   0.825   0.000  0.00  0.00    +0.000 C 
ATOM      9  O   UNL     1      -0.715   1.238   0.000  0.00  0.00    +0.000 OA
ENDROOT
BRANCH   1  10
ATOM     10  C   UNL     1       1.245   1.869   0.000  0.00  0.00    +0.000 C 
BRANCH  10  12
ATOM     11  C   UNL     1       2.587   2.358   0.000  0.00  0.00    +0.000 C 
ATOM     12  C   UNL     1       2.057   1.726   0.000  0.00  0.00    +0.000 C 
ATOM     13  O   UNL     1       2.565   1.076   0.000  0.00  0.00    +0.000 OA
ENDBRANCH  10  12
ENDBRANCH   1  10
BRANCH   1  14
ATOM     14  C   UNL     1       0.184   1.869   0.000  0.00  0.00    +0.000 C 
BRANCH  14  15
ATOM     15  C   UNL     1       0.466   2.645   0.000  0.00  0.00    +0.000 C 
ATOM     16  C   UNL     1      -0.064   3.277   0.000  0.00  0.00    +0.000 C 
ENDBRANCH  14  15
ENDBRANCH   1  14
TORSDOF 4
