REMARK  Name = 
REMARK  4 active torsions:
REMARK  status: ('A' for Active; 'I' for Inactive)
REMARK    1  A    between atoms: C_1  and  C_2
REMARK    2  A    between atoms: C_3  and  C_4
REMARK    3  A    between atoms: C_5  and  C_6
REMARK    4  A    between atoms: C_6  and  C_15
REMARK                            x       y       z     vdW  Elec       q    Type
REMARK                         _______ _______ _______ _____ _____    ______ ____
ROOT
ATOM      1  C   UNL     1       0.353   0.613   0.000  0.00  0.00    +0.000 C 
ATOM      2  C   UNL     1       1.059   1.040   0.000  0.00  0.00    +0.000 C 
ENDROOT
BRANCH   1   4
ATOM      3  C   UNL     1      -1.077   0.613   0.000  0.00  0.00    +0.000 C 
ATOM      4  C   UNL     1      -0.371   1.040   0.000  0.00  0.00    +0.000 C 
ATOM      5  O   UNL     1      -1.077  -0.204   0.000  0.00  0.00    +0.000 OA
BRANCH   3   6
ATOM      6  C   UNL     1      -1.802   1.040   0.000  0.00  0.00    +0.000 C 
ATOM      7  O   UNL     1      -1.802   1.857   0.000  0.00  0.00    +0.000 OA
ATOM      8  O   UNL     1      -2.507   0.613   0.000  0.00  0.00    +0.000 OA
ENDBRANCH   3   6
ENDBRANCH   1   4
BRANCH   2   9
ATOM      9  C   UNL     1       1.783   0.613   0.000  0.00  0.00    +0.000 C 
ATOM     10  O   UNL     1       2.507   1.040   0.000  0.00  0.00    +0.000 OA
BRANCH   9  15
ATOM     11  C   UNL     1       1.077  -1.449   0.000  0.00  0.00    +0.000 A 
ATOM     12  C   UNL     1       1.783  -1.857   0.000  0.00  0.00    +0.000 A 
ATOM     13  C   UNL     1       2.507  -1.449   0.000  0.00  0.00    +0.000 A 
ATOM     14  C   UNL     1       2.507  -0.631   0.000  0.00  0.00    +0.000 A 
ATOM     15  C   UNL     1       1.783  -0.204   0.000  0.00  0.00    +0.000 A 
ATOM     16  C   UNL     1       1.077  -0.631   0.000  0.00  0.00    +0.000 A 
ENDBRANCH   9  15
ENDBRANCH   2   9
TORSDOF 4
