REMARK  Name = 
REMARK  3 active torsions:
REMARK  status: ('A' for Active; 'I' for Inactive)
REMARK    1  A    between atoms: C_7  and  C_8
REMARK    2  A    between atoms: C_7  and  C_9
REMARK    3  A    between atoms: C_8  and  N_10
REMARK                            x       y       z     vdW  Elec       q    Type
REMARK                         _______ _______ _______ _____ _____    ______ ____
ROOT
ATOM      1  C   UNL     1       0.568   1.939   0.000  0.00  0.00    +0.000 C 
ENDROOT
BRANCH   1   6
ATOM      2  C   UNL     1       0.155  -0.155   0.000  0.00  0.00    +0.000 C 
ATOM      3  C   UNL     1       0.980  -0.155   0.000  0.00  0.00    +0.000 C 
ATOM      4  C   UNL     1      -0.100   0.629   0.000  0.00  0.00    +0.000 C 
ATOM      5  C   UNL     1       1.235   0.629   0.000  0.00  0.00    +0.000 C 
ATOM      6  C   UNL     1       0.568   1.114   0.000  0.00  0.00    +0.000 C 
ENDBRANCH   1   6
BRANCH   1   8
ATOM      7  C   UNL     1       1.997   1.939   0.000  0.00  0.00    +0.000 C 
ATOM      8  C   UNL     1       1.282   2.352   0.000  0.00  0.00    +0.000 C 
BRANCH   8  10
ATOM      9  C   UNL     1       1.997   3.589   0.000  0.00  0.00    +0.000 C 
ATOM     10  N   UNL     1       1.282   3.177   0.000  0.00  0.00    +0.000 NA
ENDBRANCH   8  10
ENDBRANCH   1   8
TORSDOF 3
