REMARK  Name = 
REMARK  23 active torsions:
REMARK  status: ('A' for Active; 'I' for Inactive)
REMARK    1  A    between atoms: C_5  and  O_6
REMARK    2  A    between atoms: O_6  and  C_7
REMARK    3  A    between atoms: C_8  and  O_90
REMARK    4  A    between atoms: C_11  and  O_17
REMARK    5  A    between atoms: C_12  and  C_14
REMARK    6  A    between atoms: C_14  and  O_15
REMARK    7  A    between atoms: O_17  and  C_18
REMARK    8  A    between atoms: C_20  and  O_21
REMARK    9  A    between atoms: O_21  and  C_22
REMARK   10  A    between atoms: C_30  and  O_34
REMARK   11  A    between atoms: O_34  and  C_35
REMARK   12  A    between atoms: C_39  and  O_57
REMARK   13  A    between atoms: C_40  and  O_42
REMARK   14  A    between atoms: O_42  and  C_43
REMARK   15  A    between atoms: C_45  and  N_46
REMARK   16  A    between atoms: C_50  and  O_54
REMARK   17  A    between atoms: O_57  and  C_58
REMARK   18  A    between atoms: C_58  and  C_59
REMARK   19  A    between atoms: C_60  and  O_69
REMARK   20  A    between atoms: C_82  and  O_86
REMARK   21  A    between atoms: C_102  and  O_103
REMARK   22  A    between atoms: O_103  and  C_104
REMARK   23  A    between atoms: C_104  and  C_105
REMARK                            x       y       z     vdW  Elec       q    Type
REMARK                         _______ _______ _______ _____ _____    ______ ____
ROOT
ATOM      1  C   UNL     1      -1.589   0.388   0.000  0.00  0.00    +0.000 C 
ATOM      2  C   UNL     1      -2.319  -0.026   0.000  0.00  0.00    +0.000 C 
ATOM      3  C   UNL     1      -3.000   0.388   0.000  0.00  0.00    +0.000 C 
ATOM      4  O   UNL     1      -3.834   0.388   0.000  0.00  0.00    +0.000 OA
ATOM      5  C   UNL     1      -4.359   0.732   0.000  0.00  0.00    +0.000 C 
ATOM      6  O   UNL     1      -4.359   1.537   0.000  0.00  0.00    +0.000 OA
ATOM      7  C   UNL     1      -5.059   1.952   0.000  0.00  0.00    +0.000 C 
ATOM      8  C   UNL     1      -5.059   2.790   0.000  0.00  0.00    +0.000 C 
ATOM      9  C   UNL     1      -5.769   1.561   0.000  0.00  0.00    +0.000 C 
ATOM     10  C   UNL     1      -5.769   0.732   0.000  0.00  0.00    +0.000 C 
ATOM     11  C   UNL     1      -5.059   0.341   0.000  0.00  0.00    +0.000 C 
ATOM     12  O   UNL     1      -6.470   0.341   0.000  0.00  0.00    +0.000 OA
ATOM     13  O   UNL     1      -3.782   1.227   0.000  0.00  0.00    +0.000 OA
ATOM     14  C   UNL     1      -3.000   1.227   0.000  0.00  0.00    +0.000 C 
ATOM     15  C   UNL     1      -2.319   1.671   0.000  0.00  0.00    +0.000 C 
ATOM     16  O   UNL     1      -1.589   1.203   0.000  0.00  0.00    +0.000 OA
ATOM     17  C   UNL     1      -2.319   2.476   0.000  0.00  0.00    +0.000 C 
ATOM     18  C   UNL     1      -3.467  -0.655   0.000  0.00  0.00    +0.000 C 
ATOM     19  O   UNL     1      -2.319  -0.832   0.000  0.00  0.00    +0.000 OA
ENDROOT
BRANCH   1  20
ATOM     20  O   UNL     1      -0.913  -0.026   0.000  0.00  0.00    +0.000 OA
BRANCH  20  23
ATOM     21  C   UNL     1       1.227   0.364   0.000  0.00  0.00    +0.000 C 
ATOM     22  C   UNL     1       0.493  -0.026   0.000  0.00  0.00    +0.000 C 
ATOM     23  C   UNL     1      -0.183   0.388   0.000  0.00  0.00    +0.000 C 
ATOM     24  C   UNL     1      -0.183   1.227   0.000  0.00  0.00    +0.000 C 
ATOM     25  C   UNL     1       0.522   1.618   0.000  0.00  0.00    +0.000 C 
ATOM     26  O   UNL     1       1.227   1.251   0.000  0.00  0.00    +0.000 OA
ATOM     27  C   UNL     1       0.522   2.428   0.000  0.00  0.00    +0.000 C 
ATOM     28  O   UNL     1       0.441  -0.832   0.000  0.00  0.00    +0.000 OA
BRANCH  24  29
ATOM     29  O   UNL     1      -0.884   1.642   0.000  0.00  0.00    +0.000 OA
ATOM     30  C   UNL     1      -0.884   2.581   0.000  0.00  0.00    +0.000 C 
ENDBRANCH  24  29
BRANCH  21  31
ATOM     31  O   UNL     1       1.904  -0.026   0.000  0.00  0.00    +0.000 OA
BRANCH  31  36
ATOM     32  C   UNL     1       4.044   1.146   0.000  0.00  0.00    +0.000 C 
ATOM     33  C   UNL     1       4.044   0.341   0.000  0.00  0.00    +0.000 C 
ATOM     34  C   UNL     1       3.310  -0.050   0.000  0.00  0.00    +0.000 C 
ATOM     35  O   UNL     1       3.310  -0.860   0.000  0.00  0.00    +0.000 OA
ATOM     36  C   UNL     1       2.633   0.364   0.000  0.00  0.00    +0.000 C 
ATOM     37  C   UNL     1       2.633   1.146   0.000  0.00  0.00    +0.000 C 
ATOM     38  O   UNL     1       3.362   1.594   0.000  0.00  0.00    +0.000 OA
BRANCH  33  39
ATOM     39  O   UNL     1       4.773  -0.079   0.000  0.00  0.00    +0.000 OA
ATOM     40  C   UNL     1       4.773  -1.070   0.000  0.00  0.00    +0.000 C 
ENDBRANCH  33  39
BRANCH  37  41
ATOM     41  C   UNL     1       1.928   1.594   0.000  0.00  0.00    +0.000 C 
BRANCH  41  42
ATOM     42  O   UNL     1       1.928   2.505   0.000  0.00  0.00    +0.000 OA
ATOM     43  C   UNL     1       2.743   3.053   0.000  0.00  0.00    +0.000 C 
ENDBRANCH  41  42
ENDBRANCH  37  41
BRANCH  32  44
ATOM     44  O   UNL     1       4.926   1.671   0.000  0.00  0.00    +0.000 OA
BRANCH  44  49
ATOM     45  C   UNL     1       8.715  -0.860   0.000  0.00  0.00    +0.000 C 
ATOM     46  O   UNL     1       7.280  -0.655   0.000  0.00  0.00    +0.000 OA
ATOM     47  C   UNL     1       6.937   0.183   0.000  0.00  0.00    +0.000 C 
ATOM     48  C   UNL     1       6.103   0.441   0.000  0.00  0.00    +0.000 C 
ATOM     49  C   UNL     1       5.917   1.203   0.000  0.00  0.00    +0.000 C 
ATOM     50  O   UNL     1       6.494   1.799   0.000  0.00  0.00    +0.000 OA
ATOM     51  C   UNL     1       7.328   1.642   0.000  0.00  0.00    +0.000 C 
ATOM     52  C   UNL     1       7.566   0.808   0.000  0.00  0.00    +0.000 C 
ATOM     53  O   UNL     1       8.005  -0.026   0.000  0.00  0.00    +0.000 OA
ATOM     54  O   UNL     1       5.479  -0.079   0.000  0.00  0.00    +0.000 OA
ATOM     55  C   UNL     1       9.339  -1.280   0.000  0.00  0.00    +0.000 C 
ATOM     56  C   UNL     1      10.097  -1.070   0.000  0.00  0.00    +0.000 C 
ATOM     57  C   UNL     1      10.249  -0.288   0.000  0.00  0.00    +0.000 C 
ATOM     58  C   UNL     1       9.630   0.183   0.000  0.00  0.00    +0.000 C 
ATOM     59  O   UNL     1       8.843  -0.079   0.000  0.00  0.00    +0.000 OA
ATOM     60  O   UNL     1      10.826  -1.675   0.000  0.00  0.00    +0.000 OA
ATOM     61  C   UNL     1      10.302  -2.457   0.000  0.00  0.00    +0.000 C 
ATOM     62  O   UNL     1       9.263  -2.195   0.000  0.00  0.00    +0.000 OA
BRANCH  57  63
ATOM     63  O   UNL     1      11.007   0.026   0.000  0.00  0.00    +0.000 OA
BRANCH  63  64
ATOM     64  C   UNL     1      11.660   0.732   0.000  0.00  0.00    +0.000 C 
ATOM     65  O   UNL     1      12.599   0.050   0.000  0.00  0.00    +0.000 OA
BRANCH  64  66
ATOM     66  C   UNL     1      11.660   1.594   0.000  0.00  0.00    +0.000 A 
ATOM     67  C   UNL     1      10.979   2.061   0.000  0.00  0.00    +0.000 A 
ATOM     68  C   UNL     1      10.979   2.919   0.000  0.00  0.00    +0.000 A 
ATOM     69  C   UNL     1      11.736   3.310   0.000  0.00  0.00    +0.000 A 
ATOM     70  C   UNL     1      12.366   2.895   0.000  0.00  0.00    +0.000 A 
ATOM     71  C   UNL     1      12.366   1.985   0.000  0.00  0.00    +0.000 A 
ATOM     72  C   UNL     1      13.042   1.513   0.000  0.00  0.00    +0.000 C 
ATOM     73  O   UNL     1      11.736   4.096   0.000  0.00  0.00    +0.000 OA
ATOM     74  O   UNL     1      10.173   1.694   0.000  0.00  0.00    +0.000 OA
ENDBRANCH  64  66
ENDBRANCH  63  64
ENDBRANCH  57  63
ENDBRANCH  44  49
ENDBRANCH  32  44
ENDBRANCH  31  36
ENDBRANCH  21  31
ENDBRANCH  20  23
ENDBRANCH   1  20
BRANCH   9  75
ATOM     75  O   UNL     1      -6.470   1.952   0.000  0.00  0.00    +0.000 OA
BRANCH  75  76
ATOM     76  C   UNL     1      -7.171   1.561   0.000  0.00  0.00    +0.000 C 
ATOM     77  O   UNL     1      -7.876   1.952   0.000  0.00  0.00    +0.000 OA
ATOM     78  C   UNL     1      -8.581   1.561   0.000  0.00  0.00    +0.000 C 
ATOM     79  C   UNL     1      -9.387   2.138   0.000  0.00  0.00    +0.000 C 
ATOM     80  C   UNL     1      -8.581   0.732   0.000  0.00  0.00    +0.000 C 
ATOM     81  C   UNL     1      -7.876   0.341   0.000  0.00  0.00    +0.000 C 
ATOM     82  C   UNL     1      -7.171   0.732   0.000  0.00  0.00    +0.000 C 
BRANCH  80  83
ATOM     83  O   UNL     1      -9.287   0.312   0.000  0.00  0.00    +0.000 OA
BRANCH  83  84
ATOM     84  C   UNL     1     -10.016   0.732   0.000  0.00  0.00    +0.000 C 
ATOM     85  O   UNL     1     -10.016   1.408   0.000  0.00  0.00    +0.000 OA
BRANCH  84  86
ATOM     86  C   UNL     1     -10.745   0.312   0.000  0.00  0.00    +0.000 A 
ATOM     87  C   UNL     1     -10.745  -0.493   0.000  0.00  0.00    +0.000 A 
ATOM     88  C   UNL     1     -11.422  -0.917   0.000  0.00  0.00    +0.000 A 
ATOM     89 CL   UNL     1     -11.422  -1.723   0.000  0.00  0.00    +0.000 Cl
ATOM     90  C   UNL     1     -12.156  -0.493   0.000  0.00  0.00    +0.000 A 
ATOM     91  C   UNL     1     -12.156   0.312   0.000  0.00  0.00    +0.000 A 
ATOM     92  C   UNL     1     -11.422   0.732   0.000  0.00  0.00    +0.000 A 
ATOM     93  C   UNL     1     -11.422   1.537   0.000  0.00  0.00    +0.000 C 
ATOM     94 CL   UNL     1     -13.042   0.884   0.000  0.00  0.00    +0.000 Cl
ATOM     95  O   UNL     1     -12.856  -0.941   0.000  0.00  0.00    +0.000 OA
BRANCH  87  96
ATOM     96  O   UNL     1     -10.149  -0.965   0.000  0.00  0.00    +0.000 OA
ATOM     97  C   UNL     1     -10.149  -1.723   0.000  0.00  0.00    +0.000 C 
ENDBRANCH  87  96
ENDBRANCH  84  86
ENDBRANCH  83  84
ENDBRANCH  80  83
BRANCH  81  98
ATOM     98  O   UNL     1      -7.094  -0.417   0.000  0.00  0.00    +0.000 OA
BRANCH  98  99
ATOM     99  C   UNL     1      -7.356  -1.332   0.000  0.00  0.00    +0.000 C 
ATOM    100  C   UNL     1      -7.356  -2.166   0.000  0.00  0.00    +0.000 C 
ATOM    101  C   UNL     1      -8.057  -2.557   0.000  0.00  0.00    +0.000 C 
ATOM    102  C   UNL     1      -7.333  -3.181   0.000  0.00  0.00    +0.000 C 
ATOM    103  C   UNL     1      -8.767  -2.114   0.000  0.00  0.00    +0.000 C 
ATOM    104  C   UNL     1      -8.767  -1.308   0.000  0.00  0.00    +0.000 C 
ATOM    105  O   UNL     1      -8.033  -0.917   0.000  0.00  0.00    +0.000 OA
ATOM    106  C   UNL     1      -9.206  -0.574   0.000  0.00  0.00    +0.000 C 
BRANCH 101 107
ATOM    107  N   UNL     1      -8.920  -3.286   0.000  0.00  0.00    +0.000 N 
ATOM    108  O   UNL     1      -9.835  -3.939   0.000  0.00  0.00    +0.000 OA
ATOM    109  O   UNL     1      -8.429  -4.096   0.000  0.00  0.00    +0.000 OA
ENDBRANCH 101 107
BRANCH 103 110
ATOM    110  O   UNL     1      -9.625  -2.714   0.000  0.00  0.00    +0.000 OA
ATOM    111  C   UNL     1     -10.854  -2.714   0.000  0.00  0.00    +0.000 C 
ENDBRANCH 103 110
ENDBRANCH  98  99
ENDBRANCH  81  98
ENDBRANCH  75  76
ENDBRANCH   9  75
TORSDOF 23
