REMARK  Name = 
REMARK  29 active torsions:
REMARK  status: ('A' for Active; 'I' for Inactive)
REMARK    1  A    between atoms: C_12  and  C_14
REMARK    2  A    between atoms: C_18  and  S_20
REMARK    3  A    between atoms: S_20  and  N_23
REMARK    4  A    between atoms: N_23  and  C_24
REMARK    5  A    between atoms: C_24  and  C_25
REMARK    6  A    between atoms: C_25  and  O_26
REMARK    7  A    between atoms: O_26  and  C_27
REMARK    8  A    between atoms: C_27  and  C_28
REMARK    9  A    between atoms: C_28  and  O_29
REMARK   10  A    between atoms: O_29  and  C_30
REMARK   11  A    between atoms: C_30  and  C_31
REMARK   12  A    between atoms: C_31  and  N_32
REMARK   13  A    between atoms: N_35  and  C_36
REMARK   14  A    between atoms: C_36  and  C_37
REMARK   15  A    between atoms: C_37  and  C_38
REMARK   16  A    between atoms: C_38  and  C_39
REMARK   17  A    between atoms: C_39  and  N_40
REMARK   18  A    between atoms: N_43  and  C_44
REMARK   19  A    between atoms: C_44  and  C_45
REMARK   20  A    between atoms: C_45  and  O_46
REMARK   21  A    between atoms: O_46  and  C_47
REMARK   22  A    between atoms: C_47  and  C_48
REMARK   23  A    between atoms: C_48  and  O_49
REMARK   24  A    between atoms: O_49  and  C_50
REMARK   25  A    between atoms: C_50  and  C_51
REMARK   26  A    between atoms: C_51  and  N_52
REMARK   27  A    between atoms: N_52  and  S_53
REMARK   28  A    between atoms: S_53  and  C_56
REMARK   29  A    between atoms: C_60  and  C_62
REMARK                            x       y       z     vdW  Elec       q    Type
REMARK                         _______ _______ _______ _____ _____    ______ ____
ROOT
ATOM      1  C   UNL     1     -14.289  -0.825   0.000  0.00  0.00    +0.000 C 
ENDROOT
BRANCH   1   2
ATOM      2  C   UNL     1     -15.004  -0.412   0.000  0.00  0.00    +0.000 C 
BRANCH   2   6
ATOM      3  N   UNL     1     -17.147  -0.825   0.000  0.00  0.00    +0.000 NA
ATOM      4  C   UNL     1     -16.433  -0.412   0.000  0.00  0.00    +0.000 C 
ATOM      5  O   UNL     1     -16.433   0.412   0.000  0.00  0.00    +0.000 OA
ATOM      6  N   UNL     1     -15.718  -0.825   0.000  0.00  0.00    +0.000 NA
BRANCH   3   7
ATOM      7  C   UNL     1     -17.862  -0.412   0.000  0.00  0.00    +0.000 C 
BRANCH   7   8
ATOM      8  C   UNL     1     -18.576  -0.825   0.000  0.00  0.00    +0.000 C 
BRANCH   8   9
ATOM      9  O   UNL     1     -19.291  -0.412   0.000  0.00  0.00    +0.000 OA
BRANCH   9  10
ATOM     10  C   UNL     1     -20.005  -0.825   0.000  0.00  0.00    +0.000 C 
BRANCH  10  11
ATOM     11  C   UNL     1     -20.720  -0.412   0.000  0.00  0.00    +0.000 C 
BRANCH  11  12
ATOM     12  O   UNL     1     -21.434  -0.825   0.000  0.00  0.00    +0.000 OA
BRANCH  12  13
ATOM     13  C   UNL     1     -22.149  -0.412   0.000  0.00  0.00    +0.000 C 
BRANCH  13  14
ATOM     14  C   UNL     1     -22.863  -0.825   0.000  0.00  0.00    +0.000 C 
BRANCH  14  15
ATOM     15  N   UNL     1     -23.578  -0.412   0.000  0.00  0.00    +0.000 NA
BRANCH  15  16
ATOM     16  S   UNL     1     -24.292  -0.825   0.000  0.00  0.00    +0.000 S 
ATOM     17  O   UNL     1     -23.880  -1.540   0.000  0.00  0.00    +0.000 OA
ATOM     18  O   UNL     1     -24.704  -0.111   0.000  0.00  0.00    +0.000 OA
BRANCH  16  23
ATOM     19  C   UNL     1     -25.721  -2.475   0.000  0.00  0.00    +0.000 A 
ATOM     20  C   UNL     1     -26.435  -2.062   0.000  0.00  0.00    +0.000 A 
ATOM     21  C   UNL     1     -26.435  -1.238   0.000  0.00  0.00    +0.000 A 
ATOM     22  C   UNL     1     -25.721  -0.825   0.000  0.00  0.00    +0.000 A 
ATOM     23  C   UNL     1     -25.006  -1.238   0.000  0.00  0.00    +0.000 A 
ATOM     24  C   UNL     1     -25.006  -2.062   0.000  0.00  0.00    +0.000 A 
BRANCH  19  36
ATOM     25  C   UNL     1     -27.150  -4.950   0.000  0.00  0.00    +0.000 C 
ATOM     26  N   UNL     1     -26.435  -4.537   0.000  0.00  0.00    +0.000 NA
ATOM     27  C   UNL     1     -25.721  -4.950   0.000  0.00  0.00    +0.000 C 
ATOM     28  C   UNL     1     -25.006  -4.537   0.000  0.00  0.00    +0.000 A 
ATOM     29  C   UNL     1     -25.006  -3.712   0.000  0.00  0.00    +0.000 A 
ATOM     30  C   UNL     1     -24.292  -3.300   0.000  0.00  0.00    +0.000 A 
ATOM     31  C   UNL     1     -23.578  -3.712   0.000  0.00  0.00    +0.000 A 
ATOM     32  C   UNL     1     -23.578  -4.537   0.000  0.00  0.00    +0.000 A 
ATOM     33  C   UNL     1     -24.292  -4.950   0.000  0.00  0.00    +0.000 A 
ATOM     34 CL   UNL     1     -24.292  -5.775   0.000  0.00  0.00    +0.000 Cl
ATOM     35 CL   UNL     1     -22.863  -3.300   0.000  0.00  0.00    +0.000 Cl
ATOM     36  C   UNL     1     -25.721  -3.300   0.000  0.00  0.00    +0.000 C 
ATOM     37  C   UNL     1     -26.435  -3.712   0.000  0.00  0.00    +0.000 C 
ENDBRANCH  19  36
ENDBRANCH  16  23
ENDBRANCH  15  16
ENDBRANCH  14  15
ENDBRANCH  13  14
ENDBRANCH  12  13
ENDBRANCH  11  12
ENDBRANCH  10  11
ENDBRANCH   9  10
ENDBRANCH   8   9
ENDBRANCH   7   8
ENDBRANCH   3   7
ENDBRANCH   2   6
ENDBRANCH   1   2
BRANCH   1  38
ATOM     38  C   UNL     1     -13.575  -0.412   0.000  0.00  0.00    +0.000 C 
BRANCH  38  39
ATOM     39  C   UNL     1     -12.861  -0.825   0.000  0.00  0.00    +0.000 C 
BRANCH  39  40
ATOM     40  N   UNL     1     -12.146  -0.412   0.000  0.00  0.00    +0.000 NA
ATOM     41  C   UNL     1     -11.431  -0.825   0.000  0.00  0.00    +0.000 C 
ATOM     42  O   UNL     1     -11.431  -1.650   0.000  0.00  0.00    +0.000 OA
ATOM     43  N   UNL     1     -10.717  -0.412   0.000  0.00  0.00    +0.000 NA
BRANCH  43  44
ATOM     44  C   UNL     1     -10.003  -0.825   0.000  0.00  0.00    +0.000 C 
BRANCH  44  45
ATOM     45  C   UNL     1      -9.288  -0.412   0.000  0.00  0.00    +0.000 C 
BRANCH  45  46
ATOM     46  O   UNL     1      -8.574  -0.825   0.000  0.00  0.00    +0.000 OA
BRANCH  46  47
ATOM     47  C   UNL     1      -7.859  -0.412   0.000  0.00  0.00    +0.000 C 
BRANCH  47  48
ATOM     48  C   UNL     1      -7.145  -0.825   0.000  0.00  0.00    +0.000 C 
BRANCH  48  49
ATOM     49  O   UNL     1      -6.430  -0.412   0.000  0.00  0.00    +0.000 OA
BRANCH  49  50
ATOM     50  C   UNL     1      -5.716  -0.825   0.000  0.00  0.00    +0.000 C 
BRANCH  50  51
ATOM     51  C   UNL     1      -5.001  -0.412   0.000  0.00  0.00    +0.000 C 
BRANCH  51  52
ATOM     52  N   UNL     1      -4.287  -0.825   0.000  0.00  0.00    +0.000 NA
BRANCH  52  53
ATOM     53  S   UNL     1      -3.572  -0.412   0.000  0.00  0.00    +0.000 S 
ATOM     54  O   UNL     1      -3.160  -1.127   0.000  0.00  0.00    +0.000 OA
ATOM     55  O   UNL     1      -3.985   0.302   0.000  0.00  0.00    +0.000 OA
BRANCH  53  56
ATOM     56  C   UNL     1      -2.858   0.000   0.000  0.00  0.00    +0.000 A 
ATOM     57  C   UNL     1      -2.858   0.825   0.000  0.00  0.00    +0.000 A 
ATOM     58  C   UNL     1      -2.143   1.238   0.000  0.00  0.00    +0.000 A 
ATOM     59  C   UNL     1      -1.429   0.825   0.000  0.00  0.00    +0.000 A 
ATOM     60  C   UNL     1      -1.429   0.000   0.000  0.00  0.00    +0.000 A 
ATOM     61  C   UNL     1      -2.143  -0.412   0.000  0.00  0.00    +0.000 A 
BRANCH  60  62
ATOM     62  C   UNL     1      -0.715  -0.412   0.000  0.00  0.00    +0.000 C 
ATOM     63  C   UNL     1      -0.715  -1.238   0.000  0.00  0.00    +0.000 C 
ATOM     64  N   UNL     1       0.000  -1.650   0.000  0.00  0.00    +0.000 NA
ATOM     65  C   UNL     1       0.715  -1.238   0.000  0.00  0.00    +0.000 C 
ATOM     66  C   UNL     1       0.715  -0.412   0.000  0.00  0.00    +0.000 A 
ATOM     67  C   UNL     1       0.000   0.000   0.000  0.00  0.00    +0.000 A 
ATOM     68  C   UNL     1       0.000   0.825   0.000  0.00  0.00    +0.000 A 
ATOM     69  C   UNL     1       0.715   1.238   0.000  0.00  0.00    +0.000 A 
ATOM     70  C   UNL     1       1.429   0.825   0.000  0.00  0.00    +0.000 A 
ATOM     71  C   UNL     1       1.429   0.000   0.000  0.00  0.00    +0.000 A 
ATOM     72 CL   UNL     1       2.143  -0.412   0.000  0.00  0.00    +0.000 Cl
ATOM     73 CL   UNL     1       0.715   2.062   0.000  0.00  0.00    +0.000 Cl
ATOM     74  C   UNL     1       0.000  -2.475   0.000  0.00  0.00    +0.000 C 
ENDBRANCH  60  62
ENDBRANCH  53  56
ENDBRANCH  52  53
ENDBRANCH  51  52
ENDBRANCH  50  51
ENDBRANCH  49  50
ENDBRANCH  48  49
ENDBRANCH  47  48
ENDBRANCH  46  47
ENDBRANCH  45  46
ENDBRANCH  44  45
ENDBRANCH  43  44
ENDBRANCH  39  40
ENDBRANCH  38  39
ENDBRANCH   1  38
TORSDOF 29
