REMARK  Name = 
REMARK  3 active torsions:
REMARK  status: ('A' for Active; 'I' for Inactive)
REMARK    1  A    between atoms: C_2  and  C_25
REMARK    2  A    between atoms: C_19  and  C_21
REMARK    3  A    between atoms: N_27  and  C_28
REMARK                            x       y       z     vdW  Elec       q    Type
REMARK                         _______ _______ _______ _____ _____    ______ ____
ROOT
ATOM      1  C   UNL     1       3.126   1.748   0.000  0.00  0.00    +0.000 C 
ATOM      2  C   UNL     1       3.538   1.034   0.000  0.00  0.00    +0.000 C 
ATOM      3  C   UNL     1       4.090   0.420   0.000  0.00  0.00    +0.000 C 
ATOM      4  C   UNL     1       3.678  -0.294   0.000  0.00  0.00    +0.000 C 
ATOM      5  C   UNL     1       2.871  -0.122   0.000  0.00  0.00    +0.000 C 
ATOM      6  N   UNL     1       2.784   0.698   0.000  0.00  0.00    +0.000 N 
ATOM      7  C   UNL     1       2.070   1.110   0.000  0.00  0.00    +0.000 A 
ATOM      8  N   UNL     1       1.356   0.698   0.000  0.00  0.00    +0.000 NA
ATOM      9  N   UNL     1       0.641   1.110   0.000  0.00  0.00    +0.000 N 
ATOM     10  C   UNL     1      -0.143   0.856   0.000  0.00  0.00    +0.000 A 
ATOM     11  C   UNL     1      -0.628   1.523   0.000  0.00  0.00    +0.000 A 
ATOM     12  C   UNL     1      -0.143   2.190   0.000  0.00  0.00    +0.000 A 
ATOM     13  C   UNL     1       0.641   1.935   0.000  0.00  0.00    +0.000 A 
ATOM     14  C   UNL     1       1.356   2.348   0.000  0.00  0.00    +0.000 A 
ATOM     15  N   UNL     1       1.356   3.173   0.000  0.00  0.00    +0.000 NA
ATOM     16  C   UNL     1       0.641   3.585   0.000  0.00  0.00    +0.000 A 
ATOM     17  N   UNL     1      -0.113   3.250   0.000  0.00  0.00    +0.000 NA
ATOM     18  N   UNL     1      -0.665   3.863   0.000  0.00  0.00    +0.000 NA
ATOM     19  C   UNL     1      -0.252   4.577   0.000  0.00  0.00    +0.000 A 
ATOM     20  C   UNL     1       0.555   4.406   0.000  0.00  0.00    +0.000 A 
ATOM     21  N   UNL     1       2.070   1.935   0.000  0.00  0.00    +0.000 NA
ENDROOT
BRANCH  19  22
ATOM     22  C   UNL     1      -0.588   5.331   0.000  0.00  0.00    +0.000 C 
ATOM     23  C   UNL     1      -1.255   5.816   0.000  0.00  0.00    +0.000 C 
ATOM     24  C   UNL     1      -0.501   6.152   0.000  0.00  0.00    +0.000 C 
ENDBRANCH  19  22
BRANCH   2  25
ATOM     25  C   UNL     1       4.206   1.518   0.000  0.00  0.00    +0.000 C 
ATOM     26  O   UNL     1       4.959   1.183   0.000  0.00  0.00    +0.000 OA
ATOM     27  N   UNL     1       4.119   2.339   0.000  0.00  0.00    +0.000 NA
BRANCH  27  28
ATOM     28  C   UNL     1       4.787   2.824   0.000  0.00  0.00    +0.000 A 
ATOM     29  C   UNL     1       4.701   3.644   0.000  0.00  0.00    +0.000 A 
ATOM     30  N   UNL     1       5.368   4.129   0.000  0.00  0.00    +0.000 NA
ATOM     31  C   UNL     1       6.122   3.794   0.000  0.00  0.00    +0.000 A 
ATOM     32  F   UNL     1       6.789   4.279   0.000  0.00  0.00    +0.000 F 
ATOM     33  C   UNL     1       6.208   2.973   0.000  0.00  0.00    +0.000 A 
ATOM     34  C   UNL     1       5.540   2.488   0.000  0.00  0.00    +0.000 A 
ENDBRANCH  27  28
ENDBRANCH   2  25
TORSDOF 3
