REMARK  Name = 
REMARK  14 active torsions:
REMARK  status: ('A' for Active; 'I' for Inactive)
REMARK    1  A    between atoms: C_1  and  C_8
REMARK    2  A    between atoms: C_3  and  O_11
REMARK    3  A    between atoms: C_7  and  C_8
REMARK    4  A    between atoms: O_11  and  C_12
REMARK    5  A    between atoms: C_12  and  C_13
REMARK    6  A    between atoms: C_13  and  C_14
REMARK    7  A    between atoms: C_14  and  N_15
REMARK    8  A    between atoms: N_15  and  C_16
REMARK    9  A    between atoms: N_15  and  C_30
REMARK   10  A    between atoms: C_16  and  C_17
REMARK   11  A    between atoms: C_17  and  C_18
REMARK   12  A    between atoms: C_17  and  C_24
REMARK   13  A    between atoms: C_30  and  C_31
REMARK   14  A    between atoms: C_33  and  C_37
REMARK                            x       y       z     vdW  Elec       q    Type
REMARK                         _______ _______ _______ _____ _____    ______ ____
ROOT
ATOM      1  N   UNL     1      -1.786  -1.237   0.000  0.00  0.00    +0.000 NA
ENDROOT
BRANCH   1   2
ATOM      2  C   UNL     1      -1.072  -1.650   0.000  0.00  0.00    +0.000 C 
BRANCH   2   3
ATOM      3  C   UNL     1      -0.357  -1.237   0.000  0.00  0.00    +0.000 C 
BRANCH   3   4
ATOM      4  C   UNL     1       0.357  -1.650   0.000  0.00  0.00    +0.000 C 
BRANCH   4   5
ATOM      5  O   UNL     1       1.072  -1.237   0.000  0.00  0.00    +0.000 OA
BRANCH   5   8
ATOM      6  C   UNL     1       3.215  -1.650   0.000  0.00  0.00    +0.000 A 
ATOM      7  C   UNL     1       2.501  -1.237   0.000  0.00  0.00    +0.000 A 
ATOM      8  C   UNL     1       1.786  -1.650   0.000  0.00  0.00    +0.000 A 
ATOM      9  C   UNL     1       1.786  -2.475   0.000  0.00  0.00    +0.000 A 
ATOM     10  C   UNL     1       2.501  -2.888   0.000  0.00  0.00    +0.000 A 
ATOM     11  C   UNL     1       3.215  -2.475   0.000  0.00  0.00    +0.000 A 
BRANCH   6  12
ATOM     12  C   UNL     1       3.930  -1.237   0.000  0.00  0.00    +0.000 C 
BRANCH  12  13
ATOM     13  C   UNL     1       4.644  -1.650   0.000  0.00  0.00    +0.000 C 
ATOM     14  O   UNL     1       4.644  -2.475   0.000  0.00  0.00    +0.000 OA
ATOM     15  O   UNL     1       5.359  -1.237   0.000  0.00  0.00    +0.000 OA
ENDBRANCH  12  13
ENDBRANCH   6  12
ENDBRANCH   5   8
ENDBRANCH   4   5
ENDBRANCH   3   4
ENDBRANCH   2   3
ENDBRANCH   1   2
BRANCH   1  16
ATOM     16  C   UNL     1      -2.501  -1.650   0.000  0.00  0.00    +0.000 C 
BRANCH  16  17
ATOM     17  C   UNL     1      -3.215  -1.237   0.000  0.00  0.00    +0.000 C 
BRANCH  17  18
ATOM     18  C   UNL     1      -3.930  -1.650   0.000  0.00  0.00    +0.000 A 
ATOM     19  C   UNL     1      -4.644  -1.237   0.000  0.00  0.00    +0.000 A 
ATOM     20  C   UNL     1      -5.359  -1.650   0.000  0.00  0.00    +0.000 A 
ATOM     21  C   UNL     1      -5.359  -2.475   0.000  0.00  0.00    +0.000 A 
ATOM     22  C   UNL     1      -4.644  -2.888   0.000  0.00  0.00    +0.000 A 
ATOM     23  C   UNL     1      -3.930  -2.475   0.000  0.00  0.00    +0.000 A 
ENDBRANCH  17  18
BRANCH  17  24
ATOM     24  C   UNL     1      -3.215  -0.412   0.000  0.00  0.00    +0.000 A 
ATOM     25  C   UNL     1      -2.501   0.000   0.000  0.00  0.00    +0.000 A 
ATOM     26  C   UNL     1      -2.501   0.825   0.000  0.00  0.00    +0.000 A 
ATOM     27  C   UNL     1      -3.215   1.237   0.000  0.00  0.00    +0.000 A 
ATOM     28  C   UNL     1      -3.930   0.825   0.000  0.00  0.00    +0.000 A 
ATOM     29  C   UNL     1      -3.930   0.000   0.000  0.00  0.00    +0.000 A 
ENDBRANCH  17  24
ENDBRANCH  16  17
ENDBRANCH   1  16
BRANCH   1  30
ATOM     30  C   UNL     1      -1.786  -0.412   0.000  0.00  0.00    +0.000 C 
BRANCH  30  31
ATOM     31  C   UNL     1      -1.072   0.000   0.000  0.00  0.00    +0.000 A 
ATOM     32  C   UNL     1      -1.072   0.825   0.000  0.00  0.00    +0.000 A 
ATOM     33  C   UNL     1      -0.357   1.237   0.000  0.00  0.00    +0.000 A 
ATOM     34  C   UNL     1       0.357   0.825   0.000  0.00  0.00    +0.000 A 
ATOM     35  C   UNL     1       0.357   0.000   0.000  0.00  0.00    +0.000 A 
ATOM     36  C   UNL     1      -0.357  -0.412   0.000  0.00  0.00    +0.000 A 
ATOM     37 CL   UNL     1      -1.786   1.237   0.000  0.00  0.00    +0.000 Cl
BRANCH  33  38
ATOM     38  C   UNL     1      -0.357   2.062   0.000  0.00  0.00    +0.000 C 
ATOM     39  F   UNL     1      -0.357   2.888   0.000  0.00  0.00    +0.000 F 
ATOM     40  F   UNL     1       0.357   2.475   0.000  0.00  0.00    +0.000 F 
ATOM     41  F   UNL     1      -1.072   2.475   0.000  0.00  0.00    +0.000 F 
ENDBRANCH  33  38
ENDBRANCH  30  31
ENDBRANCH   1  30
TORSDOF 14
