REMARK  Name = 
REMARK  3 active torsions:
REMARK  status: ('A' for Active; 'I' for Inactive)
REMARK    1  A    between atoms: C_6  and  S_11
REMARK    2  A    between atoms: S_11  and  N_14
REMARK    3  A    between atoms: C_23  and  C_26
REMARK                            x       y       z     vdW  Elec       q    Type
REMARK                         _______ _______ _______ _____ _____    ______ ____
ROOT
ATOM      1  N   UNL     1       5.001   0.412   0.000  0.00  0.00    +0.000 NA
ATOM      2  C   UNL     1       5.001   1.238   0.000  0.00  0.00    +0.000 C 
ATOM      3  C   UNL     1       5.716   1.650   0.000  0.00  0.00    +0.000 C 
ATOM      4  N   UNL     1       6.430   1.238   0.000  0.00  0.00    +0.000 N 
ATOM      5  C   UNL     1       6.430   0.412   0.000  0.00  0.00    +0.000 C 
ATOM      6  C   UNL     1       5.716   0.000   0.000  0.00  0.00    +0.000 C 
ATOM      7  C   UNL     1       7.145   1.650   0.000  0.00  0.00    +0.000 A 
ATOM      8  N   UNL     1       7.145   2.475   0.000  0.00  0.00    +0.000 NA
ATOM      9  C   UNL     1       7.859   2.888   0.000  0.00  0.00    +0.000 A 
ATOM     10  C   UNL     1       8.574   2.475   0.000  0.00  0.00    +0.000 A 
ATOM     11  C   UNL     1       8.574   1.650   0.000  0.00  0.00    +0.000 A 
ATOM     12  N   UNL     1       7.859   1.238   0.000  0.00  0.00    +0.000 NA
ENDROOT
BRANCH  10  13
ATOM     13  C   UNL     1       9.288   2.888   0.000  0.00  0.00    +0.000 C 
ATOM     14  O   UNL     1       9.288   3.712   0.000  0.00  0.00    +0.000 OA
ATOM     15  N   UNL     1      10.003   2.475   0.000  0.00  0.00    +0.000 NA
ATOM     16  O   UNL     1      10.717   2.888   0.000  0.00  0.00    +0.000 OA
ENDBRANCH  10  13
BRANCH   1  17
ATOM     17  S   UNL     1       4.287   0.000   0.000  0.00  0.00    +0.000 S 
ATOM     18  O   UNL     1       4.699  -0.715   0.000  0.00  0.00    +0.000 OA
ATOM     19  O   UNL     1       3.874   0.715   0.000  0.00  0.00    +0.000 OA
BRANCH  17  25
ATOM     20  C   UNL     1       0.715  -1.238   0.000  0.00  0.00    +0.000 A 
ATOM     21  C   UNL     1       0.715  -0.412   0.000  0.00  0.00    +0.000 A 
ATOM     22  C   UNL     1       1.429   0.000   0.000  0.00  0.00    +0.000 A 
ATOM     23  C   UNL     1       2.143  -0.412   0.000  0.00  0.00    +0.000 A 
ATOM     24  C   UNL     1       2.858   0.000   0.000  0.00  0.00    +0.000 A 
ATOM     25  C   UNL     1       3.572  -0.412   0.000  0.00  0.00    +0.000 A 
ATOM     26  C   UNL     1       3.572  -1.238   0.000  0.00  0.00    +0.000 A 
ATOM     27  C   UNL     1       2.858  -1.650   0.000  0.00  0.00    +0.000 A 
ATOM     28  C   UNL     1       2.143  -1.238   0.000  0.00  0.00    +0.000 A 
ATOM     29  C   UNL     1       1.429  -1.650   0.000  0.00  0.00    +0.000 A 
ENDBRANCH  17  25
ENDBRANCH   1  17
TORSDOF 3
