REMARK  Name = 
REMARK  8 active torsions:
REMARK  status: ('A' for Active; 'I' for Inactive)
REMARK    1  A    between atoms: O_1  and  C_16
REMARK    2  A    between atoms: O_1  and  C_19
REMARK    3  A    between atoms: O_5  and  C_24
REMARK    4  A    between atoms: O_5  and  C_30
REMARK    5  A    between atoms: N_14  and  C_18
REMARK    6  A    between atoms: N_15  and  C_20
REMARK    7  A    between atoms: C_21  and  C_26
REMARK    8  A    between atoms: C_25  and  C_27
REMARK                            x       y       z     vdW  Elec       q    Type
REMARK                         _______ _______ _______ _____ _____    ______ ____
ROOT
ATOM      1  O   UNL     1      -0.027   0.206   0.000  0.00  0.00    +0.000 OA
ATOM      2  O   UNL     1      -2.171   1.444   0.000  0.00  0.00    +0.000 OA
ATOM      3  C   UNL     1      -1.456   0.206   0.000  0.00  0.00    +0.000 C 
ATOM      4  C   UNL     1      -1.456   1.031   0.000  0.00  0.00    +0.000 C 
ATOM      5  C   UNL     1      -0.742   1.444   0.000  0.00  0.00    +0.000 C 
ATOM      6  C   UNL     1      -0.742  -0.206   0.000  0.00  0.00    +0.000 C 
ATOM      7  C   UNL     1      -0.027   1.031   0.000  0.00  0.00    +0.000 C 
ENDROOT
BRANCH   5   9
ATOM      8  O   UNL     1      -2.171   2.269   0.000  0.00  0.00    +0.000 OA
ATOM      9  N   UNL     1      -0.742   2.269   0.000  0.00  0.00    +0.000 N 
ATOM     10  C   UNL     1      -1.456   2.681   0.000  0.00  0.00    +0.000 C 
ATOM     11  C   UNL     1      -1.456   3.506   0.000  0.00  0.00    +0.000 C 
ATOM     12  H   UNL     1      -0.299   2.525   0.000  0.00  0.00    +0.000 HD
ENDBRANCH   5   9
BRANCH   6  14
ATOM     13  O   UNL     1      -0.027  -1.444   0.000  0.00  0.00    +0.000 OA
ATOM     14  C   UNL     1      -0.742  -1.031   0.000  0.00  0.00    +0.000 C 
ENDBRANCH   6  14
BRANCH   7  15
ATOM     15  O   UNL     1       0.687   1.444   0.000  0.00  0.00    +0.000 OA
BRANCH  15  18
ATOM     16  O   UNL     1       3.568   1.472   0.000  0.00  0.00    +0.000 OA
ATOM     17  O   UNL     1       5.029   1.464   0.000  0.00  0.00    +0.000 OA
ATOM     18  C   UNL     1       1.402   1.031   0.000  0.00  0.00    +0.000 A 
ATOM     19  C   UNL     1       2.116   1.444   0.000  0.00  0.00    +0.000 A 
ATOM     20  C   UNL     1       1.402   0.206   0.000  0.00  0.00    +0.000 A 
ATOM     21  C   UNL     1       2.831   1.031   0.000  0.00  0.00    +0.000 A 
ATOM     22  C   UNL     1       2.116  -0.206   0.000  0.00  0.00    +0.000 A 
ATOM     23  C   UNL     1       2.831   0.206   0.000  0.00  0.00    +0.000 A 
ATOM     24  C   UNL     1       3.568  -0.235   0.000  0.00  0.00    +0.000 A 
ATOM     25  C   UNL     1       4.316   0.189   0.000  0.00  0.00    +0.000 A 
ATOM     26  C   UNL     1       4.316   1.048   0.000  0.00  0.00    +0.000 A 
ATOM     27  C   UNL     1       3.559  -1.060   0.000  0.00  0.00    +0.000 C 
ENDBRANCH  15  18
ENDBRANCH   7  15
BRANCH   3  28
ATOM     28  O   UNL     1      -2.171  -0.206   0.000  0.00  0.00    +0.000 OA
BRANCH  28  33
ATOM     29  O   UNL     1      -1.456  -1.444   0.000  0.00  0.00    +0.000 OA
ATOM     30  O   UNL     1      -3.600  -2.681   0.000  0.00  0.00    +0.000 OA
ATOM     31  O   UNL     1      -2.171  -3.506   0.000  0.00  0.00    +0.000 OA
ATOM     32  C   UNL     1      -2.885  -1.444   0.000  0.00  0.00    +0.000 C 
ATOM     33  C   UNL     1      -2.171  -1.031   0.000  0.00  0.00    +0.000 C 
ATOM     34  C   UNL     1      -2.885  -2.269   0.000  0.00  0.00    +0.000 C 
ATOM     35  C   UNL     1      -2.171  -2.681   0.000  0.00  0.00    +0.000 C 
ATOM     36  C   UNL     1      -1.456  -2.269   0.000  0.00  0.00    +0.000 C 
BRANCH  32  38
ATOM     37  O   UNL     1      -4.314  -2.269   0.000  0.00  0.00    +0.000 OA
ATOM     38  N   UNL     1      -3.600  -1.031   0.000  0.00  0.00    +0.000 N 
ATOM     39  C   UNL     1      -4.314  -1.444   0.000  0.00  0.00    +0.000 C 
ATOM     40  C   UNL     1      -5.029  -1.031   0.000  0.00  0.00    +0.000 C 
ATOM     41  H   UNL     1      -3.600  -0.520   0.000  0.00  0.00    +0.000 HD
ENDBRANCH  32  38
BRANCH  36  43
ATOM     42  O   UNL     1      -0.742  -3.506   0.000  0.00  0.00    +0.000 OA
ATOM     43  C   UNL     1      -0.742  -2.681   0.000  0.00  0.00    +0.000 C 
ENDBRANCH  36  43
ENDBRANCH  28  33
ENDBRANCH   3  28
TORSDOF 8
