REMARK  Name = 
REMARK  2 active torsions:
REMARK  status: ('A' for Active; 'I' for Inactive)
REMARK    1  A    between atoms: C_12  and  C_14
REMARK    2  A    between atoms: C_13  and  C_15
REMARK                            x       y       z     vdW  Elec       q    Type
REMARK                         _______ _______ _______ _____ _____    ______ ____
ROOT
ATOM      1  O   UNL     1       0.357   0.111   0.000  0.00  0.00    +0.000 OA
ATOM      2  O   UNL     1      -1.786  -1.127   0.000  0.00  0.00    +0.000 OA
ATOM      3  O   UNL     1      -0.357  -1.952   0.000  0.00  0.00    +0.000 OA
ATOM      4  O   UNL     1      -1.786   0.523   0.000  0.00  0.00    +0.000 OA
ATOM      5  O   UNL     1      -0.770   1.238   0.000  0.00  0.00    +0.000 OA
ATOM      6  C   UNL     1      -1.072  -0.715   0.000  0.00  0.00    +0.000 C 
ATOM      7  C   UNL     1      -0.357  -1.127   0.000  0.00  0.00    +0.000 C 
ATOM      8  C   UNL     1      -1.072   0.111   0.000  0.00  0.00    +0.000 C 
ATOM      9  C   UNL     1       0.357  -0.715   0.000  0.00  0.00    +0.000 C 
ATOM     10  C   UNL     1      -0.357   0.523   0.000  0.00  0.00    +0.000 C 
ENDROOT
BRANCH  10  13
ATOM     11  O   UNL     1      -0.357   1.952   0.000  0.00  0.00    +0.000 OA
ATOM     12  N   UNL     1       0.880   1.238   0.000  0.00  0.00    +0.000 N 
ATOM     13  C   UNL     1       0.055   1.238   0.000  0.00  0.00    +0.000 C 
ATOM     14  H   UNL     1       1.136   1.681   0.000  0.00  0.00    +0.000 HD
ATOM     15  H   UNL     1       1.136   0.795   0.000  0.00  0.00    +0.000 HD
ENDBRANCH  10  13
BRANCH   9  17
ATOM     16  O   UNL     1       1.786  -0.715   0.000  0.00  0.00    +0.000 OA
ATOM     17  C   UNL     1       1.072  -1.127   0.000  0.00  0.00    +0.000 C 
ENDBRANCH   9  17
TORSDOF 2
