REMARK  Name = 
REMARK  4 active torsions:
REMARK  status: ('A' for Active; 'I' for Inactive)
REMARK    1  A    between atoms: C_3  and  N_12
REMARK    2  A    between atoms: C_4  and  C_13
REMARK    3  A    between atoms: C_16  and  O_19
REMARK    4  A    between atoms: O_19  and  C_20
REMARK                            x       y       z     vdW  Elec       q    Type
REMARK                         _______ _______ _______ _____ _____    ______ ____
ROOT
ATOM      1  C   UNL     1      -1.525  -0.778   0.000  0.00  0.00    +0.000 A 
ATOM      2  C   UNL     1      -1.511   0.651   0.000  0.00  0.00    +0.000 A 
ATOM      3  C   UNL     1      -2.336   0.659   0.000  0.00  0.00    +0.000 A 
ATOM      4  C   UNL     1      -1.106  -0.067   0.000  0.00  0.00    +0.000 A 
ATOM      5  C   UNL     1      -2.756  -0.051   0.000  0.00  0.00    +0.000 A 
ATOM      6  C   UNL     1      -2.350  -0.770   0.000  0.00  0.00    +0.000 A 
ENDROOT
BRANCH   1  10
ATOM      7  S   UNL     1      -0.707  -2.766   0.000  0.00  0.00    +0.000 S 
ATOM      8  C   UNL     1      -1.375  -2.282   0.000  0.00  0.00    +0.000 A 
ATOM      9  C   UNL     1      -0.040  -2.282   0.000  0.00  0.00    +0.000 A 
ATOM     10  C   UNL     1      -1.120  -1.497   0.000  0.00  0.00    +0.000 A 
ATOM     11  N   UNL     1      -0.295  -1.497   0.000  0.00  0.00    +0.000 NA
BRANCH   9  18
ATOM     12  C   UNL     1       2.756  -1.687   0.000  0.00  0.00    +0.000 C 
ATOM     13  N   UNL     1       2.143  -2.239   0.000  0.00  0.00    +0.000 NA
ATOM     14  C   UNL     1       2.584  -0.880   0.000  0.00  0.00    +0.000 C 
ATOM     15  C   UNL     1       1.358  -1.984   0.000  0.00  0.00    +0.000 C 
ATOM     16  C   UNL     1       1.800  -0.625   0.000  0.00  0.00    +0.000 C 
ATOM     17  N   UNL     1       1.186  -1.177   0.000  0.00  0.00    +0.000 NA
ATOM     18  N   UNL     1       0.745  -2.537   0.000  0.00  0.00    +0.000 NA
ENDBRANCH   9  18
ENDBRANCH   1  10
BRANCH   4  19
ATOM     19  O   UNL     1      -0.281  -0.075   0.000  0.00  0.00    +0.000 OA
BRANCH  19  20
ATOM     20  C   UNL     1       0.139   0.635   0.000  0.00  0.00    +0.000 A 
ATOM     21  C   UNL     1       0.977   2.056   0.000  0.00  0.00    +0.000 A 
ATOM     22  C   UNL     1       1.383   1.337   0.000  0.00  0.00    +0.000 A 
ATOM     23  C   UNL     1       0.152   2.064   0.000  0.00  0.00    +0.000 A 
ATOM     24  C   UNL     1       0.964   0.627   0.000  0.00  0.00    +0.000 A 
ATOM     25  C   UNL     1      -0.267   1.353   0.000  0.00  0.00    +0.000 A 
ATOM     26  C   UNL     1      -1.092   1.361   0.000  0.00  0.00    +0.000 C 
ATOM     27  C   UNL     1       1.397   2.766   0.000  0.00  0.00    +0.000 C 
ENDBRANCH  19  20
ENDBRANCH   4  19
TORSDOF 4
