REMARK  Name = 
REMARK  2 active torsions:
REMARK  status: ('A' for Active; 'I' for Inactive)
REMARK    1  A    between atoms: C_1  and  C_8
REMARK    2  A    between atoms: N_10  and  C_17
REMARK                            x       y       z     vdW  Elec       q    Type
REMARK                         _______ _______ _______ _____ _____    ______ ____
ROOT
ATOM      1  C   UNL     1       0.355  -0.424   0.000  0.00  0.00    +0.000 C 
ATOM      2  C   UNL     1      -0.352  -0.020   0.000  0.00  0.00    +0.000 A 
ATOM      3  N   UNL     1       0.355   1.210   0.000  0.00  0.00    +0.000 NA
ATOM      4  C   UNL     1       1.066   0.811   0.000  0.00  0.00    +0.000 C 
ATOM      5  O   UNL     1       1.066  -0.020   0.000  0.00  0.00    +0.000 OA
ATOM      6  C   UNL     1      -0.352   0.811   0.000  0.00  0.00    +0.000 A 
ATOM      7  C   UNL     1      -1.072  -0.424   0.000  0.00  0.00    +0.000 A 
ATOM      8  C   UNL     1      -1.072   1.210   0.000  0.00  0.00    +0.000 A 
ATOM      9  N   UNL     1       1.792   1.224   0.000  0.00  0.00    +0.000 NA
ATOM     10  C   UNL     1      -1.780  -0.020   0.000  0.00  0.00    +0.000 A 
ATOM     11  C   UNL     1       1.024  -0.923   0.000  0.00  0.00    +0.000 C 
ATOM     12  C   UNL     1      -1.780   0.811   0.000  0.00  0.00    +0.000 A 
ATOM     13 CL   UNL     1      -2.503  -0.436   0.000  0.00  0.00    +0.000 Cl
ENDROOT
BRANCH   1  14
ATOM     14  C   UNL     1       0.003  -1.061   0.000  0.00  0.00    +0.000 A 
ATOM     15  C   UNL     1      -0.823  -1.061   0.000  0.00  0.00    +0.000 A 
ATOM     16  C   UNL     1       0.416  -1.752   0.000  0.00  0.00    +0.000 A 
ATOM     17  C   UNL     1       0.003  -2.471   0.000  0.00  0.00    +0.000 A 
ATOM     18  C   UNL     1      -1.227  -1.778   0.000  0.00  0.00    +0.000 A 
ATOM     19  C   UNL     1      -0.823  -2.471   0.000  0.00  0.00    +0.000 A 
ENDBRANCH   1  14
BRANCH   9  20
ATOM     20  C   UNL     1       1.792   2.053   0.000  0.00  0.00    +0.000 C 
ATOM     21  C   UNL     1       2.503   2.471   0.000  0.00  0.00    +0.000 C 
ENDBRANCH   9  20
TORSDOF 2
