REMARK  Name = 
REMARK  7 active torsions:
REMARK  status: ('A' for Active; 'I' for Inactive)
REMARK    1  A    between atoms: C_1  and  C_32
REMARK    2  A    between atoms: C_9  and  O_11
REMARK    3  A    between atoms: C_10  and  O_12
REMARK    4  A    between atoms: O_16  and  C_17
REMARK    5  A    between atoms: C_18  and  O_19
REMARK    6  A    between atoms: C_29  and  C_32
REMARK    7  A    between atoms: C_30  and  C_33
REMARK                            x       y       z     vdW  Elec       q    Type
REMARK                         _______ _______ _______ _____ _____    ______ ____
ROOT
ATOM      1  C   UNL     1      -1.793   2.767   0.000  0.00  0.00    +0.000 A 
ATOM      2  C   UNL     1      -1.793   3.592   0.000  0.00  0.00    +0.000 A 
ATOM      3  C   UNL     1      -1.078   2.355   0.000  0.00  0.00    +0.000 A 
ATOM      4  C   UNL     1      -0.364   2.767   0.000  0.00  0.00    +0.000 A 
ATOM      5  C   UNL     1      -0.364   3.592   0.000  0.00  0.00    +0.000 A 
ATOM      6  C   UNL     1      -1.078   4.005   0.000  0.00  0.00    +0.000 A 
ATOM      7  C   UNL     1       0.350   2.355   0.000  0.00  0.00    +0.000 C 
ATOM      8  N   UNL     1       1.065   2.767   0.000  0.00  0.00    +0.000 NA
ATOM      9  C   UNL     1       1.065   3.592   0.000  0.00  0.00    +0.000 C 
ATOM     10  C   UNL     1       0.350   4.005   0.000  0.00  0.00    +0.000 C 
ATOM     11  C   UNL     1       0.350   1.530   0.000  0.00  0.00    +0.000 C 
ATOM     12  C   UNL     1       1.065   1.117   0.000  0.00  0.00    +0.000 C 
ATOM     13  C   UNL     1       1.779   1.530   0.000  0.00  0.00    +0.000 C 
ATOM     14  C   UNL     1       1.779   2.355   0.000  0.00  0.00    +0.000 C 
ENDROOT
BRANCH   2  16
ATOM     15  C   UNL     1      -3.221   3.592   0.000  0.00  0.00    +0.000 C 
ATOM     16  O   UNL     1      -2.507   4.005   0.000  0.00  0.00    +0.000 OA
ENDBRANCH   2  16
BRANCH   1  18
ATOM     17  C   UNL     1      -3.221   2.767   0.000  0.00  0.00    +0.000 C 
ATOM     18  O   UNL     1      -2.507   2.355   0.000  0.00  0.00    +0.000 OA
ENDBRANCH   1  18
BRANCH  13  19
ATOM     19  C   UNL     1       2.494   1.117   0.000  0.00  0.00    +0.000 C 
ATOM     20  C   UNL     1       3.221   1.538   0.000  0.00  0.00    +0.000 C 
ENDBRANCH  13  19
BRANCH  12  21
ATOM     21  C   UNL     1       1.065   0.292   0.000  0.00  0.00    +0.000 C 
BRANCH  21  22
ATOM     22  C   UNL     1       0.328  -0.291   0.000  0.00  0.00    +0.000 C 
ATOM     23  C   UNL     1       0.287  -1.116   0.000  0.00  0.00    +0.000 A 
ATOM     24  N   UNL     1      -0.373   0.122   0.000  0.00  0.00    +0.000 NA
ATOM     25  C   UNL     1      -0.415  -1.528   0.000  0.00  0.00    +0.000 A 
ATOM     26  C   UNL     1       0.988  -1.570   0.000  0.00  0.00    +0.000 A 
ATOM     27  C   UNL     1      -1.116  -0.249   0.000  0.00  0.00    +0.000 C 
ATOM     28  C   UNL     1      -0.456  -2.354   0.000  0.00  0.00    +0.000 A 
ATOM     29  C   UNL     1      -1.116  -1.116   0.000  0.00  0.00    +0.000 C 
ATOM     30  C   UNL     1       0.988  -2.395   0.000  0.00  0.00    +0.000 A 
ATOM     31  C   UNL     1       0.246  -2.767   0.000  0.00  0.00    +0.000 A 
BRANCH  31  32
ATOM     32  O   UNL     1       0.246  -3.592   0.000  0.00  0.00    +0.000 OA
ATOM     33  C   UNL     1      -0.456  -4.005   0.000  0.00  0.00    +0.000 C 
ENDBRANCH  31  32
BRANCH  30  34
ATOM     34  O   UNL     1       1.690  -2.808   0.000  0.00  0.00    +0.000 OA
ATOM     35  C   UNL     1       1.690  -3.636   0.000  0.00  0.00    +0.000 C 
ENDBRANCH  30  34
ENDBRANCH  21  22
ENDBRANCH  12  21
TORSDOF 7
