REMARK  Name = 
REMARK  15 active torsions:
REMARK  status: ('A' for Active; 'I' for Inactive)
REMARK    1  A    between atoms: C_4  and  C_24
REMARK    2  A    between atoms: C_7  and  C_28
REMARK    3  A    between atoms: C_16  and  O_55
REMARK    4  A    between atoms: C_17  and  C_21
REMARK    5  A    between atoms: C_28  and  O_29
REMARK    6  A    between atoms: O_29  and  C_30
REMARK    7  A    between atoms: C_33  and  O_40
REMARK    8  A    between atoms: C_35  and  O_38
REMARK    9  A    between atoms: O_40  and  C_41
REMARK   10  A    between atoms: C_41  and  C_42
REMARK   11  A    between atoms: C_43  and  C_49
REMARK   12  A    between atoms: O_55  and  C_56
REMARK   13  A    between atoms: C_60  and  O_65
REMARK   14  A    between atoms: O_65  and  C_66
REMARK   15  A    between atoms: C_66  and  C_67
REMARK                            x       y       z     vdW  Elec       q    Type
REMARK                         _______ _______ _______ _____ _____    ______ ____
ROOT
ATOM      1  C   UNL     1       0.429   1.659   0.000  0.00  0.00    +0.000 C 
ATOM      2  C   UNL     1       1.868   1.659   0.000  0.00  0.00    +0.000 C 
ATOM      3  C   UNL     1       1.145   2.071   0.000  0.00  0.00    +0.000 C 
ATOM      4  C   UNL     1      -0.298  -2.793   0.000  0.00  0.00    +0.000 C 
ATOM      5  C   UNL     1       0.410  -3.204   0.000  0.00  0.00    +0.000 C 
ATOM      6  C   UNL     1       1.127  -2.807   0.000  0.00  0.00    +0.000 C 
ATOM      7  C   UNL     1      -0.983  -0.785   0.000  0.00  0.00    +0.000 C 
ATOM      8  C   UNL     1      -0.983  -1.587   0.000  0.00  0.00    +0.000 C 
ATOM      9  O   UNL     1      -0.276  -1.993   0.000  0.00  0.00    +0.000 OA
ATOM     10  C   UNL     1       1.127  -1.986   0.000  0.00  0.00    +0.000 C 
ATOM     11  C   UNL     1       1.833  -1.589   0.000  0.00  0.00    +0.000 C 
ATOM     12  C   UNL     1       0.441   0.852   0.000  0.00  0.00    +0.000 C 
ATOM     13  C   UNL     1      -0.287   0.461   0.000  0.00  0.00    +0.000 C 
ATOM     14  C   UNL     1      -0.304  -0.354   0.000  0.00  0.00    +0.000 C 
ATOM     15  C   UNL     1       1.833  -0.804   0.000  0.00  0.00    +0.000 C 
ATOM     16  C   UNL     1       2.560  -0.415   0.000  0.00  0.00    +0.000 C 
ATOM     17  C   UNL     1       2.580   0.399   0.000  0.00  0.00    +0.000 C 
ATOM     18  C   UNL     1       1.872   0.827   0.000  0.00  0.00    +0.000 C 
ATOM     19  O   UNL     1       1.143   2.889   0.000  0.00  0.00    +0.000 OA
ATOM     20  C   UNL     1       2.587   2.072   0.000  0.00  0.00    +0.000 C 
ATOM     21  C   UNL     1       1.118  -0.387   0.000  0.00  0.00    +0.000 C 
ATOM     22  C   UNL     1       0.408  -1.573   0.000  0.00  0.00    +0.000 C 
ATOM     23  O   UNL     1      -1.704  -1.996   0.000  0.00  0.00    +0.000 OA
ENDROOT
BRANCH   4  24
ATOM     24  C   UNL     1      -1.026  -3.185   0.000  0.00  0.00    +0.000 C 
ATOM     25  O   UNL     1      -1.737  -2.761   0.000  0.00  0.00    +0.000 OA
ATOM     26  C   UNL     1      -1.045  -4.003   0.000  0.00  0.00    +0.000 C 
ENDBRANCH   4  24
BRANCH  17  27
ATOM     27  C   UNL     1       3.308   0.790   0.000  0.00  0.00    +0.000 C 
ATOM     28  C   UNL     1       3.318   1.611   0.000  0.00  0.00    +0.000 C 
ENDBRANCH  17  27
BRANCH  16  29
ATOM     29  O   UNL     1       3.281  -0.824   0.000  0.00  0.00    +0.000 OA
BRANCH  29  30
ATOM     30  C   UNL     1       4.111  -0.824   0.000  0.00  0.00    +0.000 C 
ATOM     31  C   UNL     1       4.526  -1.534   0.000  0.00  0.00    +0.000 C 
ATOM     32  C   UNL     1       5.355  -1.536   0.000  0.00  0.00    +0.000 C 
ATOM     33  C   UNL     1       5.776  -0.830   0.000  0.00  0.00    +0.000 C 
ATOM     34  C   UNL     1       5.361  -0.117   0.000  0.00  0.00    +0.000 C 
ATOM     35  O   UNL     1       4.525  -0.113   0.000  0.00  0.00    +0.000 OA
ATOM     36  C   UNL     1       5.356   0.698   0.000  0.00  0.00    +0.000 C 
ATOM     37  C   UNL     1       6.076   0.296   0.000  0.00  0.00    +0.000 C 
ATOM     38  O   UNL     1       4.111  -2.244   0.000  0.00  0.00    +0.000 OA
ATOM     39  O   UNL     1       5.769  -2.245   0.000  0.00  0.00    +0.000 OA
BRANCH  33  40
ATOM     40  O   UNL     1       6.603  -0.824   0.000  0.00  0.00    +0.000 OA
BRANCH  40  41
ATOM     41  C   UNL     1       7.021  -1.529   0.000  0.00  0.00    +0.000 C 
ATOM     42  O   UNL     1       6.603  -2.239   0.000  0.00  0.00    +0.000 OA
BRANCH  41  43
ATOM     43  C   UNL     1       7.851  -1.529   0.000  0.00  0.00    +0.000 C 
ATOM     44  C   UNL     1       8.266  -0.821   0.000  0.00  0.00    +0.000 C 
ATOM     45  C   UNL     1       8.266  -2.239   0.000  0.00  0.00    +0.000 C 
ENDBRANCH  41  43
ENDBRANCH  40  41
ENDBRANCH  33  40
ENDBRANCH  29  30
ENDBRANCH  16  29
BRANCH   7  46
ATOM     46  C   UNL     1      -1.713  -0.391   0.000  0.00  0.00    +0.000 C 
BRANCH  46  47
ATOM     47  O   UNL     1      -1.734   0.427   0.000  0.00  0.00    +0.000 OA
BRANCH  47  48
ATOM     48  C   UNL     1      -2.464   0.819   0.000  0.00  0.00    +0.000 C 
ATOM     49  O   UNL     1      -2.485   1.634   0.000  0.00  0.00    +0.000 OA
ATOM     50  C   UNL     1      -3.211   2.026   0.000  0.00  0.00    +0.000 C 
ATOM     51  C   UNL     1      -3.923   1.605   0.000  0.00  0.00    +0.000 C 
ATOM     52  C   UNL     1      -3.907   0.786   0.000  0.00  0.00    +0.000 C 
ATOM     53  C   UNL     1      -3.176   0.390   0.000  0.00  0.00    +0.000 C 
ATOM     54  C   UNL     1      -3.229   2.847   0.000  0.00  0.00    +0.000 C 
ATOM     55  O   UNL     1      -4.619   0.360   0.000  0.00  0.00    +0.000 OA
BRANCH  53  56
ATOM     56  O   UNL     1      -3.155  -0.431   0.000  0.00  0.00    +0.000 OA
ATOM     57  C   UNL     1      -3.865  -0.856   0.000  0.00  0.00    +0.000 C 
ENDBRANCH  53  56
BRANCH  51  58
ATOM     58  O   UNL     1      -4.651   2.001   0.000  0.00  0.00    +0.000 OA
BRANCH  58  59
ATOM     59  C   UNL     1      -5.365   1.577   0.000  0.00  0.00    +0.000 C 
ATOM     60  O   UNL     1      -5.348   0.760   0.000  0.00  0.00    +0.000 OA
BRANCH  59  61
ATOM     61  C   UNL     1      -6.091   1.971   0.000  0.00  0.00    +0.000 A 
ATOM     62  C   UNL     1      -6.105   2.789   0.000  0.00  0.00    +0.000 A 
ATOM     63  C   UNL     1      -6.831   3.183   0.000  0.00  0.00    +0.000 A 
ATOM     64  C   UNL     1      -7.540   2.759   0.000  0.00  0.00    +0.000 A 
ATOM     65  C   UNL     1      -7.520   1.940   0.000  0.00  0.00    +0.000 A 
ATOM     66  C   UNL     1      -6.794   1.551   0.000  0.00  0.00    +0.000 A 
ATOM     67 CL   UNL     1      -6.835   4.003   0.000  0.00  0.00    +0.000 Cl
ATOM     68  O   UNL     1      -8.266   3.172   0.000  0.00  0.00    +0.000 OA
ATOM     69 CL   UNL     1      -8.248   1.531   0.000  0.00  0.00    +0.000 Cl
ATOM     70  O   UNL     1      -6.799   0.732   0.000  0.00  0.00    +0.000 OA
BRANCH  62  71
ATOM     71  C   UNL     1      -5.386   3.203   0.000  0.00  0.00    +0.000 C 
ATOM     72  C   UNL     1      -4.666   2.797   0.000  0.00  0.00    +0.000 C 
ENDBRANCH  62  71
ENDBRANCH  59  61
ENDBRANCH  58  59
ENDBRANCH  51  58
ENDBRANCH  47  48
ENDBRANCH  46  47
ENDBRANCH   7  46
TORSDOF 15
