REMARK  Name = 
REMARK  15 active torsions:
REMARK  status: ('A' for Active; 'I' for Inactive)
REMARK    1  A    between atoms: O_1  and  C_2
REMARK    2  A    between atoms: O_1  and  C_3
REMARK    3  A    between atoms: C_3  and  C_5
REMARK    4  A    between atoms: C_16  and  C_18
REMARK    5  A    between atoms: C_18  and  C_19
REMARK    6  A    between atoms: C_19  and  C_20
REMARK    7  A    between atoms: C_20  and  C_21
REMARK    8  A    between atoms: C_21  and  C_22
REMARK    9  A    between atoms: C_22  and  C_23
REMARK   10  A    between atoms: C_23  and  C_24
REMARK   11  A    between atoms: C_24  and  C_25
REMARK   12  A    between atoms: C_25  and  C_26
REMARK   13  A    between atoms: C_26  and  C_27
REMARK   14  A    between atoms: C_27  and  C_28
REMARK   15  A    between atoms: C_28  and  C_29
REMARK                            x       y       z     vdW  Elec       q    Type
REMARK                         _______ _______ _______ _____ _____    ______ ____
ROOT
ATOM      1  C   UNL     1      -4.279  -0.204   0.000  0.00  0.00    +0.000 A 
ATOM      2  C   UNL     1      -3.564  -0.622   0.000  0.00  0.00    +0.000 A 
ATOM      3  C   UNL     1      -3.569   1.031   0.000  0.00  0.00    +0.000 A 
ATOM      4  C   UNL     1      -4.282   0.616   0.000  0.00  0.00    +0.000 A 
ATOM      5  C   UNL     1      -4.999   1.027   0.000  0.00  0.00    +0.000 C 
ATOM      6  C   UNL     1      -3.572   1.858   0.000  0.00  0.00    +0.000 C 
ATOM      7  C   UNL     1      -3.567  -1.449   0.000  0.00  0.00    +0.000 C 
ATOM      8  C   UNL     1      -2.848   0.618   0.000  0.00  0.00    +0.000 A 
ATOM      9  C   UNL     1      -2.849  -0.208   0.000  0.00  0.00    +0.000 A 
ATOM     10  C   UNL     1      -2.137  -0.619   0.000  0.00  0.00    +0.000 C 
ATOM     11  C   UNL     1      -1.421  -0.208   0.000  0.00  0.00    +0.000 C 
ATOM     12  C   UNL     1      -1.421   0.618   0.000  0.00  0.00    +0.000 C 
ATOM     13  O   UNL     1      -2.137   1.033   0.000  0.00  0.00    +0.000 OA
ATOM     14  C   UNL     1      -0.707   0.205   0.000  0.00  0.00    +0.000 C 
ENDROOT
BRANCH   1  15
ATOM     15  O   UNL     1      -4.995  -0.617   0.000  0.00  0.00    +0.000 OA
BRANCH  15  16
ATOM     16  C   UNL     1      -5.713  -0.204   0.000  0.00  0.00    +0.000 C 
ATOM     17  O   UNL     1      -5.714   0.623   0.000  0.00  0.00    +0.000 OA
BRANCH  16  18
ATOM     18  C   UNL     1      -6.428  -0.618   0.000  0.00  0.00    +0.000 A 
ATOM     19  C   UNL     1      -7.144  -0.205   0.000  0.00  0.00    +0.000 A 
ATOM     20  C   UNL     1      -7.858  -0.616   0.000  0.00  0.00    +0.000 A 
ATOM     21  C   UNL     1      -7.861  -1.443   0.000  0.00  0.00    +0.000 A 
ATOM     22  N   UNL     1      -7.145  -1.858   0.000  0.00  0.00    +0.000 NA
ATOM     23  C   UNL     1      -6.425  -1.446   0.000  0.00  0.00    +0.000 A 
ENDBRANCH  16  18
ENDBRANCH  15  16
ENDBRANCH   1  15
BRANCH  12  24
ATOM     24  C   UNL     1      -0.707   1.028   0.000  0.00  0.00    +0.000 C 
BRANCH  24  25
ATOM     25  C   UNL     1       0.007   0.614   0.000  0.00  0.00    +0.000 C 
BRANCH  25  26
ATOM     26  C   UNL     1       0.721   1.023   0.000  0.00  0.00    +0.000 C 
BRANCH  26  27
ATOM     27  C   UNL     1       1.435   0.610   0.000  0.00  0.00    +0.000 C 
ATOM     28  C   UNL     1       1.433  -0.216   0.000  0.00  0.00    +0.000 C 
BRANCH  27  29
ATOM     29  C   UNL     1       2.149   1.019   0.000  0.00  0.00    +0.000 C 
BRANCH  29  30
ATOM     30  C   UNL     1       2.863   0.606   0.000  0.00  0.00    +0.000 C 
BRANCH  30  31
ATOM     31  C   UNL     1       3.577   1.015   0.000  0.00  0.00    +0.000 C 
BRANCH  31  32
ATOM     32  C   UNL     1       4.291   0.602   0.000  0.00  0.00    +0.000 C 
ATOM     33  C   UNL     1       4.289  -0.225   0.000  0.00  0.00    +0.000 C 
BRANCH  32  34
ATOM     34  C   UNL     1       5.005   1.011   0.000  0.00  0.00    +0.000 C 
BRANCH  34  35
ATOM     35  C   UNL     1       5.719   0.598   0.000  0.00  0.00    +0.000 C 
BRANCH  35  36
ATOM     36  C   UNL     1       6.433   1.007   0.000  0.00  0.00    +0.000 C 
BRANCH  36  37
ATOM     37  C   UNL     1       7.147   0.593   0.000  0.00  0.00    +0.000 C 
ATOM     38  C   UNL     1       7.861   1.003   0.000  0.00  0.00    +0.000 C 
ATOM     39  C   UNL     1       7.145  -0.233   0.000  0.00  0.00    +0.000 C 
ENDBRANCH  36  37
ENDBRANCH  35  36
ENDBRANCH  34  35
ENDBRANCH  32  34
ENDBRANCH  31  32
ENDBRANCH  30  31
ENDBRANCH  29  30
ENDBRANCH  27  29
ENDBRANCH  26  27
ENDBRANCH  25  26
ENDBRANCH  24  25
ENDBRANCH  12  24
TORSDOF 15
