REMARK  Name = 
REMARK  5 active torsions:
REMARK  status: ('A' for Active; 'I' for Inactive)
REMARK    1  A    between atoms: C_2  and  C_3
REMARK    2  A    between atoms: C_2  and  C_11
REMARK    3  A    between atoms: C_4  and  C_5
REMARK    4  A    between atoms: C_5  and  C_7
REMARK    5  A    between atoms: C_20  and  C_21
REMARK                            x       y       z     vdW  Elec       q    Type
REMARK                         _______ _______ _______ _____ _____    ______ ____
ROOT
ATOM      1  C   UNL     1      -0.143  -0.030   0.000  0.00  0.00    +0.000 C 
ATOM      2  C   UNL     1      -0.628  -0.698   0.000  0.00  0.00    +0.000 C 
ATOM      3  C   UNL     1      -0.143  -1.365   0.000  0.00  0.00    +0.000 C 
ATOM      4  C   UNL     1       0.641  -1.110   0.000  0.00  0.00    +0.000 C 
ATOM      5  C   UNL     1       0.641  -0.285   0.000  0.00  0.00    +0.000 C 
ATOM      6  C   UNL     1       1.356   0.127   0.000  0.00  0.00    +0.000 C 
ATOM      7  C   UNL     1       2.070  -0.285   0.000  0.00  0.00    +0.000 C 
ATOM      8  C   UNL     1       2.070  -1.110   0.000  0.00  0.00    +0.000 C 
ATOM      9  C   UNL     1       1.356  -1.523   0.000  0.00  0.00    +0.000 C 
ATOM     10  C   UNL     1       1.356  -2.348   0.000  0.00  0.00    +0.000 C 
ATOM     11  C   UNL     1       0.555   0.535   0.000  0.00  0.00    +0.000 C 
ENDROOT
BRANCH  10  12
ATOM     12  C   UNL     1       2.070  -2.760   0.000  0.00  0.00    +0.000 C 
ATOM     13  C   UNL     1       2.070  -3.585   0.000  0.00  0.00    +0.000 C 
ATOM     14  C   UNL     1       2.784  -3.998   0.000  0.00  0.00    +0.000 C 
ATOM     15  C   UNL     1       2.784  -4.823   0.000  0.00  0.00    +0.000 C 
ATOM     16  C   UNL     1       2.070  -5.235   0.000  0.00  0.00    +0.000 C 
ATOM     17  C   UNL     1       1.356  -4.823   0.000  0.00  0.00    +0.000 C 
ATOM     18  C   UNL     1       1.356  -3.998   0.000  0.00  0.00    +0.000 C 
ATOM     19  C   UNL     1       0.641  -3.585   0.000  0.00  0.00    +0.000 C 
ATOM     20  O   UNL     1       0.641  -5.235   0.000  0.00  0.00    +0.000 OA
ATOM     21  O   UNL     1       3.499  -5.235   0.000  0.00  0.00    +0.000 OA
ENDBRANCH  10  12
BRANCH   1  23
ATOM     22  C   UNL     1       0.154   1.367   0.000  0.00  0.00    +0.000 C 
ATOM     23  C   UNL     1      -0.398   0.754   0.000  0.00  0.00    +0.000 C 
BRANCH  23  24
ATOM     24  C   UNL     1      -1.205   0.926   0.000  0.00  0.00    +0.000 C 
ATOM     25  C   UNL     1      -1.460   1.710   0.000  0.00  0.00    +0.000 C 
BRANCH  25  26
ATOM     26  C   UNL     1      -2.267   1.882   0.000  0.00  0.00    +0.000 C 
ATOM     27  C   UNL     1      -2.096   2.689   0.000  0.00  0.00    +0.000 C 
ATOM     28  O   UNL     1      -2.439   1.075   0.000  0.00  0.00    +0.000 OA
BRANCH  26  29
ATOM     29  C   UNL     1      -3.074   2.053   0.000  0.00  0.00    +0.000 C 
ATOM     30  C   UNL     1      -3.329   2.838   0.000  0.00  0.00    +0.000 C 
ATOM     31  C   UNL     1      -3.626   1.440   0.000  0.00  0.00    +0.000 C 
ENDBRANCH  26  29
ENDBRANCH  25  26
ENDBRANCH  23  24
ENDBRANCH   1  23
TORSDOF 5
