REMARK  Name = 
REMARK  8 active torsions:
REMARK  status: ('A' for Active; 'I' for Inactive)
REMARK    1  A    between atoms: P_1  and  O_7
REMARK    2  A    between atoms: P_1  and  O_9
REMARK    3  A    between atoms: P_2  and  O_9
REMARK    4  A    between atoms: P_2  and  O_12
REMARK    5  A    between atoms: P_3  and  O_12
REMARK    6  A    between atoms: O_7  and  C_29
REMARK    7  A    between atoms: N_18  and  C_23
REMARK    8  A    between atoms: C_26  and  C_29
REMARK                            x       y       z     vdW  Elec       q    Type
REMARK                         _______ _______ _______ _____ _____    ______ ____
ROOT
ATOM      1  O   UNL     1      -0.597   0.467   0.000  0.00  0.00    +0.000 OA
ATOM      2  O   UNL     1      -2.691   0.883   0.000  0.00  0.00    +0.000 OA
ATOM      3  O   UNL     1      -1.633   2.333   0.000  0.00  0.00    +0.000 OA
ATOM      4  C   UNL     1      -1.382   0.213   0.000  0.00  0.00    +0.000 C 
ATOM      5  C   UNL     1      -1.866   0.882   0.000  0.00  0.00    +0.000 C 
ATOM      6  C   UNL     1      -1.380   1.548   0.000  0.00  0.00    +0.000 C 
ATOM      7  C   UNL     1      -0.595   1.292   0.000  0.00  0.00    +0.000 C 
ENDROOT
BRANCH   4   9
ATOM      8  O   UNL     1      -3.133  -2.885   0.000  0.00  0.00    +0.000 OA
ATOM      9  N   UNL     1      -1.638  -0.571   0.000  0.00  0.00    +0.000 N 
ATOM     10  N   UNL     1      -1.638  -1.899   0.000  0.00  0.00    +0.000 N 
ATOM     11  N   UNL     1      -3.133  -0.410   0.000  0.00  0.00    +0.000 N 
ATOM     12  N   UNL     1      -3.848  -1.647   0.000  0.00  0.00    +0.000 NA
ATOM     13  N   UNL     1      -4.562  -0.410   0.000  0.00  0.00    +0.000 N 
ATOM     14  C   UNL     1      -1.157  -1.235   0.000  0.00  0.00    +0.000 C 
ATOM     15  C   UNL     1      -2.419  -0.822   0.000  0.00  0.00    +0.000 A 
ATOM     16  C   UNL     1      -2.419  -1.647   0.000  0.00  0.00    +0.000 A 
ATOM     17  C   UNL     1      -1.382  -2.683   0.000  0.00  0.00    +0.000 C 
ATOM     18  C   UNL     1      -3.133  -2.060   0.000  0.00  0.00    +0.000 A 
ATOM     19  C   UNL     1      -3.848  -0.822   0.000  0.00  0.00    +0.000 A 
ATOM     20  H   UNL     1      -3.133   0.102   0.000  0.00  0.00    +0.000 HD
ATOM     21  H   UNL     1      -4.562   0.102   0.000  0.00  0.00    +0.000 HD
ATOM     22  H   UNL     1      -5.005  -0.665   0.000  0.00  0.00    +0.000 HD
ENDBRANCH   4   9
BRANCH   7  23
ATOM     23  C   UNL     1       0.073   1.776   0.000  0.00  0.00    +0.000 C 
BRANCH  23  24
ATOM     24  O   UNL     1       0.826   1.439   0.000  0.00  0.00    +0.000 OA
BRANCH  24  25
ATOM     25  P   UNL     1       1.494   1.923   0.000  0.00  0.00    +0.000 P 
ATOM     26  O   UNL     1       1.978   1.254   0.000  0.00  0.00    +0.000 OA
ATOM     27  O   UNL     1       1.010   2.591   0.000  0.00  0.00    +0.000 OA
BRANCH  25  28
ATOM     28  O   UNL     1       2.163   2.406   0.000  0.00  0.00    +0.000 OA
BRANCH  28  29
ATOM     29  P   UNL     1       2.916   2.070   0.000  0.00  0.00    +0.000 P 
ATOM     30  O   UNL     1       3.252   2.823   0.000  0.00  0.00    +0.000 OA
ATOM     31  O   UNL     1       2.579   1.316   0.000  0.00  0.00    +0.000 OA
BRANCH  29  32
ATOM     32  O   UNL     1       3.669   1.733   0.000  0.00  0.00    +0.000 OA
BRANCH  32  33
ATOM     33  P   UNL     1       4.337   2.216   0.000  0.00  0.00    +0.000 P 
ATOM     34  O   UNL     1       5.005   2.700   0.000  0.00  0.00    +0.000 OA
ATOM     35  O   UNL     1       4.821   1.548   0.000  0.00  0.00    +0.000 OA
ATOM     36  O   UNL     1       3.853   2.885   0.000  0.00  0.00    +0.000 OA
ENDBRANCH  32  33
ENDBRANCH  29  32
ENDBRANCH  28  29
ENDBRANCH  25  28
ENDBRANCH  24  25
ENDBRANCH  23  24
ENDBRANCH   7  23
TORSDOF 8
