REMARK  Name = 
REMARK  8 active torsions:
REMARK  status: ('A' for Active; 'I' for Inactive)
REMARK    1  A    between atoms: C_2  and  C_4
REMARK    2  A    between atoms: C_8  and  N_10
REMARK    3  A    between atoms: C_12  and  C_15
REMARK    4  A    between atoms: C_19  and  O_20
REMARK    5  A    between atoms: O_20  and  C_21
REMARK    6  A    between atoms: C_21  and  C_22
REMARK    7  A    between atoms: C_23  and  C_35
REMARK    8  A    between atoms: C_26  and  C_27
REMARK                            x       y       z     vdW  Elec       q    Type
REMARK                         _______ _______ _______ _____ _____    ______ ____
ROOT
ATOM      1  C   UNL     1       5.869  -3.600   0.000  0.00  0.00    +0.000 A 
ATOM      2  C   UNL     1       5.256  -4.152   0.000  0.00  0.00    +0.000 A 
ATOM      3 CL   UNL     1       5.428  -4.959   0.000  0.00  0.00    +0.000 Cl
ATOM      4  C   UNL     1       4.472  -3.897   0.000  0.00  0.00    +0.000 A 
ATOM      5  C   UNL     1       4.300  -3.090   0.000  0.00  0.00    +0.000 A 
ATOM      6  C   UNL     1       4.913  -2.538   0.000  0.00  0.00    +0.000 A 
ATOM      7  C   UNL     1       5.698  -2.793   0.000  0.00  0.00    +0.000 A 
ENDROOT
BRANCH   1  10
ATOM      8  N   UNL     1       7.694  -3.326   0.000  0.00  0.00    +0.000 N 
ATOM      9  C   UNL     1       7.439  -4.110   0.000  0.00  0.00    +0.000 C 
ATOM     10  C   UNL     1       6.654  -3.855   0.000  0.00  0.00    +0.000 C 
ATOM     11  O   UNL     1       6.399  -4.640   0.000  0.00  0.00    +0.000 OA
ATOM     12  C   UNL     1       6.909  -3.071   0.000  0.00  0.00    +0.000 C 
BRANCH   8  17
ATOM     13  C   UNL     1       9.207  -1.753   0.000  0.00  0.00    +0.000 A 
ATOM     14  C   UNL     1       9.899  -2.202   0.000  0.00  0.00    +0.000 A 
ATOM     15  C   UNL     1       9.856  -3.026   0.000  0.00  0.00    +0.000 A 
ATOM     16  N   UNL     1       9.120  -3.400   0.000  0.00  0.00    +0.000 NA
ATOM     17  C   UNL     1       8.429  -2.951   0.000  0.00  0.00    +0.000 A 
ATOM     18  C   UNL     1       8.472  -2.127   0.000  0.00  0.00    +0.000 A 
BRANCH  13  20
ATOM     19  O   UNL     1       9.985  -0.554   0.000  0.00  0.00    +0.000 OA
ATOM     20  C   UNL     1       9.250  -0.929   0.000  0.00  0.00    +0.000 C 
ATOM     21  O   UNL     1       8.558  -0.479   0.000  0.00  0.00    +0.000 OA
ENDBRANCH  13  20
ENDBRANCH   8  17
ENDBRANCH   1  10
BRANCH   5  22
ATOM     22  O   UNL     1       3.515  -2.836   0.000  0.00  0.00    +0.000 OA
BRANCH  22  23
ATOM     23  C   UNL     1       3.344  -2.029   0.000  0.00  0.00    +0.000 C 
BRANCH  23  24
ATOM     24  C   UNL     1       2.559  -1.774   0.000  0.00  0.00    +0.000 A 
ATOM     25  C   UNL     1       1.892  -2.259   0.000  0.00  0.00    +0.000 A 
ATOM     26  O   UNL     1       1.224  -1.774   0.000  0.00  0.00    +0.000 OA
ATOM     27  N   UNL     1       1.479  -0.989   0.000  0.00  0.00    +0.000 NA
ATOM     28  C   UNL     1       2.304  -0.989   0.000  0.00  0.00    +0.000 A 
BRANCH  28  29
ATOM     29  C   UNL     1       2.789  -0.322   0.000  0.00  0.00    +0.000 A 
ATOM     30  C   UNL     1       2.454   0.432   0.000  0.00  0.00    +0.000 A 
ATOM     31 CL   UNL     1       1.633   0.518   0.000  0.00  0.00    +0.000 Cl
ATOM     32  C   UNL     1       2.939   1.100   0.000  0.00  0.00    +0.000 A 
ATOM     33  C   UNL     1       3.759   1.013   0.000  0.00  0.00    +0.000 A 
ATOM     34  C   UNL     1       4.095   0.260   0.000  0.00  0.00    +0.000 A 
ATOM     35  C   UNL     1       3.610  -0.408   0.000  0.00  0.00    +0.000 A 
ATOM     36 CL   UNL     1       3.945  -1.161   0.000  0.00  0.00    +0.000 Cl
ENDBRANCH  28  29
BRANCH  25  37
ATOM     37  C   UNL     1       1.892  -3.083   0.000  0.00  0.00    +0.000 C 
ATOM     38  C   UNL     1       2.304  -3.798   0.000  0.00  0.00    +0.000 C 
ATOM     39  C   UNL     1       1.479  -3.798   0.000  0.00  0.00    +0.000 C 
ENDBRANCH  25  37
ENDBRANCH  23  24
ENDBRANCH  22  23
ENDBRANCH   5  22
TORSDOF 8
