REMARK  Name = 
REMARK  11 active torsions:
REMARK  status: ('A' for Active; 'I' for Inactive)
REMARK    1  A    between atoms: C_2  and  C_3
REMARK    2  A    between atoms: C_2  and  N_7
REMARK    3  A    between atoms: C_3  and  O_5
REMARK    4  A    between atoms: N_7  and  P_8
REMARK    5  A    between atoms: P_8  and  O_10
REMARK    6  A    between atoms: P_8  and  O_29
REMARK    7  A    between atoms: O_10  and  C_11
REMARK    8  A    between atoms: C_11  and  C_12
REMARK    9  A    between atoms: C_15  and  N_17
REMARK   10  A    between atoms: C_19  and  C_25
REMARK   11  A    between atoms: O_29  and  C_30
REMARK                            x       y       z     vdW  Elec       q    Type
REMARK                         _______ _______ _______ _____ _____    ______ ____
ROOT
ATOM      1  C   UNL     1       3.430   1.913   0.000  0.00  0.00    +0.000 C 
ENDROOT
BRANCH   1   2
ATOM      2  C   UNL     1       3.430   1.089   0.000  0.00  0.00    +0.000 C 
ATOM      3  C   UNL     1       4.097   0.604   0.000  0.00  0.00    +0.000 C 
ATOM      4  C   UNL     1       3.842  -0.181   0.000  0.00  0.00    +0.000 C 
ATOM      5  C   UNL     1       3.017  -0.181   0.000  0.00  0.00    +0.000 C 
ATOM      6  O   UNL     1       2.762   0.604   0.000  0.00  0.00    +0.000 OA
ATOM      7  O   UNL     1       4.882   0.859   0.000  0.00  0.00    +0.000 OA
BRANCH   5   8
ATOM      8  N   UNL     1       2.532  -0.849   0.000  0.00  0.00    +0.000 N 
ATOM      9  C   UNL     1       2.868  -1.602   0.000  0.00  0.00    +0.000 A 
ATOM     10  C   UNL     1       2.383  -2.270   0.000  0.00  0.00    +0.000 A 
ATOM     11  C   UNL     1       1.563  -2.183   0.000  0.00  0.00    +0.000 A 
ATOM     12  O   UNL     1       1.078  -2.851   0.000  0.00  0.00    +0.000 OA
ATOM     13  N   UNL     1       1.227  -1.430   0.000  0.00  0.00    +0.000 NA
ATOM     14  C   UNL     1       1.712  -0.762   0.000  0.00  0.00    +0.000 A 
ATOM     15  O   UNL     1       1.376  -0.009   0.000  0.00  0.00    +0.000 OA
BRANCH  10  16
ATOM     16  C   UNL     1       2.719  -3.023   0.000  0.00  0.00    +0.000 C 
ATOM     17  C   UNL     1       2.234  -3.691   0.000  0.00  0.00    +0.000 C 
ATOM     18 BR   UNL     1       2.569  -4.444   0.000  0.00  0.00    +0.000 Br
ENDBRANCH  10  16
ENDBRANCH   5   8
ENDBRANCH   1   2
BRANCH   1  19
ATOM     19  O   UNL     1       4.144   2.326   0.000  0.00  0.00    +0.000 OA
BRANCH  19  20
ATOM     20  P   UNL     1       4.144   3.151   0.000  0.00  0.00    +0.000 P 
ATOM     21  O   UNL     1       3.319   3.151   0.000  0.00  0.00    +0.000 OA
BRANCH  20  22
ATOM     22  N   UNL     1       4.144   3.976   0.000  0.00  0.00    +0.000 NA
BRANCH  22  24
ATOM     23  C   UNL     1       5.573   3.976   0.000  0.00  0.00    +0.000 C 
ATOM     24  C   UNL     1       4.859   4.388   0.000  0.00  0.00    +0.000 C 
BRANCH  24  25
ATOM     25  C   UNL     1       4.859   5.213   0.000  0.00  0.00    +0.000 C 
ATOM     26  O   UNL     1       4.144   5.626   0.000  0.00  0.00    +0.000 OA
BRANCH  25  27
ATOM     27  O   UNL     1       5.573   5.626   0.000  0.00  0.00    +0.000 OA
ATOM     28  C   UNL     1       5.573   6.451   0.000  0.00  0.00    +0.000 C 
ENDBRANCH  25  27
ENDBRANCH  24  25
ENDBRANCH  22  24
ENDBRANCH  20  22
BRANCH  20  29
ATOM     29  O   UNL     1       4.969   3.151   0.000  0.00  0.00    +0.000 OA
BRANCH  29  30
ATOM     30  C   UNL     1       5.382   2.437   0.000  0.00  0.00    +0.000 A 
ATOM     31  C   UNL     1       6.207   2.437   0.000  0.00  0.00    +0.000 A 
ATOM     32  C   UNL     1       6.619   1.722   0.000  0.00  0.00    +0.000 A 
ATOM     33  C   UNL     1       6.207   1.008   0.000  0.00  0.00    +0.000 A 
ATOM     34  C   UNL     1       5.382   1.008   0.000  0.00  0.00    +0.000 A 
ATOM     35  C   UNL     1       4.969   1.722   0.000  0.00  0.00    +0.000 A 
ENDBRANCH  29  30
ENDBRANCH  20  29
ENDBRANCH  19  20
ENDBRANCH   1  19
TORSDOF 11
