REMARK  Name = 
REMARK  7 active torsions:
REMARK  status: ('A' for Active; 'I' for Inactive)
REMARK    1  A    between atoms: N_2  and  C_3
REMARK    2  A    between atoms: C_3  and  C_4
REMARK    3  A    between atoms: C_13  and  O_14
REMARK    4  A    between atoms: O_14  and  C_15
REMARK    5  A    between atoms: C_21  and  C_23
REMARK    6  A    between atoms: C_23  and  N_24
REMARK    7  A    between atoms: C_25  and  C_27
REMARK                            x       y       z     vdW  Elec       q    Type
REMARK                         _______ _______ _______ _____ _____    ______ ____
ROOT
ATOM      1  C   UNL     1       0.024  -1.608   0.000  0.00  0.00    +0.000 C 
ATOM      2  O   UNL     1       0.024  -0.783   0.000  0.00  0.00    +0.000 OA
ATOM      3  N   UNL     1      -0.690  -2.020   0.000  0.00  0.00    +0.000 NA
ATOM      4  C   UNL     1      -1.405  -1.608   0.000  0.00  0.00    +0.000 A 
ATOM      5  N   UNL     1      -1.491  -0.787   0.000  0.00  0.00    +0.000 NA
ATOM      6  C   UNL     1      -2.298  -0.616   0.000  0.00  0.00    +0.000 A 
ATOM      7  C   UNL     1      -2.710  -1.330   0.000  0.00  0.00    +0.000 A 
ATOM      8  S   UNL     1      -2.158  -1.943   0.000  0.00  0.00    +0.000 S 
ATOM      9  C   UNL     1      -3.535  -1.330   0.000  0.00  0.00    +0.000 A 
ATOM     10  C   UNL     1      -3.948  -0.616   0.000  0.00  0.00    +0.000 A 
ATOM     11  C   UNL     1      -3.535   0.099   0.000  0.00  0.00    +0.000 A 
ATOM     12  C   UNL     1      -2.710   0.099   0.000  0.00  0.00    +0.000 A 
ENDROOT
BRANCH  10  13
ATOM     13  O   UNL     1      -4.773  -0.616   0.000  0.00  0.00    +0.000 OA
BRANCH  13  14
ATOM     14  C   UNL     1      -5.185   0.099   0.000  0.00  0.00    +0.000 C 
ATOM     15  F   UNL     1      -5.598   0.813   0.000  0.00  0.00    +0.000 F 
ATOM     16  F   UNL     1      -5.900  -0.314   0.000  0.00  0.00    +0.000 F 
ATOM     17  F   UNL     1      -4.471   0.511   0.000  0.00  0.00    +0.000 F 
ENDBRANCH  13  14
ENDBRANCH  10  13
BRANCH   1  18
ATOM     18  C   UNL     1       0.739  -2.020   0.000  0.00  0.00    +0.000 C 
BRANCH  18  20
ATOM     19  C   UNL     1       1.453  -0.783   0.000  0.00  0.00    +0.000 C 
ATOM     20  N   UNL     1       1.453  -1.608   0.000  0.00  0.00    +0.000 N 
ATOM     21  C   UNL     1       2.168  -2.020   0.000  0.00  0.00    +0.000 C 
ATOM     22  O   UNL     1       2.168  -2.845   0.000  0.00  0.00    +0.000 OA
BRANCH  21  23
ATOM     23  C   UNL     1       2.882  -1.608   0.000  0.00  0.00    +0.000 C 
BRANCH  23  24
ATOM     24  N   UNL     1       3.597  -2.020   0.000  0.00  0.00    +0.000 NA
ATOM     25  C   UNL     1       4.311  -1.608   0.000  0.00  0.00    +0.000 C 
ATOM     26  O   UNL     1       4.311  -0.783   0.000  0.00  0.00    +0.000 OA
BRANCH  25  27
ATOM     27  C   UNL     1       5.026  -2.020   0.000  0.00  0.00    +0.000 C 
ATOM     28  N   UNL     1       5.740  -1.608   0.000  0.00  0.00    +0.000 NA
ENDBRANCH  25  27
ENDBRANCH  23  24
ENDBRANCH  21  23
ENDBRANCH  18  20
ENDBRANCH   1  18
TORSDOF 7
