REMARK  Name = 
REMARK  5 active torsions:
REMARK  status: ('A' for Active; 'I' for Inactive)
REMARK    1  A    between atoms: N_2  and  C_4
REMARK    2  A    between atoms: C_6  and  C_7
REMARK    3  A    between atoms: C_14  and  C_15
REMARK    4  A    between atoms: C_17  and  N_22
REMARK    5  A    between atoms: C_27  and  C_29
REMARK                            x       y       z     vdW  Elec       q    Type
REMARK                         _______ _______ _______ _____ _____    ______ ____
ROOT
ATOM      1  C   UNL     1       0.314  -2.630   0.000  0.00  0.00    +0.000 C 
ATOM      2  C   UNL     1       1.028  -2.217   0.000  0.00  0.00    +0.000 C 
ATOM      3  C   UNL     1       0.967  -1.395   0.000  0.00  0.00    +0.000 C 
ATOM      4  N   UNL     1       1.571  -0.834   0.000  0.00  0.00    +0.000 N 
ATOM      5  C   UNL     1       2.387  -0.957   0.000  0.00  0.00    +0.000 C 
ATOM      6  C   UNL     1       2.800  -1.671   0.000  0.00  0.00    +0.000 C 
ATOM      7  C   UNL     1       2.498  -2.439   0.000  0.00  0.00    +0.000 C 
ATOM      8  C   UNL     1       3.059  -3.044   0.000  0.00  0.00    +0.000 C 
ATOM      9  C   UNL     1       1.710  -2.682   0.000  0.00  0.00    +0.000 C 
ATOM     10  O   UNL     1       1.587  -3.498   0.000  0.00  0.00    +0.000 OA
ATOM     11  C   UNL     1       1.328  -0.045   0.000  0.00  0.00    +0.000 C 
ATOM     12  O   UNL     1       1.889   0.559   0.000  0.00  0.00    +0.000 OA
ENDROOT
BRANCH   1  15
ATOM     13  C   UNL     1      -1.115  -0.980   0.000  0.00  0.00    +0.000 A 
ATOM     14  C   UNL     1      -0.401  -1.393   0.000  0.00  0.00    +0.000 A 
ATOM     15  C   UNL     1      -0.401  -2.217   0.000  0.00  0.00    +0.000 A 
ATOM     16  C   UNL     1      -1.115  -2.630   0.000  0.00  0.00    +0.000 A 
ATOM     17  C   UNL     1      -1.830  -2.217   0.000  0.00  0.00    +0.000 A 
ATOM     18  C   UNL     1      -1.830  -1.393   0.000  0.00  0.00    +0.000 A 
ATOM     19  F   UNL     1      -2.544  -0.980   0.000  0.00  0.00    +0.000 F 
BRANCH  13  21
ATOM     20  O   UNL     1      -1.830   0.258   0.000  0.00  0.00    +0.000 OA
ATOM     21  N   UNL     1      -1.115  -0.155   0.000  0.00  0.00    +0.000 N 
ATOM     22  O   UNL     1      -0.401   0.258   0.000  0.00  0.00    +0.000 OA
ENDBRANCH  13  21
ENDBRANCH   1  15
BRANCH   8  23
ATOM     23  C   UNL     1       3.864  -2.860   0.000  0.00  0.00    +0.000 A 
ATOM     24  C   UNL     1       4.107  -2.072   0.000  0.00  0.00    +0.000 A 
ATOM     25  C   UNL     1       4.911  -1.888   0.000  0.00  0.00    +0.000 A 
ATOM     26  C   UNL     1       5.472  -2.493   0.000  0.00  0.00    +0.000 A 
ATOM     27  F   UNL     1       6.277  -2.310   0.000  0.00  0.00    +0.000 F 
ATOM     28  C   UNL     1       5.229  -3.281   0.000  0.00  0.00    +0.000 A 
ATOM     29  C   UNL     1       4.425  -3.465   0.000  0.00  0.00    +0.000 A 
BRANCH  25  30
ATOM     30  N   UNL     1       5.154  -1.100   0.000  0.00  0.00    +0.000 N 
ATOM     31  O   UNL     1       5.959  -0.916   0.000  0.00  0.00    +0.000 OA
ATOM     32  O   UNL     1       4.593  -0.495   0.000  0.00  0.00    +0.000 OA
ENDBRANCH  25  30
ENDBRANCH   8  23
BRANCH  11  33
ATOM     33  C   UNL     1       0.524   0.138   0.000  0.00  0.00    +0.000 C 
ATOM     34  C   UNL     1       0.281   0.927   0.000  0.00  0.00    +0.000 C 
ENDBRANCH  11  33
TORSDOF 5
