REMARK  Name = 
REMARK  9 active torsions:
REMARK  status: ('A' for Active; 'I' for Inactive)
REMARK    1  A    between atoms: C_3  and  C_10
REMARK    2  A    between atoms: C_4  and  C_9
REMARK    3  A    between atoms: C_6  and  O_8
REMARK    4  A    between atoms: C_6  and  C_9
REMARK    5  A    between atoms: C_10  and  O_11
REMARK    6  A    between atoms: O_11  and  C_13
REMARK    7  A    between atoms: C_16  and  C_22
REMARK    8  A    between atoms: C_19  and  C_24
REMARK    9  A    between atoms: C_27  and  O_29
REMARK                            x       y       z     vdW  Elec       q    Type
REMARK                         _______ _______ _______ _____ _____    ______ ____
ROOT
ATOM      1  C   UNL     1      -3.154  -1.069   0.000  0.00  0.00    +0.000 A 
ATOM      2  C   UNL     1      -3.151  -0.243   0.000  0.00  0.00    +0.000 A 
ATOM      3  C   UNL     1      -2.434   0.166   0.000  0.00  0.00    +0.000 A 
ATOM      4  C   UNL     1      -1.722  -0.250   0.000  0.00  0.00    +0.000 A 
ATOM      5  C   UNL     1      -1.725  -1.075   0.000  0.00  0.00    +0.000 A 
ATOM      6  C   UNL     1      -2.441  -1.484   0.000  0.00  0.00    +0.000 A 
ENDROOT
BRANCH   5  11
ATOM      7  C   UNL     1       0.416  -1.496   0.000  0.00  0.00    +0.000 A 
ATOM      8  C   UNL     1       0.413  -2.321   0.000  0.00  0.00    +0.000 A 
ATOM      9  C   UNL     1      -0.303  -2.731   0.000  0.00  0.00    +0.000 A 
ATOM     10  C   UNL     1      -1.016  -2.315   0.000  0.00  0.00    +0.000 A 
ATOM     11  C   UNL     1      -1.012  -1.490   0.000  0.00  0.00    +0.000 A 
ATOM     12  C   UNL     1      -0.296  -1.081   0.000  0.00  0.00    +0.000 A 
BRANCH   8  13
ATOM     13  C   UNL     1       1.126  -2.736   0.000  0.00  0.00    +0.000 C 
ATOM     14  N   UNL     1       1.122  -3.561   0.000  0.00  0.00    +0.000 NA
ATOM     15  N   UNL     1       1.842  -2.327   0.000  0.00  0.00    +0.000 NA
ATOM     16  C   UNL     1       2.555  -2.742   0.000  0.00  0.00    +0.000 C 
ATOM     17  O   UNL     1       2.551  -3.567   0.000  0.00  0.00    +0.000 OA
BRANCH  16  18
ATOM     18  O   UNL     1       3.271  -2.333   0.000  0.00  0.00    +0.000 OA
ATOM     19  C   UNL     1       3.984  -2.748   0.000  0.00  0.00    +0.000 C 
ENDBRANCH  16  18
ENDBRANCH   8  13
ENDBRANCH   5  11
BRANCH   2  20
ATOM     20  O   UNL     1      -3.863   0.172   0.000  0.00  0.00    +0.000 OA
BRANCH  20  21
ATOM     21  C   UNL     1      -3.880   0.997   0.000  0.00  0.00    +0.000 C 
BRANCH  21  24
ATOM     22  N   UNL     1      -2.517   1.007   0.000  0.00  0.00    +0.000 NA
ATOM     23  C   UNL     1      -1.818   1.473   0.000  0.00  0.00    +0.000 C 
ATOM     24  C   UNL     1      -3.177   1.473   0.000  0.00  0.00    +0.000 C 
ATOM     25  C   UNL     1      -2.090   2.289   0.000  0.00  0.00    +0.000 C 
ATOM     26  C   UNL     1      -2.944   2.289   0.000  0.00  0.00    +0.000 C 
ATOM     27  O   UNL     1      -1.042   1.240   0.000  0.00  0.00    +0.000 OA
BRANCH  25  28
ATOM     28  C   UNL     1      -1.585   2.949   0.000  0.00  0.00    +0.000 C 
BRANCH  28  29
ATOM     29  C   UNL     1      -0.770   2.871   0.000  0.00  0.00    +0.000 C 
ATOM     30  O   UNL     1      -0.399   2.127   0.000  0.00  0.00    +0.000 OA
BRANCH  29  31
ATOM     31  O   UNL     1      -0.280   3.567   0.000  0.00  0.00    +0.000 OA
ATOM     32  C   UNL     1       0.535   3.490   0.000  0.00  0.00    +0.000 C 
ENDBRANCH  29  31
ENDBRANCH  28  29
ENDBRANCH  25  28
ENDBRANCH  21  24
ENDBRANCH  20  21
ENDBRANCH   2  20
TORSDOF 9
