REMARK  Name = 
REMARK  1 active torsions:
REMARK  status: ('A' for Active; 'I' for Inactive)
REMARK    1  A    between atoms: C_5  and  C_9
REMARK                            x       y       z     vdW  Elec       q    Type
REMARK                         _______ _______ _______ _____ _____    ______ ____
ROOT
ATOM      1  C   UNL     1      -3.215  -0.825   0.000  0.00  0.00    +0.000 A 
ATOM      2  C   UNL     1      -3.930  -1.237   0.000  0.00  0.00    +0.000 A 
ATOM      3  C   UNL     1      -3.930  -2.062   0.000  0.00  0.00    +0.000 A 
ATOM      4  C   UNL     1      -3.215  -2.475   0.000  0.00  0.00    +0.000 A 
ATOM      5  C   UNL     1      -2.501  -2.062   0.000  0.00  0.00    +0.000 A 
ATOM      6  C   UNL     1      -2.501  -1.237   0.000  0.00  0.00    +0.000 A 
ATOM      7  F   UNL     1      -4.644  -0.825   0.000  0.00  0.00    +0.000 F 
ATOM      8  F   UNL     1      -3.215  -3.300   0.000  0.00  0.00    +0.000 F 
ENDROOT
BRANCH   5   9
ATOM      9  C   UNL     1      -1.786  -2.475   0.000  0.00  0.00    +0.000 C 
ATOM     10  O   UNL     1      -1.786  -3.300   0.000  0.00  0.00    +0.000 OA
ENDBRANCH   5   9
TORSDOF 1
