REMARK  Name = 
REMARK  37 active torsions:
REMARK  status: ('A' for Active; 'I' for Inactive)
REMARK    1  A    between atoms: AL_7  and  O_9
REMARK    2  A    between atoms: O_9  and  S_10
REMARK    3  A    between atoms: S_10  and  O_13
REMARK    4  A    between atoms: O_13  and  C_14
REMARK    5  A    between atoms: C_14  and  C_15
REMARK    6  A    between atoms: C_17  and  C_18
REMARK    7  A    between atoms: C_17  and  O_27
REMARK    8  A    between atoms: C_18  and  O_19
REMARK    9  A    between atoms: O_19  and  S_20
REMARK   10  A    between atoms: S_20  and  O_23
REMARK   11  A    between atoms: O_23  and  AL_24
REMARK   12  A    between atoms: O_27  and  C_28
REMARK   13  A    between atoms: C_30  and  C_31
REMARK   14  A    between atoms: C_31  and  O_32
REMARK   15  A    between atoms: O_32  and  S_33
REMARK   16  A    between atoms: S_33  and  O_36
REMARK   17  A    between atoms: O_36  and  AL_37
REMARK   18  A    between atoms: C_40  and  O_41
REMARK   19  A    between atoms: O_41  and  S_42
REMARK   20  A    between atoms: S_42  and  O_45
REMARK   21  A    between atoms: O_45  and  AL_46
REMARK   22  A    between atoms: C_49  and  O_50
REMARK   23  A    between atoms: O_50  and  S_51
REMARK   24  A    between atoms: S_51  and  O_54
REMARK   25  A    between atoms: O_54  and  AL_55
REMARK   26  A    between atoms: C_58  and  O_59
REMARK   27  A    between atoms: O_59  and  S_60
REMARK   28  A    between atoms: S_60  and  O_63
REMARK   29  A    between atoms: O_63  and  AL_64
REMARK   30  A    between atoms: C_67  and  O_68
REMARK   31  A    between atoms: O_68  and  S_69
REMARK   32  A    between atoms: S_69  and  O_72
REMARK   33  A    between atoms: O_72  and  AL_73
REMARK   34  A    between atoms: C_76  and  O_77
REMARK   35  A    between atoms: O_77  and  S_78
REMARK   36  A    between atoms: S_78  and  O_81
REMARK   37  A    between atoms: O_81  and  AL_82
REMARK                            x       y       z     vdW  Elec       q    Type
REMARK                         _______ _______ _______ _____ _____    ______ ____
ROOT
ATOM      1  O   HOH     1       7.799  -0.439   0.000  0.00  0.00    +0.000 OA
ENDROOT
TORSDOF 0
REMARK  Name = 
REMARK  37 active torsions:
REMARK  status: ('A' for Active; 'I' for Inactive)
REMARK    1  A    between atoms: AL_7  and  O_9
REMARK    2  A    between atoms: O_9  and  S_10
REMARK    3  A    between atoms: S_10  and  O_13
REMARK    4  A    between atoms: O_13  and  C_14
REMARK    5  A    between atoms: C_14  and  C_15
REMARK    6  A    between atoms: C_17  and  C_18
REMARK    7  A    between atoms: C_17  and  O_27
REMARK    8  A    between atoms: C_18  and  O_19
REMARK    9  A    between atoms: O_19  and  S_20
REMARK   10  A    between atoms: S_20  and  O_23
REMARK   11  A    between atoms: O_23  and  AL_24
REMARK   12  A    between atoms: O_27  and  C_28
REMARK   13  A    between atoms: C_30  and  C_31
REMARK   14  A    between atoms: C_31  and  O_32
REMARK   15  A    between atoms: O_32  and  S_33
REMARK   16  A    between atoms: S_33  and  O_36
REMARK   17  A    between atoms: O_36  and  AL_37
REMARK   18  A    between atoms: C_40  and  O_41
REMARK   19  A    between atoms: O_41  and  S_42
REMARK   20  A    between atoms: S_42  and  O_45
REMARK   21  A    between atoms: O_45  and  AL_46
REMARK   22  A    between atoms: C_49  and  O_50
REMARK   23  A    between atoms: O_50  and  S_51
REMARK   24  A    between atoms: S_51  and  O_54
REMARK   25  A    between atoms: O_54  and  AL_55
REMARK   26  A    between atoms: C_58  and  O_59
REMARK   27  A    between atoms: O_59  and  S_60
REMARK   28  A    between atoms: S_60  and  O_63
REMARK   29  A    between atoms: O_63  and  AL_64
REMARK   30  A    between atoms: C_67  and  O_68
REMARK   31  A    between atoms: O_68  and  S_69
REMARK   32  A    between atoms: S_69  and  O_72
REMARK   33  A    between atoms: O_72  and  AL_73
REMARK   34  A    between atoms: C_76  and  O_77
REMARK   35  A    between atoms: O_77  and  S_78
REMARK   36  A    between atoms: S_78  and  O_81
REMARK   37  A    between atoms: O_81  and  AL_82
REMARK                            x       y       z     vdW  Elec       q    Type
REMARK                         _______ _______ _______ _____ _____    ______ ____
ROOT
ATOM      1  O   UNL     1       8.223  -3.055   0.000  0.00  0.00    +0.000 OA
ATOM      2 AL   UNL     1       7.810  -3.769   0.000  0.00  0.00    +0.000 Al
ATOM      3  O   UNL     1       8.223  -4.484   0.000  0.00  0.00    +0.000 OA
ATOM      4  O   UNL     1       6.985  -3.769   0.000  0.00  0.00    +0.000 OA
ENDROOT
TORSDOF 0
REMARK  Name = 
REMARK  37 active torsions:
REMARK  status: ('A' for Active; 'I' for Inactive)
REMARK    1  A    between atoms: AL_7  and  O_9
REMARK    2  A    between atoms: O_9  and  S_10
REMARK    3  A    between atoms: S_10  and  O_13
REMARK    4  A    between atoms: O_13  and  C_14
REMARK    5  A    between atoms: C_14  and  C_15
REMARK    6  A    between atoms: C_17  and  C_18
REMARK    7  A    between atoms: C_17  and  O_27
REMARK    8  A    between atoms: C_18  and  O_19
REMARK    9  A    between atoms: O_19  and  S_20
REMARK   10  A    between atoms: S_20  and  O_23
REMARK   11  A    between atoms: O_23  and  AL_24
REMARK   12  A    between atoms: O_27  and  C_28
REMARK   13  A    between atoms: C_30  and  C_31
REMARK   14  A    between atoms: C_31  and  O_32
REMARK   15  A    between atoms: O_32  and  S_33
REMARK   16  A    between atoms: S_33  and  O_36
REMARK   17  A    between atoms: O_36  and  AL_37
REMARK   18  A    between atoms: C_40  and  O_41
REMARK   19  A    between atoms: O_41  and  S_42
REMARK   20  A    between atoms: S_42  and  O_45
REMARK   21  A    between atoms: O_45  and  AL_46
REMARK   22  A    between atoms: C_49  and  O_50
REMARK   23  A    between atoms: O_50  and  S_51
REMARK   24  A    between atoms: S_51  and  O_54
REMARK   25  A    between atoms: O_54  and  AL_55
REMARK   26  A    between atoms: C_58  and  O_59
REMARK   27  A    between atoms: O_59  and  S_60
REMARK   28  A    between atoms: S_60  and  O_63
REMARK   29  A    between atoms: O_63  and  AL_64
REMARK   30  A    between atoms: C_67  and  O_68
REMARK   31  A    between atoms: O_68  and  S_69
REMARK   32  A    between atoms: S_69  and  O_72
REMARK   33  A    between atoms: O_72  and  AL_73
REMARK   34  A    between atoms: C_76  and  O_77
REMARK   35  A    between atoms: O_77  and  S_78
REMARK   36  A    between atoms: S_78  and  O_81
REMARK   37  A    between atoms: O_81  and  AL_82
REMARK                            x       y       z     vdW  Elec       q    Type
REMARK                         _______ _______ _______ _____ _____    ______ ____
ROOT
ATOM      1  O   UNL     1       1.338  -1.829   0.000  0.00  0.00    +0.000 OA
ENDROOT
BRANCH   1   2
ATOM      2  C   UNL     1       1.083  -1.044   0.000  0.00  0.00    +0.000 C 
ATOM      3  O   UNL     1       0.276  -0.873   0.000  0.00  0.00    +0.000 OA
ATOM      4  C   UNL     1       0.021  -0.088   0.000  0.00  0.00    +0.000 C 
ATOM      5  C   UNL     1       0.573   0.525   0.000  0.00  0.00    +0.000 C 
ATOM      6  C   UNL     1       1.380   0.353   0.000  0.00  0.00    +0.000 C 
ATOM      7  C   UNL     1       1.635  -0.431   0.000  0.00  0.00    +0.000 C 
BRANCH   5   8
ATOM      8  O   UNL     1       0.318   1.310   0.000  0.00  0.00    +0.000 OA
BRANCH   8   9
ATOM      9  S   UNL     1      -0.489   1.481   0.000  0.00  0.00    +0.000 S 
ATOM     10  O   UNL     1      -1.296   1.653   0.000  0.00  0.00    +0.000 OA
ATOM     11  O   UNL     1      -0.660   0.674   0.000  0.00  0.00    +0.000 OA
BRANCH   9  12
ATOM     12  O   UNL     1      -0.317   2.288   0.000  0.00  0.00    +0.000 OA
BRANCH  12  13
ATOM     13 AL   UNL     1      -0.930   2.840   0.000  0.00  0.00    +0.000 Al
ATOM     14  O   UNL     1      -1.715   2.585   0.000  0.00  0.00    +0.000 OA
ATOM     15  O   UNL     1      -0.759   3.647   0.000  0.00  0.00    +0.000 OA
ENDBRANCH  12  13
ENDBRANCH   9  12
ENDBRANCH   8   9
ENDBRANCH   5   8
BRANCH   6  16
ATOM     16  O   UNL     1       1.932   0.967   0.000  0.00  0.00    +0.000 OA
BRANCH  16  17
ATOM     17  S   UNL     1       2.739   0.795   0.000  0.00  0.00    +0.000 S 
ATOM     18  O   UNL     1       2.567  -0.012   0.000  0.00  0.00    +0.000 OA
ATOM     19  O   UNL     1       3.546   0.624   0.000  0.00  0.00    +0.000 OA
BRANCH  17  20
ATOM     20  O   UNL     1       2.911   1.602   0.000  0.00  0.00    +0.000 OA
BRANCH  20  21
ATOM     21 AL   UNL     1       3.695   1.857   0.000  0.00  0.00    +0.000 Al
ATOM     22  O   UNL     1       3.867   2.664   0.000  0.00  0.00    +0.000 OA
ATOM     23  O   UNL     1       4.308   1.305   0.000  0.00  0.00    +0.000 OA
ENDBRANCH  20  21
ENDBRANCH  17  20
ENDBRANCH  16  17
ENDBRANCH   6  16
BRANCH   4  24
ATOM     24  C   UNL     1      -0.786   0.084   0.000  0.00  0.00    +0.000 C 
BRANCH  24  25
ATOM     25  O   UNL     1      -1.338  -0.529   0.000  0.00  0.00    +0.000 OA
BRANCH  25  26
ATOM     26  S   UNL     1      -2.145  -0.358   0.000  0.00  0.00    +0.000 S 
ATOM     27  O   UNL     1      -1.973   0.449   0.000  0.00  0.00    +0.000 OA
ATOM     28  O   UNL     1      -2.316  -1.165   0.000  0.00  0.00    +0.000 OA
BRANCH  26  29
ATOM     29  O   UNL     1      -2.952  -0.186   0.000  0.00  0.00    +0.000 OA
BRANCH  29  30
ATOM     30 AL   UNL     1      -3.504  -0.800   0.000  0.00  0.00    +0.000 Al
ATOM     31  O   UNL     1      -3.249  -1.584   0.000  0.00  0.00    +0.000 OA
ATOM     32  O   UNL     1      -4.311  -0.628   0.000  0.00  0.00    +0.000 OA
ENDBRANCH  29  30
ENDBRANCH  26  29
ENDBRANCH  25  26
ENDBRANCH  24  25
ENDBRANCH   4  24
BRANCH   7  33
ATOM     33  O   UNL     1       2.442  -0.603   0.000  0.00  0.00    +0.000 OA
BRANCH  33  34
ATOM     34  S   UNL     1       2.697  -1.387   0.000  0.00  0.00    +0.000 S 
ATOM     35  O   UNL     1       3.482  -1.132   0.000  0.00  0.00    +0.000 OA
ATOM     36  O   UNL     1       1.912  -1.642   0.000  0.00  0.00    +0.000 OA
BRANCH  34  37
ATOM     37  O   UNL     1       2.952  -2.172   0.000  0.00  0.00    +0.000 OA
BRANCH  37  38
ATOM     38 AL   UNL     1       3.759  -2.343   0.000  0.00  0.00    +0.000 Al
ATOM     39  O   UNL     1       4.311  -1.730   0.000  0.00  0.00    +0.000 OA
ATOM     40  O   UNL     1       4.014  -3.128   0.000  0.00  0.00    +0.000 OA
ENDBRANCH  37  38
ENDBRANCH  34  37
ENDBRANCH  33  34
ENDBRANCH   7  33
ENDBRANCH   1   2
BRANCH   1  43
ATOM     41  C   UNL     1       0.373  -3.711   0.000  0.00  0.00    +0.000 C 
ATOM     42  O   UNL     1       0.118  -2.927   0.000  0.00  0.00    +0.000 OA
ATOM     43  C   UNL     1       0.786  -2.442   0.000  0.00  0.00    +0.000 C 
ATOM     44  C   UNL     1       1.453  -2.927   0.000  0.00  0.00    +0.000 C 
ATOM     45  C   UNL     1       1.198  -3.711   0.000  0.00  0.00    +0.000 C 
BRANCH  44  46
ATOM     46  O   UNL     1       2.238  -2.672   0.000  0.00  0.00    +0.000 OA
BRANCH  46  47
ATOM     47  S   UNL     1       2.851  -3.224   0.000  0.00  0.00    +0.000 S 
ATOM     48  O   UNL     1       3.403  -2.611   0.000  0.00  0.00    +0.000 OA
ATOM     49  O   UNL     1       2.299  -3.837   0.000  0.00  0.00    +0.000 OA
BRANCH  47  50
ATOM     50  O   UNL     1       3.464  -3.776   0.000  0.00  0.00    +0.000 OA
BRANCH  50  51
ATOM     51 AL   UNL     1       3.293  -4.583   0.000  0.00  0.00    +0.000 Al
ATOM     52  O   UNL     1       3.906  -5.135   0.000  0.00  0.00    +0.000 OA
ATOM     53  O   UNL     1       2.508  -4.838   0.000  0.00  0.00    +0.000 OA
ENDBRANCH  50  51
ENDBRANCH  47  50
ENDBRANCH  46  47
ENDBRANCH  44  46
BRANCH  43  54
ATOM     54  C   UNL     1       0.234  -1.829   0.000  0.00  0.00    +0.000 C 
BRANCH  54  55
ATOM     55  O   UNL     1      -0.573  -2.000   0.000  0.00  0.00    +0.000 OA
BRANCH  55  56
ATOM     56  S   UNL     1      -1.125  -1.387   0.000  0.00  0.00    +0.000 S 
ATOM     57  O   UNL     1      -0.512  -0.835   0.000  0.00  0.00    +0.000 OA
ATOM     58  O   UNL     1      -1.677  -0.774   0.000  0.00  0.00    +0.000 OA
BRANCH  56  59
ATOM     59  O   UNL     1      -1.738  -1.939   0.000  0.00  0.00    +0.000 OA
BRANCH  59  60
ATOM     60 AL   UNL     1      -1.567  -2.746   0.000  0.00  0.00    +0.000 Al
ATOM     61  O   UNL     1      -0.782  -3.001   0.000  0.00  0.00    +0.000 OA
ATOM     62  O   UNL     1      -2.180  -3.298   0.000  0.00  0.00    +0.000 OA
ENDBRANCH  59  60
ENDBRANCH  56  59
ENDBRANCH  55  56
ENDBRANCH  54  55
ENDBRANCH  43  54
BRANCH  45  63
ATOM     63  O   UNL     1       1.683  -4.379   0.000  0.00  0.00    +0.000 OA
BRANCH  63  64
ATOM     64  S   UNL     1       1.348  -5.133   0.000  0.00  0.00    +0.000 S 
ATOM     65  O   UNL     1       2.101  -5.468   0.000  0.00  0.00    +0.000 OA
ATOM     66  O   UNL     1       0.594  -4.797   0.000  0.00  0.00    +0.000 OA
BRANCH  64  67
ATOM     67  O   UNL     1       1.012  -5.886   0.000  0.00  0.00    +0.000 OA
BRANCH  67  68
ATOM     68 AL   UNL     1       0.192  -5.972   0.000  0.00  0.00    +0.000 Al
ATOM     69  O   UNL     1      -0.144  -6.726   0.000  0.00  0.00    +0.000 OA
ATOM     70  O   UNL     1      -0.293  -5.305   0.000  0.00  0.00    +0.000 OA
ENDBRANCH  67  68
ENDBRANCH  64  67
ENDBRANCH  63  64
ENDBRANCH  45  63
BRANCH  41  71
ATOM     71  C   UNL     1      -0.112  -4.379   0.000  0.00  0.00    +0.000 C 
BRANCH  71  72
ATOM     72  O   UNL     1      -0.932  -4.293   0.000  0.00  0.00    +0.000 OA
BRANCH  72  73
ATOM     73  S   UNL     1      -1.417  -4.960   0.000  0.00  0.00    +0.000 S 
ATOM     74  O   UNL     1      -0.749  -5.445   0.000  0.00  0.00    +0.000 OA
ATOM     75  O   UNL     1      -2.084  -4.475   0.000  0.00  0.00    +0.000 OA
BRANCH  73  76
ATOM     76  O   UNL     1      -1.902  -5.628   0.000  0.00  0.00    +0.000 OA
BRANCH  76  78
ATOM     77  O   UNL     1      -3.058  -4.788   0.000  0.00  0.00    +0.000 OA
ATOM     78 AL   UNL     1      -2.722  -5.541   0.000  0.00  0.00    +0.000 Al
ATOM     79  O   UNL     1      -3.207  -6.209   0.000  0.00  0.00    +0.000 OA
ENDBRANCH  76  78
ENDBRANCH  73  76
ENDBRANCH  72  73
ENDBRANCH  71  72
ENDBRANCH  41  71
ENDBRANCH   1  43
TORSDOF 37
