REMARK  Name = 
REMARK  4 active torsions:
REMARK  status: ('A' for Active; 'I' for Inactive)
REMARK    1  A    between atoms: C_19  and  C_21
REMARK    2  A    between atoms: C_21  and  O_22
REMARK    3  A    between atoms: C_21  and  C_23
REMARK    4  A    between atoms: O_22  and  C_29
REMARK                            x       y       z     vdW  Elec       q    Type
REMARK                         _______ _______ _______ _____ _____    ______ ____
ROOT
ATOM      1  N   UNL     1      -5.355   0.113   0.000  0.00  0.00    +0.000 N 
ATOM      2  C   UNL     1      -5.355  -0.712   0.000  0.00  0.00    +0.000 A 
ATOM      3  N   UNL     1      -4.643  -1.120   0.000  0.00  0.00    +0.000 N 
ATOM      4  C   UNL     1      -4.643   0.530   0.000  0.00  0.00    +0.000 A 
ATOM      5  C   UNL     1      -3.931   0.113   0.000  0.00  0.00    +0.000 A 
ATOM      6  C   UNL     1      -3.934  -0.712   0.000  0.00  0.00    +0.000 A 
ATOM      7  N   UNL     1      -2.510  -0.718   0.000  0.00  0.00    +0.000 NA
ATOM      8  C   UNL     1      -2.506   0.107   0.000  0.00  0.00    +0.000 A 
ATOM      9  N   UNL     1      -3.219   0.527   0.000  0.00  0.00    +0.000 NA
ATOM     10  C   UNL     1      -6.071   0.523   0.000  0.00  0.00    +0.000 C 
ATOM     11  C   UNL     1      -4.642  -1.945   0.000  0.00  0.00    +0.000 C 
ATOM     12 CL   UNL     1      -1.789   0.515   0.000  0.00  0.00    +0.000 Cl
ATOM     13  O   UNL     1      -6.069  -1.125   0.000  0.00  0.00    +0.000 OA
ATOM     14  O   UNL     1      -4.643   1.355   0.000  0.00  0.00    +0.000 OA
ENDROOT
TORSDOF 0
REMARK  Name = 
REMARK  4 active torsions:
REMARK  status: ('A' for Active; 'I' for Inactive)
REMARK    1  A    between atoms: C_19  and  C_21
REMARK    2  A    between atoms: C_21  and  O_22
REMARK    3  A    between atoms: C_21  and  C_23
REMARK    4  A    between atoms: O_22  and  C_29
REMARK                            x       y       z     vdW  Elec       q    Type
REMARK                         _______ _______ _______ _____ _____    ______ ____
ROOT
ATOM      1  C   UNL     1       2.505  -0.406   0.000  0.00  0.00    +0.000 C 
ENDROOT
BRANCH   1   6
ATOM      2  C   UNL     1       0.364  -0.824   0.000  0.00  0.00    +0.000 A 
ATOM      3  C   UNL     1       0.363  -1.652   0.000  0.00  0.00    +0.000 A 
ATOM      4  C   UNL     1       1.078  -2.065   0.000  0.00  0.00    +0.000 A 
ATOM      5  C   UNL     1       1.794  -1.651   0.000  0.00  0.00    +0.000 A 
ATOM      6  C   UNL     1       1.792  -0.821   0.000  0.00  0.00    +0.000 A 
ATOM      7  C   UNL     1       1.076  -0.412   0.000  0.00  0.00    +0.000 A 
ENDBRANCH   1   6
BRANCH   1   8
ATOM      8  C   UNL     1       2.502   0.419   0.000  0.00  0.00    +0.000 A 
ATOM      9  C   UNL     1       3.216   0.830   0.000  0.00  0.00    +0.000 A 
ATOM     10  C   UNL     1       3.213   1.654   0.000  0.00  0.00    +0.000 A 
ATOM     11  C   UNL     1       2.497   2.065   0.000  0.00  0.00    +0.000 A 
ATOM     12  C   UNL     1       1.782   1.645   0.000  0.00  0.00    +0.000 A 
ATOM     13  C   UNL     1       1.788   0.822   0.000  0.00  0.00    +0.000 A 
ENDBRANCH   1   8
BRANCH   1  14
ATOM     14  O   UNL     1       3.221  -0.815   0.000  0.00  0.00    +0.000 OA
BRANCH  14  15
ATOM     15  C   UNL     1       3.933  -0.395   0.000  0.00  0.00    +0.000 C 
ATOM     16  C   UNL     1       4.652  -0.804   0.000  0.00  0.00    +0.000 C 
ATOM     17  C   UNL     1       5.362  -0.387   0.000  0.00  0.00    +0.000 C 
ATOM     18  N   UNL     1       5.358   0.440   0.000  0.00  0.00    +0.000 NA
ATOM     19  C   UNL     1       4.639   0.848   0.000  0.00  0.00    +0.000 C 
ATOM     20  C   UNL     1       3.923   0.430   0.000  0.00  0.00    +0.000 C 
ATOM     21  C   UNL     1       6.071   0.856   0.000  0.00  0.00    +0.000 C 
ENDBRANCH  14  15
ENDBRANCH   1  14
TORSDOF 4
