REMARK  Name = 
REMARK  4 active torsions:
REMARK  status: ('A' for Active; 'I' for Inactive)
REMARK    1  A    between atoms: C_1  and  C_3
REMARK    2  A    between atoms: C_2  and  C_4
REMARK    3  A    between atoms: C_4  and  N_6
REMARK    4  A    between atoms: C_8  and  O_12
REMARK                            x       y       z     vdW  Elec       q    Type
REMARK                         _______ _______ _______ _____ _____    ______ ____
ROOT
ATOM      1  C   UNL     1       1.069  -0.408   0.000  0.00  0.00    +0.000 C 
ATOM      2  C   UNL     1       1.064   0.418   0.000  0.00  0.00    +0.000 C 
ATOM      3  O   UNL     1       1.059  -1.234   0.000  0.00  0.00    +0.000 OA
ATOM      4  C   UNL     1       1.788  -0.821   0.000  0.00  0.00    +0.000 C 
ATOM      5  C   UNL     1       1.783   0.831   0.000  0.00  0.00    +0.000 C 
ATOM      6  C   UNL     1       2.497  -0.408   0.000  0.00  0.00    +0.000 C 
ATOM      7  C   UNL     1       2.497   0.418   0.000  0.00  0.00    +0.000 C 
ENDROOT
BRANCH   1   8
ATOM      8  C   UNL     1       0.360  -0.826   0.000  0.00  0.00    +0.000 A 
ATOM      9  C   UNL     1      -0.355  -0.413   0.000  0.00  0.00    +0.000 A 
ATOM     10  C   UNL     1      -1.069  -0.826   0.000  0.00  0.00    +0.000 A 
ATOM     11  C   UNL     1       0.360  -1.657   0.000  0.00  0.00    +0.000 A 
ATOM     12  C   UNL     1      -0.355  -2.070   0.000  0.00  0.00    +0.000 A 
ATOM     13  C   UNL     1      -1.069  -1.657   0.000  0.00  0.00    +0.000 A 
BRANCH  10  14
ATOM     14  O   UNL     1      -1.783  -0.413   0.000  0.00  0.00    +0.000 OA
ATOM     15  C   UNL     1      -2.497  -0.826   0.000  0.00  0.00    +0.000 C 
ENDBRANCH  10  14
ENDBRANCH   1   8
BRANCH   2  16
ATOM     16  C   UNL     1       0.350   0.826   0.000  0.00  0.00    +0.000 C 
BRANCH  16  17
ATOM     17  N   UNL     1       0.345   1.652   0.000  0.00  0.00    +0.000 NA
ATOM     18  C   UNL     1      -0.369   2.065   0.000  0.00  0.00    +0.000 C 
ATOM     19  C   UNL     1       1.059   2.070   0.000  0.00  0.00    +0.000 C 
ENDBRANCH  16  17
ENDBRANCH   2  16
TORSDOF 4
