REMARK  Name = 
REMARK  8 active torsions:
REMARK  status: ('A' for Active; 'I' for Inactive)
REMARK    1  A    between atoms: C_1  and  C_2
REMARK    2  A    between atoms: C_3  and  N_22
REMARK    3  A    between atoms: C_6  and  C_10
REMARK    4  A    between atoms: N_9  and  O_18
REMARK    5  A    between atoms: C_10  and  N_12
REMARK    6  A    between atoms: O_18  and  C_19
REMARK    7  A    between atoms: C_19  and  C_20
REMARK    8  A    between atoms: N_22  and  C_23
REMARK                            x       y       z     vdW  Elec       q    Type
REMARK                         _______ _______ _______ _____ _____    ______ ____
ROOT
ATOM      1  C   UNL     1       0.000  -1.650   0.000  0.00  0.00    +0.000 A 
ATOM      2  C   UNL     1       0.000  -0.825   0.000  0.00  0.00    +0.000 A 
ATOM      3  C   UNL     1      -0.715  -0.412   0.000  0.00  0.00    +0.000 A 
ATOM      4  C   UNL     1      -1.429  -0.825   0.000  0.00  0.00    +0.000 A 
ATOM      5  C   UNL     1      -1.429  -1.650   0.000  0.00  0.00    +0.000 A 
ATOM      6  C   UNL     1      -0.715  -2.062   0.000  0.00  0.00    +0.000 A 
ATOM      7  F   UNL     1      -2.143  -0.412   0.000  0.00  0.00    +0.000 F 
ATOM      8  F   UNL     1      -0.715   0.412   0.000  0.00  0.00    +0.000 F 
ENDROOT
BRANCH   1   9
ATOM      9  C   UNL     1       0.715  -2.062   0.000  0.00  0.00    +0.000 C 
ATOM     10  O   UNL     1       0.715  -2.888   0.000  0.00  0.00    +0.000 OA
ATOM     11  N   UNL     1       1.429  -1.650   0.000  0.00  0.00    +0.000 NA
BRANCH  11  12
ATOM     12  O   UNL     1       2.143  -2.062   0.000  0.00  0.00    +0.000 OA
BRANCH  12  13
ATOM     13  C   UNL     1       2.858  -1.650   0.000  0.00  0.00    +0.000 C 
BRANCH  13  14
ATOM     14  C   UNL     1       3.572  -2.062   0.000  0.00  0.00    +0.000 C 
ATOM     15  O   UNL     1       4.287  -1.650   0.000  0.00  0.00    +0.000 OA
ENDBRANCH  13  14
ENDBRANCH  12  13
ENDBRANCH  11  12
ENDBRANCH   1   9
BRANCH   5  16
ATOM     16  C   UNL     1      -2.143  -2.062   0.000  0.00  0.00    +0.000 C 
BRANCH  16  18
ATOM     17  O   UNL     1      -2.858  -0.825   0.000  0.00  0.00    +0.000 OA
ATOM     18  N   UNL     1      -2.858  -1.650   0.000  0.00  0.00    +0.000 N 
ATOM     19  C   UNL     1      -3.572  -2.062   0.000  0.00  0.00    +0.000 C 
ATOM     20  C   UNL     1      -4.287  -1.650   0.000  0.00  0.00    +0.000 C 
ATOM     21  C   UNL     1      -4.287  -0.825   0.000  0.00  0.00    +0.000 C 
ATOM     22  C   UNL     1      -3.572  -0.412   0.000  0.00  0.00    +0.000 C 
ATOM     23  O   UNL     1      -3.572  -2.888   0.000  0.00  0.00    +0.000 OA
ENDBRANCH  16  18
ENDBRANCH   5  16
BRANCH   2  24
ATOM     24  N   UNL     1       0.715  -0.412   0.000  0.00  0.00    +0.000 NA
BRANCH  24  25
ATOM     25  C   UNL     1       0.715   0.412   0.000  0.00  0.00    +0.000 A 
ATOM     26  C   UNL     1       1.429   0.825   0.000  0.00  0.00    +0.000 A 
ATOM     27  C   UNL     1       1.429   1.650   0.000  0.00  0.00    +0.000 A 
ATOM     28  C   UNL     1       0.715   2.062   0.000  0.00  0.00    +0.000 A 
ATOM     29  C   UNL     1       0.000   1.650   0.000  0.00  0.00    +0.000 A 
ATOM     30  C   UNL     1       0.000   0.825   0.000  0.00  0.00    +0.000 A 
ATOM     31  I   UNL     1       0.715   2.888   0.000  0.00  0.00    +0.000 I 
ATOM     32  F   UNL     1       2.143   0.412   0.000  0.00  0.00    +0.000 F 
ENDBRANCH  24  25
ENDBRANCH   2  24
TORSDOF 8
