REMARK  Name = 
REMARK  8 active torsions:
REMARK  status: ('A' for Active; 'I' for Inactive)
REMARK    1  A    between atoms: N_7  and  C_18
REMARK    2  A    between atoms: N_9  and  C_23
REMARK    3  A    between atoms: C_12  and  C_16
REMARK    4  A    between atoms: C_18  and  C_19
REMARK    5  A    between atoms: C_18  and  C_22
REMARK    6  A    between atoms: C_19  and  C_21
REMARK    7  A    between atoms: C_21  and  C_23
REMARK    8  A    between atoms: C_22  and  C_24
REMARK                            x       y       z     vdW  Elec       q    Type
REMARK                         _______ _______ _______ _____ _____    ______ ____
ROOT
ATOM      1  C   UNL     1      -0.035   1.595   0.000  0.00  0.00    +0.000 C 
ENDROOT
BRANCH   1   3
ATOM      2  O   UNL     1       0.789   0.166   0.000  0.00  0.00    +0.000 OA
ATOM      3  N   UNL     1       0.789   1.595   0.000  0.00  0.00    +0.000 N 
ATOM      4  C   UNL     1       1.202   0.881   0.000  0.00  0.00    +0.000 C 
ATOM      5  H   UNL     1       1.045   2.038   0.000  0.00  0.00    +0.000 HD
BRANCH   4   9
ATOM      6  O   UNL     1       3.964  -0.017   0.000  0.00  0.00    +0.000 OA
ATOM      7  O   UNL     1       1.450   2.504   0.000  0.00  0.00    +0.000 OA
ATOM      8  N   UNL     1       2.512   1.548   0.000  0.00  0.00    +0.000 N 
ATOM      9  C   UNL     1       2.027   0.881   0.000  0.00  0.00    +0.000 C 
ATOM     10  C   UNL     1       2.512   0.213   0.000  0.00  0.00    +0.000 C 
ATOM     11  C   UNL     1       3.297   0.468   0.000  0.00  0.00    +0.000 C 
ATOM     12  C   UNL     1       3.297   1.293   0.000  0.00  0.00    +0.000 C 
ATOM     13  C   UNL     1       2.257   2.333   0.000  0.00  0.00    +0.000 C 
ATOM     14  C   UNL     1       2.809   2.946   0.000  0.00  0.00    +0.000 C 
ENDBRANCH   4   9
ENDBRANCH   1   3
BRANCH   1  16
ATOM     15  O   UNL     1      -0.035   3.024   0.000  0.00  0.00    +0.000 OA
ATOM     16  C   UNL     1      -0.448   2.310   0.000  0.00  0.00    +0.000 C 
BRANCH  16  19
ATOM     17  S   UNL     1      -1.754   2.974   0.000  0.00  0.00    +0.000 S 
ATOM     18  N   UNL     1      -1.754   1.646   0.000  0.00  0.00    +0.000 NA
ATOM     19  C   UNL     1      -1.273   2.310   0.000  0.00  0.00    +0.000 A 
ATOM     20  C   UNL     1      -2.535   2.722   0.000  0.00  0.00    +0.000 A 
ATOM     21  C   UNL     1      -2.535   1.897   0.000  0.00  0.00    +0.000 A 
ATOM     22  C   UNL     1      -3.250   3.135   0.000  0.00  0.00    +0.000 A 
ATOM     23  C   UNL     1      -3.250   1.485   0.000  0.00  0.00    +0.000 A 
ATOM     24  C   UNL     1      -3.964   2.722   0.000  0.00  0.00    +0.000 A 
ATOM     25  C   UNL     1      -3.964   1.897   0.000  0.00  0.00    +0.000 A 
ENDBRANCH  16  19
ENDBRANCH   1  16
BRANCH   1  26
ATOM     26  C   UNL     1      -0.448   0.881   0.000  0.00  0.00    +0.000 C 
BRANCH  26  27
ATOM     27  C   UNL     1      -0.035   0.166   0.000  0.00  0.00    +0.000 C 
BRANCH  27  28
ATOM     28  C   UNL     1      -0.448  -0.548   0.000  0.00  0.00    +0.000 C 
BRANCH  28  29
ATOM     29  N   UNL     1      -0.035  -1.263   0.000  0.00  0.00    +0.000 NA
ATOM     30  N   UNL     1      -1.273  -1.977   0.000  0.00  0.00    +0.000 N 
ATOM     31  N   UNL     1      -0.035  -2.692   0.000  0.00  0.00    +0.000 N 
ATOM     32  C   UNL     1      -0.448  -1.977   0.000  0.00  0.00    +0.000 C 
ATOM     33  H   UNL     1      -1.529  -1.534   0.000  0.00  0.00    +0.000 HD
ATOM     34  H   UNL     1      -1.529  -2.420   0.000  0.00  0.00    +0.000 HD
ATOM     35  H   UNL     1       0.476  -2.692   0.000  0.00  0.00    +0.000 HD
ATOM     36  H   UNL     1      -0.291  -3.135   0.000  0.00  0.00    +0.000 HD
ENDBRANCH  28  29
ENDBRANCH  27  28
ENDBRANCH  26  27
ENDBRANCH   1  26
TORSDOF 8
