REMARK  Name = 
REMARK  6 active torsions:
REMARK  status: ('A' for Active; 'I' for Inactive)
REMARK    1  A    between atoms: C_10  and  O_11
REMARK    2  A    between atoms: O_11  and  C_12
REMARK    3  A    between atoms: C_12  and  C_18
REMARK    4  A    between atoms: C_13  and  N_14
REMARK    5  A    between atoms: C_13  and  C_18
REMARK    6  A    between atoms: N_14  and  C_16
REMARK                            x       y       z     vdW  Elec       q    Type
REMARK                         _______ _______ _______ _____ _____    ______ ____
ROOT
ATOM      1  C   UNL     1      -1.072  -1.856   0.000  0.00  0.00    +0.000 A 
ATOM      2  C   UNL     1      -0.357  -1.444   0.000  0.00  0.00    +0.000 A 
ATOM      3  C   UNL     1      -0.357  -0.619   0.000  0.00  0.00    +0.000 A 
ATOM      4  C   UNL     1      -1.786  -1.444   0.000  0.00  0.00    +0.000 A 
ATOM      5  C   UNL     1      -1.786  -0.619   0.000  0.00  0.00    +0.000 A 
ATOM      6  C   UNL     1      -2.501  -0.206   0.000  0.00  0.00    +0.000 A 
ATOM      7  C   UNL     1      -3.215  -0.619   0.000  0.00  0.00    +0.000 A 
ATOM      8  C   UNL     1      -3.215  -1.444   0.000  0.00  0.00    +0.000 A 
ATOM      9  C   UNL     1      -2.501  -1.856   0.000  0.00  0.00    +0.000 A 
ATOM     10  C   UNL     1      -1.072  -0.206   0.000  0.00  0.00    +0.000 A 
ENDROOT
BRANCH  10  11
ATOM     11  O   UNL     1      -1.072   0.619   0.000  0.00  0.00    +0.000 OA
BRANCH  11  12
ATOM     12  C   UNL     1      -0.357   1.031   0.000  0.00  0.00    +0.000 C 
BRANCH  12  13
ATOM     13  C   UNL     1       0.357   0.619   0.000  0.00  0.00    +0.000 C 
ATOM     14  O   UNL     1       0.357  -0.206   0.000  0.00  0.00    +0.000 OA
BRANCH  13  15
ATOM     15  C   UNL     1       1.072   1.031   0.000  0.00  0.00    +0.000 C 
BRANCH  15  16
ATOM     16  N   UNL     1       1.786   0.619   0.000  0.00  0.00    +0.000 NA
BRANCH  16  18
ATOM     17  C   UNL     1       2.501   1.856   0.000  0.00  0.00    +0.000 C 
ATOM     18  C   UNL     1       2.501   1.031   0.000  0.00  0.00    +0.000 C 
ATOM     19  C   UNL     1       3.215   0.619   0.000  0.00  0.00    +0.000 C 
ENDBRANCH  16  18
ENDBRANCH  15  16
ENDBRANCH  13  15
ENDBRANCH  12  13
ENDBRANCH  11  12
ENDBRANCH  10  11
TORSDOF 6
