REMARK  Name = 
REMARK  3 active torsions:
REMARK  status: ('A' for Active; 'I' for Inactive)
REMARK    1  A    between atoms: N_9  and  N_10
REMARK    2  A    between atoms: C_11  and  C_12
REMARK    3  A    between atoms: C_15  and  N_17
REMARK                            x       y       z     vdW  Elec       q    Type
REMARK                         _______ _______ _______ _____ _____    ______ ____
ROOT
ATOM      1  N   UNL     1       3.977  -1.162   0.000  0.00  0.00    +0.000 NA
ATOM      2  C   UNL     1       3.364  -0.610   0.000  0.00  0.00    +0.000 C 
ENDROOT
BRANCH   1  11
ATOM      3  C   UNL     1       4.320   0.452   0.000  0.00  0.00    +0.000 C 
ATOM      4  C   UNL     1       4.933  -0.100   0.000  0.00  0.00    +0.000 C 
ATOM      5  C   UNL     1       5.718   0.155   0.000  0.00  0.00    +0.000 C 
ATOM      6  S   UNL     1       6.331  -0.397   0.000  0.00  0.00    +0.000 S 
ATOM      7  O   UNL     1       6.768   0.302   0.000  0.00  0.00    +0.000 OA
ATOM      8  O   UNL     1       7.096  -0.706   0.000  0.00  0.00    +0.000 OA
ATOM      9  C   UNL     1       6.159  -1.204   0.000  0.00  0.00    +0.000 C 
ATOM     10  C   UNL     1       5.375  -1.459   0.000  0.00  0.00    +0.000 C 
ATOM     11  N   UNL     1       4.762  -0.907   0.000  0.00  0.00    +0.000 N 
ENDBRANCH   1  11
BRANCH   2  12
ATOM     12  C   UNL     1       2.579  -0.865   0.000  0.00  0.00    +0.000 A 
ATOM     13  C   UNL     1       2.324  -1.650   0.000  0.00  0.00    +0.000 A 
ATOM     14  C   UNL     1       1.499  -1.650   0.000  0.00  0.00    +0.000 A 
ATOM     15  C   UNL     1       1.244  -0.865   0.000  0.00  0.00    +0.000 A 
ATOM     16  O   UNL     1       1.912  -0.380   0.000  0.00  0.00    +0.000 OA
BRANCH  15  17
ATOM     17  N   UNL     1       0.460  -0.610   0.000  0.00  0.00    +0.000 N 
ATOM     18  O   UNL     1      -0.153  -1.162   0.000  0.00  0.00    +0.000 OA
ATOM     19  O   UNL     1       0.288   0.197   0.000  0.00  0.00    +0.000 OA
ENDBRANCH  15  17
ENDBRANCH   2  12
TORSDOF 3
