REMARK  Name = 
REMARK  2 active torsions:
REMARK  status: ('A' for Active; 'I' for Inactive)
REMARK    1  A    between atoms: N_2  and  C_3
REMARK    2  A    between atoms: C_6  and  C_9
REMARK                            x       y       z     vdW  Elec       q    Type
REMARK                         _______ _______ _______ _____ _____    ______ ____
ROOT
ATOM      1  C   UNL     1      -0.628  -0.698   0.000  0.00  0.00    +0.000 A 
ATOM      2  N   UNL     1      -0.143  -1.365   0.000  0.00  0.00    +0.000 NA
ATOM      3  C   UNL     1       0.641  -1.110   0.000  0.00  0.00    +0.000 A 
ATOM      4  C   UNL     1       0.641  -0.285   0.000  0.00  0.00    +0.000 A 
ATOM      5  S   UNL     1      -0.143  -0.030   0.000  0.00  0.00    +0.000 S 
ATOM      6  C   UNL     1       1.356   0.127   0.000  0.00  0.00    +0.000 A 
ATOM      7  C   UNL     1       2.070  -0.285   0.000  0.00  0.00    +0.000 A 
ATOM      8  O   UNL     1       2.784   0.127   0.000  0.00  0.00    +0.000 OA
ATOM      9  C   UNL     1       2.070  -1.110   0.000  0.00  0.00    +0.000 A 
ATOM     10  C   UNL     1       1.356  -1.523   0.000  0.00  0.00    +0.000 A 
ENDROOT
BRANCH   1  14
ATOM     11  C   UNL     1      -3.103  -0.698   0.000  0.00  0.00    +0.000 A 
ATOM     12  C   UNL     1      -2.691   0.017   0.000  0.00  0.00    +0.000 A 
ATOM     13  C   UNL     1      -1.866   0.017   0.000  0.00  0.00    +0.000 A 
ATOM     14  C   UNL     1      -1.453  -0.698   0.000  0.00  0.00    +0.000 A 
ATOM     15  C   UNL     1      -1.866  -1.412   0.000  0.00  0.00    +0.000 A 
ATOM     16  C   UNL     1      -2.691  -1.412   0.000  0.00  0.00    +0.000 A 
BRANCH  11  18
ATOM     17  C   UNL     1      -4.341  -1.412   0.000  0.00  0.00    +0.000 C 
ATOM     18  N   UNL     1      -3.928  -0.698   0.000  0.00  0.00    +0.000 NA
ENDBRANCH  11  18
ENDBRANCH   1  14
TORSDOF 2
