REMARK  Name = 
REMARK  7 active torsions:
REMARK  status: ('A' for Active; 'I' for Inactive)
REMARK    1  A    between atoms: C_3  and  AS_21
REMARK    2  A    between atoms: C_6  and  N_7
REMARK    3  A    between atoms: N_7  and  C_8
REMARK    4  A    between atoms: C_8  and  C_9
REMARK    5  A    between atoms: C_9  and  N_10
REMARK    6  A    between atoms: N_10  and  C_11
REMARK    7  A    between atoms: C_14  and  AS_17
REMARK                            x       y       z     vdW  Elec       q    Type
REMARK                         _______ _______ _______ _____ _____    ______ ____
ROOT
ATOM      1  C   UNL     1       1.429  -2.475   0.000  0.00  0.00    +0.000 C 
ENDROOT
BRANCH   1   2
ATOM      2  C   UNL     1       2.143  -2.888   0.000  0.00  0.00    +0.000 C 
BRANCH   2   3
ATOM      3  N   UNL     1       2.858  -2.475   0.000  0.00  0.00    +0.000 NA
BRANCH   3   4
ATOM      4  C   UNL     1       3.572  -2.888   0.000  0.00  0.00    +0.000 A 
ATOM      5  C   UNL     1       4.287  -2.475   0.000  0.00  0.00    +0.000 A 
ATOM      6  C   UNL     1       5.001  -2.888   0.000  0.00  0.00    +0.000 A 
ATOM      7  C   UNL     1       5.001  -3.712   0.000  0.00  0.00    +0.000 A 
ATOM      8  C   UNL     1       4.287  -4.125   0.000  0.00  0.00    +0.000 A 
ATOM      9  C   UNL     1       3.572  -3.712   0.000  0.00  0.00    +0.000 A 
BRANCH   7  10
ATOM     10 AS   UNL     1       5.716  -4.125   0.000  0.00  0.00    +0.000 As
ATOM     11  O   UNL     1       6.430  -4.537   0.000  0.00  0.00    +0.000 OA
ATOM     12  O   UNL     1       6.128  -3.410   0.000  0.00  0.00    +0.000 OA
ATOM     13  O   UNL     1       5.303  -4.840   0.000  0.00  0.00    +0.000 OA
ENDBRANCH   7  10
ENDBRANCH   3   4
ENDBRANCH   2   3
ENDBRANCH   1   2
BRANCH   1  14
ATOM     14  N   UNL     1       0.715  -2.888   0.000  0.00  0.00    +0.000 NA
BRANCH  14  20
ATOM     15  C   UNL     1      -0.715  -2.888   0.000  0.00  0.00    +0.000 A 
ATOM     16  C   UNL     1      -1.429  -2.475   0.000  0.00  0.00    +0.000 A 
ATOM     17  C   UNL     1      -1.429  -1.650   0.000  0.00  0.00    +0.000 A 
ATOM     18  C   UNL     1      -0.715  -1.238   0.000  0.00  0.00    +0.000 A 
ATOM     19  C   UNL     1       0.000  -1.650   0.000  0.00  0.00    +0.000 A 
ATOM     20  C   UNL     1       0.000  -2.475   0.000  0.00  0.00    +0.000 A 
BRANCH  17  21
ATOM     21 AS   UNL     1      -2.143  -1.238   0.000  0.00  0.00    +0.000 As
ATOM     22  O   UNL     1      -2.858  -0.825   0.000  0.00  0.00    +0.000 OA
ATOM     23  O   UNL     1      -1.731  -0.523   0.000  0.00  0.00    +0.000 OA
ATOM     24  O   UNL     1      -2.556  -1.952   0.000  0.00  0.00    +0.000 OA
ENDBRANCH  17  21
ENDBRANCH  14  20
ENDBRANCH   1  14
TORSDOF 7
