REMARK  Name = 
REMARK  6 active torsions:
REMARK  status: ('A' for Active; 'I' for Inactive)
REMARK    1  A    between atoms: C_5  and  C_6
REMARK    2  A    between atoms: C_6  and  C_7
REMARK    3  A    between atoms: C_7  and  C_8
REMARK    4  A    between atoms: C_8  and  C_9
REMARK    5  A    between atoms: C_9  and  O_17
REMARK    6  A    between atoms: C_14  and  O_17
REMARK                            x       y       z     vdW  Elec       q    Type
REMARK                         _______ _______ _______ _____ _____    ______ ____
ROOT
ATOM      1  C   UNL     1       3.572   3.712   0.000  0.00  0.00    +0.000 C 
ATOM      2  C   UNL     1       0.715   5.362   0.000  0.00  0.00    +0.000 C 
ATOM      3  C   UNL     1       2.143   6.188   0.000  0.00  0.00    +0.000 C 
ATOM      4  C   UNL     1       2.143   3.712   0.000  0.00  0.00    +0.000 A 
ATOM      5  C   UNL     1       2.858   4.125   0.000  0.00  0.00    +0.000 A 
ATOM      6  C   UNL     1       1.429   4.950   0.000  0.00  0.00    +0.000 A 
ATOM      7  C   UNL     1       2.143   5.362   0.000  0.00  0.00    +0.000 A 
ATOM      8  C   UNL     1       1.429   4.125   0.000  0.00  0.00    +0.000 A 
ATOM      9  C   UNL     1       2.858   4.950   0.000  0.00  0.00    +0.000 A 
ATOM     10  O   UNL     1       3.572   5.362   0.000  0.00  0.00    +0.000 OA
ENDROOT
BRANCH   8  11
ATOM     11  O   UNL     1       0.715   3.712   0.000  0.00  0.00    +0.000 OA
BRANCH  11  12
ATOM     12  C   UNL     1       0.000   4.125   0.000  0.00  0.00    +0.000 C 
BRANCH  12  13
ATOM     13  C   UNL     1      -0.715   3.712   0.000  0.00  0.00    +0.000 C 
BRANCH  13  14
ATOM     14  C   UNL     1      -1.429   4.125   0.000  0.00  0.00    +0.000 C 
BRANCH  14  15
ATOM     15  C   UNL     1      -2.143   3.712   0.000  0.00  0.00    +0.000 C 
BRANCH  15  17
ATOM     16  C   UNL     1      -3.572   3.712   0.000  0.00  0.00    +0.000 C 
ATOM     17  C   UNL     1      -2.858   4.125   0.000  0.00  0.00    +0.000 C 
ENDBRANCH  15  17
ENDBRANCH  14  15
ENDBRANCH  13  14
ENDBRANCH  12  13
ENDBRANCH  11  12
ENDBRANCH   8  11
TORSDOF 6
