REMARK  Name = 
REMARK  17 active torsions:
REMARK  status: ('A' for Active; 'I' for Inactive)
REMARK    1  A    between atoms: C_1  and  C_40
REMARK    2  A    between atoms: C_4  and  C_12
REMARK    3  A    between atoms: C_10  and  C_11
REMARK    4  A    between atoms: C_13  and  C_14
REMARK    5  A    between atoms: C_15  and  C_16
REMARK    6  A    between atoms: C_16  and  C_18
REMARK    7  A    between atoms: C_28  and  C_31
REMARK    8  A    between atoms: C_29  and  C_31
REMARK    9  A    between atoms: C_31  and  C_43
REMARK   10  A    between atoms: N_32  and  C_33
REMARK   11  A    between atoms: C_33  and  C_34
REMARK   12  A    between atoms: C_35  and  C_36
REMARK   13  A    between atoms: C_37  and  C_39
REMARK   14  A    between atoms: C_39  and  C_40
REMARK   15  A    between atoms: C_39  and  O_42
REMARK   16  A    between atoms: C_50  and  C_60
REMARK   17  A    between atoms: C_56  and  C_57
REMARK                            x       y       z     vdW  Elec       q    Type
REMARK                         _______ _______ _______ _____ _____    ______ ____
ROOT
ATOM      1  C   UNL     1       0.888  -0.314   0.000  0.00  0.00    +0.000 C 
ENDROOT
BRANCH   1   3
ATOM      2  C   UNL     1      -0.542  -0.314   0.000  0.00  0.00    +0.000 C 
ATOM      3  C   UNL     1       0.173  -0.726   0.000  0.00  0.00    +0.000 C 
ATOM      4  C   UNL     1       0.173  -1.549   0.000  0.00  0.00    +0.000 C 
BRANCH   2   6
ATOM      5  C   UNL     1      -1.972  -0.314   0.000  0.00  0.00    +0.000 C 
ATOM      6  C   UNL     1      -1.257  -0.726   0.000  0.00  0.00    +0.000 C 
BRANCH   5   7
ATOM      7  C   UNL     1      -2.687  -0.726   0.000  0.00  0.00    +0.000 C 
BRANCH   7  10
ATOM      8  C   UNL     1      -4.116  -0.726   0.000  0.00  0.00    +0.000 C 
ATOM      9  O   UNL     1      -4.116  -1.549   0.000  0.00  0.00    +0.000 OA
ATOM     10  N   UNL     1      -3.401  -0.314   0.000  0.00  0.00    +0.000 NA
BRANCH   8  11
ATOM     11  C   UNL     1      -4.831  -0.314   0.000  0.00  0.00    +0.000 C 
BRANCH  11  12
ATOM     12  C   UNL     1      -6.543  -0.704   0.000  0.00  0.00    +0.000 C 
ATOM     13  C   UNL     1      -6.543   0.119   0.000  0.00  0.00    +0.000 C 
ATOM     14  C   UNL     1      -7.236   0.531   0.000  0.00  0.00    +0.000 C 
ATOM     15  O   UNL     1      -7.236  -1.116   0.000  0.00  0.00    +0.000 OA
ATOM     16  C   UNL     1      -7.951   0.119   0.000  0.00  0.00    +0.000 C 
ATOM     17  C   UNL     1      -7.951  -0.704   0.000  0.00  0.00    +0.000 C 
ATOM     18  C   UNL     1      -8.796   0.119   0.000  0.00  0.00    +0.000 C 
ATOM     19  C   UNL     1      -8.385   0.834   0.000  0.00  0.00    +0.000 C 
ATOM     20  O   UNL     1      -7.236   1.376   0.000  0.00  0.00    +0.000 OA
ATOM     21  O   UNL     1      -5.828   0.531   0.000  0.00  0.00    +0.000 OA
ATOM     22  O   UNL     1      -5.828  -1.116   0.000  0.00  0.00    +0.000 OA
BRANCH  17  24
ATOM     23  C   UNL     1      -9.403  -0.704   0.000  0.00  0.00    +0.000 C 
ATOM     24  C   UNL     1      -8.688  -1.116   0.000  0.00  0.00    +0.000 C 
BRANCH  23  25
ATOM     25  C   UNL     1     -10.118  -1.116   0.000  0.00  0.00    +0.000 C 
ATOM     26  C   UNL     1     -10.833  -0.704   0.000  0.00  0.00    +0.000 C 
ATOM     27  C   UNL     1     -10.833   0.119   0.000  0.00  0.00    +0.000 C 
ENDBRANCH  23  25
ENDBRANCH  17  24
ENDBRANCH  11  12
BRANCH  11  28
ATOM     28  C   UNL     1      -4.831   0.509   0.000  0.00  0.00    +0.000 C 
ATOM     29  C   UNL     1      -4.116   0.921   0.000  0.00  0.00    +0.000 C 
ENDBRANCH  11  28
ENDBRANCH   8  11
ENDBRANCH   7  10
ENDBRANCH   5   7
ENDBRANCH   2   6
ENDBRANCH   1   3
BRANCH   1  30
ATOM     30  C   UNL     1       1.603  -0.726   0.000  0.00  0.00    +0.000 C 
ATOM     31  C   UNL     1       1.603  -1.549   0.000  0.00  0.00    +0.000 C 
BRANCH  30  32
ATOM     32  C   UNL     1       2.340  -0.314   0.000  0.00  0.00    +0.000 C 
ATOM     33  O   UNL     1       2.990   0.184   0.000  0.00  0.00    +0.000 OA
ATOM     34  C   UNL     1       2.578  -1.094   0.000  0.00  0.00    +0.000 C 
ATOM     35  C   UNL     1       3.661  -0.314   0.000  0.00  0.00    +0.000 C 
ATOM     36  C   UNL     1       3.401  -1.094   0.000  0.00  0.00    +0.000 C 
ATOM     37  O   UNL     1       2.102  -1.766   0.000  0.00  0.00    +0.000 OA
ATOM     38  O   UNL     1       3.900  -1.766   0.000  0.00  0.00    +0.000 OA
BRANCH  35  40
ATOM     39  C   UNL     1       5.113  -0.314   0.000  0.00  0.00    +0.000 C 
ATOM     40  C   UNL     1       4.398  -0.726   0.000  0.00  0.00    +0.000 C 
BRANCH  39  41
ATOM     41  C   UNL     1       5.828  -0.726   0.000  0.00  0.00    +0.000 C 
ATOM     42  C   UNL     1       6.543  -0.314   0.000  0.00  0.00    +0.000 C 
BRANCH  42  43
ATOM     43  C   UNL     1       7.236  -0.726   0.000  0.00  0.00    +0.000 C 
ATOM     44  C   UNL     1       7.951  -0.314   0.000  0.00  0.00    +0.000 C 
ATOM     45  C   UNL     1       7.951   0.509   0.000  0.00  0.00    +0.000 C 
BRANCH  44  46
ATOM     46  C   UNL     1       8.666  -0.726   0.000  0.00  0.00    +0.000 C 
ATOM     47  O   UNL     1       8.666  -1.549   0.000  0.00  0.00    +0.000 OA
BRANCH  46  48
ATOM     48  C   UNL     1       9.403  -0.314   0.000  0.00  0.00    +0.000 A 
ATOM     49  C   UNL     1      10.118  -0.726   0.000  0.00  0.00    +0.000 A 
ATOM     50  O   UNL     1      10.118  -1.549   0.000  0.00  0.00    +0.000 OA
ATOM     51  O   UNL     1       8.688   0.921   0.000  0.00  0.00    +0.000 OA
ATOM     52  C   UNL     1       9.403   0.509   0.000  0.00  0.00    +0.000 A 
ATOM     53  N   UNL     1      10.118   0.921   0.000  0.00  0.00    +0.000 N 
ATOM     54  C   UNL     1      10.833  -0.314   0.000  0.00  0.00    +0.000 A 
ATOM     55  C   UNL     1      10.833   0.509   0.000  0.00  0.00    +0.000 A 
ATOM     56  C   UNL     1      10.118   1.766   0.000  0.00  0.00    +0.000 C 
ENDBRANCH  46  48
ENDBRANCH  44  46
ENDBRANCH  42  43
ENDBRANCH  39  41
ENDBRANCH  35  40
ENDBRANCH  30  32
ENDBRANCH   1  30
BRANCH   1  57
ATOM     57  O   UNL     1       0.888   0.509   0.000  0.00  0.00    +0.000 OA
ATOM     58  C   UNL     1       0.173   0.921   0.000  0.00  0.00    +0.000 C 
ENDBRANCH   1  57
TORSDOF 17
