REMARK  Name = 
REMARK  3 active torsions:
REMARK  status: ('A' for Active; 'I' for Inactive)
REMARK    1  A    between atoms: C_5  and  C_7
REMARK    2  A    between atoms: C_7  and  C_8
REMARK    3  A    between atoms: N_13  and  C_15
REMARK                            x       y       z     vdW  Elec       q    Type
REMARK                         _______ _______ _______ _____ _____    ______ ____
ROOT
ATOM      1  C   UNL     1       2.609  -2.151   0.000  0.00  0.00    +0.000 C 
ATOM      2  C   UNL     1       1.942  -2.636   0.000  0.00  0.00    +0.000 C 
ATOM      3  C   UNL     1       1.813  -3.451   0.000  0.00  0.00    +0.000 C 
ATOM      4  N   UNL     1       0.998  -3.322   0.000  0.00  0.00    +0.000 N 
ATOM      5  C   UNL     1       0.331  -3.807   0.000  0.00  0.00    +0.000 C 
ATOM      6  O   UNL     1      -0.423  -3.471   0.000  0.00  0.00    +0.000 OA
ATOM      7  C   UNL     1       1.127  -2.507   0.000  0.00  0.00    +0.000 C 
ATOM      8  C   UNL     1       0.302  -2.507   0.000  0.00  0.00    +0.000 C 
ATOM      9  C   UNL     1       0.047  -1.722   0.000  0.00  0.00    +0.000 C 
ATOM     10  N   UNL     1       0.715  -1.238   0.000  0.00  0.00    +0.000 N 
ATOM     11  C   UNL     1       1.382  -1.722   0.000  0.00  0.00    +0.000 C 
ENDROOT
BRANCH  10  12
ATOM     12  C   UNL     1       0.715  -0.412   0.000  0.00  0.00    +0.000 A 
ATOM     13  C   UNL     1       0.000   0.000   0.000  0.00  0.00    +0.000 A 
ATOM     14  C   UNL     1      -0.785  -0.255   0.000  0.00  0.00    +0.000 A 
ATOM     15  C   UNL     1      -1.270   0.412   0.000  0.00  0.00    +0.000 A 
ATOM     16  N   UNL     1      -0.785   1.080   0.000  0.00  0.00    +0.000 NA
ATOM     17  C   UNL     1       0.000   0.825   0.000  0.00  0.00    +0.000 A 
ATOM     18  N   UNL     1       0.715   1.238   0.000  0.00  0.00    +0.000 NA
ATOM     19  C   UNL     1       1.429   0.825   0.000  0.00  0.00    +0.000 A 
ATOM     20  N   UNL     1       1.429   0.000   0.000  0.00  0.00    +0.000 NA
ENDBRANCH  10  12
BRANCH   5  21
ATOM     21  C   UNL     1       0.417  -4.627   0.000  0.00  0.00    +0.000 C 
BRANCH  21  22
ATOM     22  C   UNL     1      -0.251  -5.112   0.000  0.00  0.00    +0.000 C 
ATOM     23  N   UNL     1      -0.918  -5.597   0.000  0.00  0.00    +0.000 NA
ENDBRANCH  21  22
ENDBRANCH   5  21
TORSDOF 3
