REMARK  Name = 
REMARK  5 active torsions:
REMARK  status: ('A' for Active; 'I' for Inactive)
REMARK    1  A    between atoms: C_6  and  C_12
REMARK    2  A    between atoms: C_9  and  N_10
REMARK    3  A    between atoms: C_9  and  C_12
REMARK    4  A    between atoms: C_14  and  O_15
REMARK    5  A    between atoms: O_15  and  P_18
REMARK                            x       y       z     vdW  Elec       q    Type
REMARK                         _______ _______ _______ _____ _____    ______ ____
ROOT
ATOM      1  C   UNL     1      -1.097  -1.923   0.000  0.00  0.00    +0.000 A 
ATOM      2  C   UNL     1      -1.812  -1.511   0.000  0.00  0.00    +0.000 A 
ATOM      3  C   UNL     1      -0.383  -0.686   0.000  0.00  0.00    +0.000 A 
ATOM      4  C   UNL     1      -0.383  -1.511   0.000  0.00  0.00    +0.000 A 
ATOM      5  C   UNL     1      -1.812  -0.686   0.000  0.00  0.00    +0.000 A 
ATOM      6  C   UNL     1       0.402  -0.431   0.000  0.00  0.00    +0.000 A 
ATOM      7  C   UNL     1       0.887  -1.098   0.000  0.00  0.00    +0.000 A 
ATOM      8  N   UNL     1       0.402  -1.766   0.000  0.00  0.00    +0.000 NA
ATOM      9  C   UNL     1      -1.097  -0.273   0.000  0.00  0.00    +0.000 A 
ENDROOT
BRANCH   6  10
ATOM     10  C   UNL     1       0.657   0.354   0.000  0.00  0.00    +0.000 C 
BRANCH  10  11
ATOM     11  C   UNL     1       1.464   0.525   0.000  0.00  0.00    +0.000 C 
BRANCH  11  12
ATOM     12  N   UNL     1       1.719   1.310   0.000  0.00  0.00    +0.000 NA
ATOM     13  C   UNL     1       2.526   1.482   0.000  0.00  0.00    +0.000 C 
ATOM     14  C   UNL     1       1.167   1.923   0.000  0.00  0.00    +0.000 C 
ENDBRANCH  11  12
ENDBRANCH  10  11
ENDBRANCH   6  10
BRANCH   9  15
ATOM     15  O   UNL     1      -1.097   0.552   0.000  0.00  0.00    +0.000 OA
BRANCH  15  18
ATOM     16  O   UNL     1      -2.526   0.552   0.000  0.00  0.00    +0.000 OA
ATOM     17  O   UNL     1      -1.812   1.789   0.000  0.00  0.00    +0.000 OA
ATOM     18  P   UNL     1      -1.812   0.964   0.000  0.00  0.00    +0.000 P 
ATOM     19  O   UNL     1      -2.025   0.167   0.000  0.00  0.00    +0.000 OA
ENDBRANCH  15  18
ENDBRANCH   9  15
TORSDOF 5
