REMARK  Name = 
REMARK  13 active torsions:
REMARK  status: ('A' for Active; 'I' for Inactive)
REMARK    1  A    between atoms: SI_1  and  O_2
REMARK    2  A    between atoms: SI_1  and  O_3
REMARK    3  A    between atoms: SI_1  and  O_4
REMARK    4  A    between atoms: SI_1  and  C_5
REMARK    5  A    between atoms: O_2  and  C_7
REMARK    6  A    between atoms: O_3  and  C_8
REMARK    7  A    between atoms: O_4  and  C_9
REMARK    8  A    between atoms: C_5  and  C_6
REMARK    9  A    between atoms: C_6  and  C_10
REMARK   10  A    between atoms: C_10  and  C_11
REMARK   11  A    between atoms: C_11  and  C_15
REMARK   12  A    between atoms: C_15  and  C_16
REMARK   13  A    between atoms: C_16  and  C_17
REMARK                            x       y       z     vdW  Elec       q    Type
REMARK                         _______ _______ _______ _____ _____    ______ ____
ROOT
ATOM      1 SI   UNL     1       1.401   0.715   0.000  0.00  0.00    +0.000 Si
ENDROOT
BRANCH   1   2
ATOM      2  C   UNL     1       0.996   0.004   0.000  0.00  0.00    +0.000 C 
BRANCH   2   3
ATOM      3  C   UNL     1       0.171   0.004   0.000  0.00  0.00    +0.000 C 
BRANCH   3   4
ATOM      4  C   UNL     1      -0.249  -0.715   0.000  0.00  0.00    +0.000 C 
BRANCH   4   5
ATOM      5  C   UNL     1      -1.074  -0.715   0.000  0.00  0.00    +0.000 C 
BRANCH   5   6
ATOM      6  C   UNL     1      -1.486  -1.433   0.000  0.00  0.00    +0.000 C 
BRANCH   6   7
ATOM      7  C   UNL     1      -2.311  -1.433   0.000  0.00  0.00    +0.000 C 
BRANCH   7   8
ATOM      8  C   UNL     1      -2.731  -2.151   0.000  0.00  0.00    +0.000 C 
ATOM      9  C   UNL     1      -3.556  -2.151   0.000  0.00  0.00    +0.000 C 
ENDBRANCH   7   8
ENDBRANCH   6   7
ENDBRANCH   5   6
ENDBRANCH   4   5
ENDBRANCH   3   4
ENDBRANCH   2   3
ENDBRANCH   1   2
BRANCH   1  10
ATOM     10  O   UNL     1       0.690   1.127   0.000  0.00  0.00    +0.000 OA
BRANCH  10  11
ATOM     11  C   UNL     1      -0.028   0.715   0.000  0.00  0.00    +0.000 C 
ATOM     12  C   UNL     1      -0.740   1.127   0.000  0.00  0.00    +0.000 C 
ENDBRANCH  10  11
ENDBRANCH   1  10
BRANCH   1  13
ATOM     13  O   UNL     1       2.119   0.302   0.000  0.00  0.00    +0.000 OA
BRANCH  13  14
ATOM     14  C   UNL     1       2.837   0.715   0.000  0.00  0.00    +0.000 C 
ATOM     15  C   UNL     1       3.556   0.302   0.000  0.00  0.00    +0.000 C 
ENDBRANCH  13  14
ENDBRANCH   1  13
BRANCH   1  16
ATOM     16  O   UNL     1       1.821   1.433   0.000  0.00  0.00    +0.000 OA
BRANCH  16  17
ATOM     17  C   UNL     1       2.653   1.433   0.000  0.00  0.00    +0.000 C 
ATOM     18  C   UNL     1       3.058   2.151   0.000  0.00  0.00    +0.000 C 
ENDBRANCH  16  17
ENDBRANCH   1  16
TORSDOF 13
