REMARK  Name = 
REMARK  10 active torsions:
REMARK  status: ('A' for Active; 'I' for Inactive)
REMARK    1  A    between atoms: C_1  and  O_4
REMARK    2  A    between atoms: C_1  and  C_9
REMARK    3  A    between atoms: C_2  and  O_5
REMARK    4  A    between atoms: C_2  and  C_10
REMARK    5  A    between atoms: C_3  and  O_4
REMARK    6  A    between atoms: O_5  and  C_6
REMARK    7  A    between atoms: C_8  and  C_18
REMARK    8  A    between atoms: N_11  and  C_16
REMARK    9  A    between atoms: N_11  and  C_17
REMARK   10  A    between atoms: C_17  and  C_18
REMARK                            x       y       z     vdW  Elec       q    Type
REMARK                         _______ _______ _______ _____ _____    ______ ____
ROOT
ATOM      1  C   UNL     1       0.334  -1.072   0.000  0.00  0.00    +0.000 A 
ATOM      2  C   UNL     1       0.339  -0.249   0.000  0.00  0.00    +0.000 A 
ATOM      3  C   UNL     1      -0.373  -1.498   0.000  0.00  0.00    +0.000 A 
ATOM      4  C   UNL     1      -1.089  -1.091   0.000  0.00  0.00    +0.000 A 
ATOM      5  C   UNL     1      -0.392   0.157   0.000  0.00  0.00    +0.000 A 
ATOM      6  C   UNL     1      -1.104  -0.259   0.000  0.00  0.00    +0.000 A 
ENDROOT
BRANCH   4   7
ATOM      7  C   UNL     1      -1.796  -1.513   0.000  0.00  0.00    +0.000 C 
ATOM      8  O   UNL     1      -1.796  -2.340   0.000  0.00  0.00    +0.000 OA
BRANCH   7   9
ATOM      9  C   UNL     1      -2.522  -1.121   0.000  0.00  0.00    +0.000 C 
BRANCH   9  10
ATOM     10  N   UNL     1      -3.233  -1.542   0.000  0.00  0.00    +0.000 NA
BRANCH  10  11
ATOM     11  C   UNL     1      -3.955  -1.140   0.000  0.00  0.00    +0.000 C 
ATOM     12  C   UNL     1      -4.371  -0.424   0.000  0.00  0.00    +0.000 C 
ATOM     13  C   UNL     1      -4.661  -1.561   0.000  0.00  0.00    +0.000 C 
ATOM     14  C   UNL     1      -3.553  -0.424   0.000  0.00  0.00    +0.000 C 
ENDBRANCH  10  11
ENDBRANCH   9  10
ENDBRANCH   7   9
ENDBRANCH   4   7
BRANCH   2  15
ATOM     15  O   UNL     1       1.050   0.172   0.000  0.00  0.00    +0.000 OA
BRANCH  15  16
ATOM     16  C   UNL     1       1.036   0.999   0.000  0.00  0.00    +0.000 C 
ATOM     17  O   UNL     1       0.324   1.406   0.000  0.00  0.00    +0.000 OA
BRANCH  16  18
ATOM     18  C   UNL     1       1.747   1.435   0.000  0.00  0.00    +0.000 A 
ATOM     19  C   UNL     1       2.483   1.028   0.000  0.00  0.00    +0.000 A 
ATOM     20  C   UNL     1       1.742   2.248   0.000  0.00  0.00    +0.000 A 
ATOM     21  C   UNL     1       2.444   2.684   0.000  0.00  0.00    +0.000 A 
ATOM     22  C   UNL     1       3.185   1.450   0.000  0.00  0.00    +0.000 A 
ATOM     23  C   UNL     1       3.180   2.263   0.000  0.00  0.00    +0.000 A 
ATOM     24  C   UNL     1       3.882   2.689   0.000  0.00  0.00    +0.000 C 
ENDBRANCH  16  18
ENDBRANCH  15  16
ENDBRANCH   2  15
BRANCH   1  25
ATOM     25  O   UNL     1       1.075  -1.484   0.000  0.00  0.00    +0.000 OA
BRANCH  25  26
ATOM     26  C   UNL     1       1.776  -1.058   0.000  0.00  0.00    +0.000 C 
ATOM     27  O   UNL     1       1.776  -0.230   0.000  0.00  0.00    +0.000 OA
BRANCH  26  28
ATOM     28  C   UNL     1       2.498  -1.469   0.000  0.00  0.00    +0.000 A 
ATOM     29  C   UNL     1       3.209  -1.043   0.000  0.00  0.00    +0.000 A 
ATOM     30  C   UNL     1       2.512  -2.297   0.000  0.00  0.00    +0.000 A 
ATOM     31  C   UNL     1       3.233  -2.689   0.000  0.00  0.00    +0.000 A 
ATOM     32  C   UNL     1       3.921  -1.445   0.000  0.00  0.00    +0.000 A 
ATOM     33  C   UNL     1       3.950  -2.263   0.000  0.00  0.00    +0.000 A 
ATOM     34  C   UNL     1       4.661  -2.679   0.000  0.00  0.00    +0.000 C 
ENDBRANCH  26  28
ENDBRANCH  25  26
ENDBRANCH   1  25
TORSDOF 10
