REMARK  Name = 
REMARK  4 active torsions:
REMARK  status: ('A' for Active; 'I' for Inactive)
REMARK    1  A    between atoms: C_1  and  C_11
REMARK    2  A    between atoms: C_11  and  C_12
REMARK    3  A    between atoms: C_12  and  N_15
REMARK    4  A    between atoms: C_12  and  B_20
REMARK                            x       y       z     vdW  Elec       q    Type
REMARK                         _______ _______ _______ _____ _____    ______ ____
ROOT
ATOM      1  C   UNL     1       0.363  -0.235   0.000  0.00  0.00    +0.000 C 
ENDROOT
BRANCH   1   2
ATOM      2  C   UNL     1       0.359   0.592   0.000  0.00  0.00    +0.000 A 
ATOM      3  C   UNL     1       1.073   1.005   0.000  0.00  0.00    +0.000 A 
ATOM      4  C   UNL     1       1.073   1.830   0.000  0.00  0.00    +0.000 A 
ATOM      5  C   UNL     1       0.359   2.242   0.000  0.00  0.00    +0.000 A 
ATOM      6  C   UNL     1      -0.366   1.830   0.000  0.00  0.00    +0.000 A 
ATOM      7  C   UNL     1      -0.366   1.005   0.000  0.00  0.00    +0.000 A 
ATOM      8  C   UNL     1       1.787   0.592   0.000  0.00  0.00    +0.000 A 
ATOM      9  C   UNL     1       2.502   1.005   0.000  0.00  0.00    +0.000 A 
ATOM     10  C   UNL     1       2.502   1.830   0.000  0.00  0.00    +0.000 A 
ATOM     11  C   UNL     1       1.787   2.242   0.000  0.00  0.00    +0.000 A 
ENDBRANCH   1   2
BRANCH   1  12
ATOM     12  C   UNL     1      -0.350  -0.653   0.000  0.00  0.00    +0.000 C 
BRANCH  12  15
ATOM     13  C   UNL     1      -2.502  -0.254   0.000  0.00  0.00    +0.000 C 
ATOM     14  C   UNL     1      -1.783  -0.663   0.000  0.00  0.00    +0.000 C 
ATOM     15  N   UNL     1      -1.069  -0.244   0.000  0.00  0.00    +0.000 N 
ATOM     16  O   UNL     1      -1.778  -1.324   0.000  0.00  0.00    +0.000 OA
ATOM     17  H   UNL     1      -1.073   0.306   0.000  0.00  0.00    +0.000 HD
ENDBRANCH  12  15
BRANCH  12  21
ATOM     18  O   UNL     1       0.508  -1.518   0.000  0.00  0.00    +0.000 OA
ATOM     19  O   UNL     1      -0.728  -2.242   0.000  0.00  0.00    +0.000 OA
ATOM     20  O   UNL     1      -1.058  -1.898   0.000  0.00  0.00    +0.000 OA
ATOM     21  B   UNL     1      -0.344  -1.480   0.000  0.00  0.00    +0.000 B 
ENDBRANCH  12  21
ENDBRANCH   1  12
TORSDOF 4
