REMARK  Name = 
REMARK  3 active torsions:
REMARK  status: ('A' for Active; 'I' for Inactive)
REMARK    1  A    between atoms: C_3  and  C_7
REMARK    2  A    between atoms: C_5  and  S_19
REMARK    3  A    between atoms: C_6  and  S_20
REMARK                            x       y       z     vdW  Elec       q    Type
REMARK                         _______ _______ _______ _____ _____    ______ ____
ROOT
ATOM      1  C   UNL     1       1.429   0.825   0.000  0.00  0.00    +0.000 A 
ATOM      2  C   UNL     1       0.000   0.000   0.000  0.00  0.00    +0.000 A 
ATOM      3  C   UNL     1       0.715   1.238   0.000  0.00  0.00    +0.000 A 
ATOM      4  C   UNL     1       1.429   0.000   0.000  0.00  0.00    +0.000 A 
ATOM      5  C   UNL     1       0.000   0.825   0.000  0.00  0.00    +0.000 A 
ATOM      6  C   UNL     1       0.715  -0.412   0.000  0.00  0.00    +0.000 A 
ATOM      7  N   UNL     1       2.143  -0.412   0.000  0.00  0.00    +0.000 NA
ENDROOT
BRANCH   3   8
ATOM      8  C   UNL     1       0.715   2.062   0.000  0.00  0.00    +0.000 C 
ATOM      9  C   UNL     1       1.429   2.475   0.000  0.00  0.00    +0.000 C 
ATOM     10 CL   UNL     1       0.000   2.475   0.000  0.00  0.00    +0.000 Cl
ATOM     11 CL   UNL     1       1.429   3.300   0.000  0.00  0.00    +0.000 Cl
ATOM     12 CL   UNL     1       2.143   2.062   0.000  0.00  0.00    +0.000 Cl
ENDBRANCH   3   8
BRANCH   5  16
ATOM     13  N   UNL     1      -1.429   1.650   0.000  0.00  0.00    +0.000 NA
ATOM     14  O   UNL     1      -0.302   1.952   0.000  0.00  0.00    +0.000 OA
ATOM     15  O   UNL     1      -1.127   0.523   0.000  0.00  0.00    +0.000 OA
ATOM     16  S   UNL     1      -0.715   1.238   0.000  0.00  0.00    +0.000 S 
ENDBRANCH   5  16
BRANCH   6  20
ATOM     17  N   UNL     1       0.715  -2.062   0.000  0.00  0.00    +0.000 NA
ATOM     18  O   UNL     1      -0.111  -1.238   0.000  0.00  0.00    +0.000 OA
ATOM     19  O   UNL     1       1.540  -1.238   0.000  0.00  0.00    +0.000 OA
ATOM     20  S   UNL     1       0.715  -1.238   0.000  0.00  0.00    +0.000 S 
ENDBRANCH   6  20
TORSDOF 3
