REMARK  Name = 
REMARK  6 active torsions:
REMARK  status: ('A' for Active; 'I' for Inactive)
REMARK    1  A    between atoms: C_2  and  O_4
REMARK    2  A    between atoms: O_4  and  C_5
REMARK    3  A    between atoms: N_7  and  C_8
REMARK    4  A    between atoms: C_13  and  C_27
REMARK    5  A    between atoms: N_17  and  C_20
REMARK    6  A    between atoms: C_20  and  C_21
REMARK                            x       y       z     vdW  Elec       q    Type
REMARK                         _______ _______ _______ _____ _____    ______ ____
ROOT
ATOM      1  C   UNL     1       0.574  -1.597   0.000  0.00  0.00    +0.000 C 
ATOM      2  C   UNL     1       1.251  -1.126   0.000  0.00  0.00    +0.000 C 
ATOM      3  C   UNL     1       1.909  -1.624   0.000  0.00  0.00    +0.000 A 
ATOM      4  C   UNL     1       2.733  -1.640   0.000  0.00  0.00    +0.000 A 
ATOM      5  C   UNL     1       3.297  -1.038   0.000  0.00  0.00    +0.000 A 
ATOM      6  C   UNL     1       4.101  -1.225   0.000  0.00  0.00    +0.000 A 
ATOM      7  C   UNL     1       4.340  -2.015   0.000  0.00  0.00    +0.000 A 
ATOM      8  C   UNL     1       3.776  -2.617   0.000  0.00  0.00    +0.000 A 
ATOM      9  C   UNL     1       2.973  -2.429   0.000  0.00  0.00    +0.000 A 
ATOM     10  N   UNL     1       2.296  -2.901   0.000  0.00  0.00    +0.000 N 
ATOM     11  C   UNL     1       1.638  -2.403   0.000  0.00  0.00    +0.000 A 
ATOM     12  C   UNL     1       0.813  -2.387   0.000  0.00  0.00    +0.000 C 
ENDROOT
BRANCH   1  15
ATOM     13  C   UNL     1      -0.361  -0.517   0.000  0.00  0.00    +0.000 C 
ATOM     14  O   UNL     1       0.263   0.023   0.000  0.00  0.00    +0.000 OA
ATOM     15  N   UNL     1      -0.206  -1.327   0.000  0.00  0.00    +0.000 NA
BRANCH  13  16
ATOM     16  O   UNL     1      -1.141  -0.246   0.000  0.00  0.00    +0.000 OA
BRANCH  16  18
ATOM     17  C   UNL     1      -2.076   0.834   0.000  0.00  0.00    +0.000 C 
ATOM     18  C   UNL     1      -1.296   0.564   0.000  0.00  0.00    +0.000 C 
ATOM     19  C   UNL     1      -0.672   1.104   0.000  0.00  0.00    +0.000 C 
ENDBRANCH  16  18
ENDBRANCH  13  16
ENDBRANCH   1  15
BRANCH   6  20
ATOM     20  C   UNL     1       4.665  -0.623   0.000  0.00  0.00    +0.000 C 
ATOM     21  N   UNL     1       5.229  -0.021   0.000  0.00  0.00    +0.000 NA
ENDBRANCH   6  20
BRANCH  10  22
ATOM     22  C   UNL     1       2.280  -3.726   0.000  0.00  0.00    +0.000 C 
BRANCH  22  23
ATOM     23  C   UNL     1       2.986  -4.152   0.000  0.00  0.00    +0.000 A 
ATOM     24  C   UNL     1       3.708  -3.754   0.000  0.00  0.00    +0.000 A 
ATOM     25  C   UNL     1       4.415  -4.181   0.000  0.00  0.00    +0.000 A 
ATOM     26  C   UNL     1       4.398  -5.005   0.000  0.00  0.00    +0.000 A 
ATOM     27  C   UNL     1       3.676  -5.404   0.000  0.00  0.00    +0.000 A 
ATOM     28  N   UNL     1       2.970  -4.977   0.000  0.00  0.00    +0.000 NA
ENDBRANCH  22  23
ENDBRANCH  10  22
TORSDOF 6
