REMARK  Name = 
REMARK  5 active torsions:
REMARK  status: ('A' for Active; 'I' for Inactive)
REMARK    1  A    between atoms: C_3  and  C_5
REMARK    2  A    between atoms: C_5  and  C_6
REMARK    3  A    between atoms: C_5  and  C_22
REMARK    4  A    between atoms: C_6  and  N_7
REMARK    5  A    between atoms: C_22  and  C_23
REMARK                            x       y       z     vdW  Elec       q    Type
REMARK                         _______ _______ _______ _____ _____    ______ ____
ROOT
ATOM      1  N   UNL     1       4.738   0.919   0.000  0.00  0.00    +0.000 NA
ATOM      2  C   UNL     1       4.851   0.102   0.000  0.00  0.00    +0.000 C 
ATOM      3  C   UNL     1       4.199  -0.405   0.000  0.00  0.00    +0.000 C 
ATOM      4  C   UNL     1       3.435  -0.094   0.000  0.00  0.00    +0.000 C 
ATOM      5  C   UNL     1       3.322   0.724   0.000  0.00  0.00    +0.000 C 
ATOM      6  C   UNL     1       3.974   1.230   0.000  0.00  0.00    +0.000 C 
ATOM      7  O   UNL     1       3.548  -0.911   0.000  0.00  0.00    +0.000 OA
ATOM      8  C   UNL     1       2.896  -1.417   0.000  0.00  0.00    +0.000 C 
ATOM      9  C   UNL     1       2.132  -1.106   0.000  0.00  0.00    +0.000 C 
ATOM     10  C   UNL     1       2.019  -0.289   0.000  0.00  0.00    +0.000 A 
ATOM     11  C   UNL     1       2.671   0.217   0.000  0.00  0.00    +0.000 A 
ATOM     12  S   UNL     1       2.391   0.993   0.000  0.00  0.00    +0.000 S 
ATOM     13  C   UNL     1       1.566   0.967   0.000  0.00  0.00    +0.000 A 
ATOM     14  F   UNL     1       1.060   1.618   0.000  0.00  0.00    +0.000 F 
ATOM     15  C   UNL     1       1.337   0.174   0.000  0.00  0.00    +0.000 A 
ENDROOT
BRANCH   1  16
ATOM     16  C   UNL     1       5.389   1.425   0.000  0.00  0.00    +0.000 C 
BRANCH  16  17
ATOM     17  C   UNL     1       6.153   1.114   0.000  0.00  0.00    +0.000 C 
BRANCH  17  20
ATOM     18  C   UNL     1       7.143  -0.832   0.000  0.00  0.00    +0.000 C 
ATOM     19  N   UNL     1       7.030  -0.014   0.000  0.00  0.00    +0.000 NA
ATOM     20  C   UNL     1       6.266   0.297   0.000  0.00  0.00    +0.000 C 
ATOM     21  O   UNL     1       5.615  -0.210   0.000  0.00  0.00    +0.000 OA
ENDBRANCH  17  20
BRANCH  17  22
ATOM     22  C   UNL     1       6.805   1.620   0.000  0.00  0.00    +0.000 C 
BRANCH  22  23
ATOM     23  C   UNL     1       7.569   1.309   0.000  0.00  0.00    +0.000 A 
ATOM     24  C   UNL     1       7.682   0.492   0.000  0.00  0.00    +0.000 A 
ATOM     25  C   UNL     1       8.446   0.181   0.000  0.00  0.00    +0.000 A 
ATOM     26  C   UNL     1       9.097   0.687   0.000  0.00  0.00    +0.000 A 
ATOM     27  C   UNL     1       8.984   1.504   0.000  0.00  0.00    +0.000 A 
ATOM     28  C   UNL     1       8.220   1.815   0.000  0.00  0.00    +0.000 A 
ATOM     29  F   UNL     1       8.108   2.633   0.000  0.00  0.00    +0.000 F 
ENDBRANCH  22  23
ENDBRANCH  17  22
ENDBRANCH  16  17
ENDBRANCH   1  16
TORSDOF 5
