REMARK  Name = 
REMARK  6 active torsions:
REMARK  status: ('A' for Active; 'I' for Inactive)
REMARK    1  A    between atoms: C_4  and  C_11
REMARK    2  A    between atoms: C_4  and  C_12
REMARK    3  A    between atoms: C_11  and  N_25
REMARK    4  A    between atoms: C_12  and  N_27
REMARK    5  A    between atoms: C_19  and  N_26
REMARK    6  A    between atoms: C_22  and  O_29
REMARK                            x       y       z     vdW  Elec       q    Type
REMARK                         _______ _______ _______ _____ _____    ______ ____
ROOT
ATOM      1  C   UNL     1       1.429   0.206   0.000  0.00  0.00    +0.000 C 
ENDROOT
BRANCH   1   2
ATOM      2  C   UNL     1       1.429   1.031   0.000  0.00  0.00    +0.000 C 
BRANCH   2   7
ATOM      3  C   UNL     1       0.715   2.269   0.000  0.00  0.00    +0.000 C 
ATOM      4  C   UNL     1       0.000   1.031   0.000  0.00  0.00    +0.000 C 
ATOM      5  C   UNL     1       0.000   2.681   0.000  0.00  0.00    +0.000 C 
ATOM      6  C   UNL     1      -0.714   1.444   0.000  0.00  0.00    +0.000 C 
ATOM      7  N   UNL     1       0.715   1.444   0.000  0.00  0.00    +0.000 NA
ATOM      8  N   UNL     1      -0.714   2.269   0.000  0.00  0.00    +0.000 N 
BRANCH   8  14
ATOM      9  C   UNL     1      -2.143   3.919   0.000  0.00  0.00    +0.000 A 
ATOM     10  C   UNL     1      -2.858   3.506   0.000  0.00  0.00    +0.000 A 
ATOM     11  C   UNL     1      -1.429   3.506   0.000  0.00  0.00    +0.000 A 
ATOM     12  C   UNL     1      -2.143   2.269   0.000  0.00  0.00    +0.000 A 
ATOM     13  C   UNL     1      -2.858   2.681   0.000  0.00  0.00    +0.000 A 
ATOM     14  C   UNL     1      -1.429   2.681   0.000  0.00  0.00    +0.000 A 
ATOM     15 CL   UNL     1      -3.572   2.269   0.000  0.00  0.00    +0.000 Cl
ENDBRANCH   8  14
ENDBRANCH   2   7
ENDBRANCH   1   2
BRANCH   1  16
ATOM     16  C   UNL     1       2.143  -0.206   0.000  0.00  0.00    +0.000 C 
BRANCH  16  26
ATOM     17  C   UNL     1       0.000  -1.444   0.000  0.00  0.00    +0.000 A 
ATOM     18  C   UNL     1       0.715  -1.031   0.000  0.00  0.00    +0.000 A 
ATOM     19  C   UNL     1       0.000  -2.269   0.000  0.00  0.00    +0.000 A 
ATOM     20  C   UNL     1       2.143  -2.681   0.000  0.00  0.00    +0.000 C 
ATOM     21  C   UNL     1       2.858  -2.269   0.000  0.00  0.00    +0.000 C 
ATOM     22  C   UNL     1       1.429  -2.269   0.000  0.00  0.00    +0.000 A 
ATOM     23  C   UNL     1       1.429  -1.444   0.000  0.00  0.00    +0.000 A 
ATOM     24  C   UNL     1       0.715  -2.681   0.000  0.00  0.00    +0.000 A 
ATOM     25  C   UNL     1       2.858  -1.444   0.000  0.00  0.00    +0.000 C 
ATOM     26  N   UNL     1       2.143  -1.031   0.000  0.00  0.00    +0.000 N 
ATOM     27  O   UNL     1       3.572  -1.031   0.000  0.00  0.00    +0.000 OA
BRANCH  24  29
ATOM     28  C   UNL     1       0.000  -3.919   0.000  0.00  0.00    +0.000 C 
ATOM     29  O   UNL     1       0.715  -3.506   0.000  0.00  0.00    +0.000 OA
ENDBRANCH  24  29
ENDBRANCH  16  26
ENDBRANCH   1  16
TORSDOF 6
