REMARK  Name = 
REMARK  2 active torsions:
REMARK  status: ('A' for Active; 'I' for Inactive)
REMARK    1  A    between atoms: C_6  and  C_8
REMARK    2  A    between atoms: C_6  and  C_9
REMARK                            x       y       z     vdW  Elec       q    Type
REMARK                         _______ _______ _______ _____ _____    ______ ____
ROOT
ATOM      1  O   UNL     1      -0.930  -0.622   0.000  0.00  0.00    +0.000 OA
ATOM      2  O   UNL     1       0.517  -2.272   0.000  0.00  0.00    +0.000 OA
ATOM      3  N   UNL     1      -0.930  -2.272   0.000  0.00  0.00    +0.000 NA
ATOM      4  C   UNL     1      -0.228  -1.034   0.000  0.00  0.00    +0.000 C 
ATOM      5  C   UNL     1      -0.228  -1.859   0.000  0.00  0.00    +0.000 C 
ATOM      6  C   UNL     1      -1.631  -1.034   0.000  0.00  0.00    +0.000 A 
ATOM      7  C   UNL     1      -1.631  -1.859   0.000  0.00  0.00    +0.000 A 
ATOM      8  C   UNL     1      -2.377  -0.622   0.000  0.00  0.00    +0.000 A 
ATOM      9  C   UNL     1      -2.377  -2.272   0.000  0.00  0.00    +0.000 A 
ATOM     10  C   UNL     1      -3.079  -1.034   0.000  0.00  0.00    +0.000 A 
ATOM     11  C   UNL     1      -3.079  -1.859   0.000  0.00  0.00    +0.000 A 
ENDROOT
BRANCH   4  13
ATOM     12  O   UNL     1      -0.228   2.272   0.000  0.00  0.00    +0.000 OA
ATOM     13  C   UNL     1      -0.228  -0.203   0.000  0.00  0.00    +0.000 A 
ATOM     14  C   UNL     1       0.474   0.209   0.000  0.00  0.00    +0.000 A 
ATOM     15  C   UNL     1      -0.930   0.209   0.000  0.00  0.00    +0.000 A 
ATOM     16  C   UNL     1       0.474   1.034   0.000  0.00  0.00    +0.000 A 
ATOM     17  C   UNL     1      -0.930   1.034   0.000  0.00  0.00    +0.000 A 
ATOM     18  C   UNL     1      -0.228   1.447   0.000  0.00  0.00    +0.000 A 
ENDBRANCH   4  13
BRANCH   4  20
ATOM     19  O   UNL     1       3.079  -1.022   0.000  0.00  0.00    +0.000 OA
ATOM     20  C   UNL     1       0.597  -1.034   0.000  0.00  0.00    +0.000 A 
ATOM     21  C   UNL     1       1.053  -1.736   0.000  0.00  0.00    +0.000 A 
ATOM     22  C   UNL     1       1.010  -0.289   0.000  0.00  0.00    +0.000 A 
ATOM     23  C   UNL     1       1.878  -1.736   0.000  0.00  0.00    +0.000 A 
ATOM     24  C   UNL     1       1.841  -0.289   0.000  0.00  0.00    +0.000 A 
ATOM     25  C   UNL     1       2.253  -1.034   0.000  0.00  0.00    +0.000 A 
ENDBRANCH   4  20
TORSDOF 2
