REMARK  Name = 
REMARK  2 active torsions:
REMARK  status: ('A' for Active; 'I' for Inactive)
REMARK    1  A    between atoms: C_1  and  C_12
REMARK    2  A    between atoms: C_12  and  C_13
REMARK                            x       y       z     vdW  Elec       q    Type
REMARK                         _______ _______ _______ _____ _____    ______ ____
ROOT
ATOM      1  C   UNL     1      -0.080   0.043   0.000  0.00  0.00    +0.000 C 
ATOM      2  C   UNL     1       0.635   0.456   0.000  0.00  0.00    +0.000 C 
ATOM      3  N   UNL     1      -0.080  -0.782   0.000  0.00  0.00    +0.000 N 
ATOM      4  N   UNL     1       1.349   0.043   0.000  0.00  0.00    +0.000 NA
ATOM      5  C   UNL     1       1.349  -0.782   0.000  0.00  0.00    +0.000 C 
ATOM      6  C   UNL     1       0.635  -1.194   0.000  0.00  0.00    +0.000 C 
ATOM      7  C   UNL     1      -0.864   0.298   0.000  0.00  0.00    +0.000 C 
ATOM      8  C   UNL     1      -1.349  -0.369   0.000  0.00  0.00    +0.000 C 
ATOM      9  C   UNL     1      -0.864  -1.037   0.000  0.00  0.00    +0.000 C 
ATOM     10  O   UNL     1       0.635   1.280   0.000  0.00  0.00    +0.000 OA
ATOM     11  O   UNL     1       0.635  -2.019   0.000  0.00  0.00    +0.000 OA
ENDROOT
BRANCH   1  12
ATOM     12  C   UNL     1      -0.166   0.863   0.000  0.00  0.00    +0.000 C 
BRANCH  12  13
ATOM     13  C   UNL     1      -0.920   1.199   0.000  0.00  0.00    +0.000 C 
ATOM     14  C   UNL     1      -1.006   2.019   0.000  0.00  0.00    +0.000 C 
ENDBRANCH  12  13
ENDBRANCH   1  12
TORSDOF 2
