REMARK  Name = 
REMARK  4 active torsions:
REMARK  status: ('A' for Active; 'I' for Inactive)
REMARK    1  A    between atoms: N_3  and  C_12
REMARK    2  A    between atoms: C_13  and  O_14
REMARK    3  A    between atoms: O_14  and  C_15
REMARK    4  A    between atoms: C_19  and  C_21
REMARK                            x       y       z     vdW  Elec       q    Type
REMARK                         _______ _______ _______ _____ _____    ______ ____
ROOT
ATOM      1  O   UNL     1      -0.760   1.619   0.000  0.00  0.00    +0.000 OA
ATOM      2  C   UNL     1      -0.046   1.208   0.000  0.00  0.00    +0.000 A 
ATOM      3  N   UNL     1      -0.046   0.383   0.000  0.00  0.00    +0.000 N 
ATOM      4  C   UNL     1       1.383   0.383   0.000  0.00  0.00    +0.000 A 
ATOM      5  C   UNL     1       1.383   1.208   0.000  0.00  0.00    +0.000 A 
ATOM      6  S   UNL     1       0.666   1.619   0.000  0.00  0.00    +0.000 S 
ATOM      7  C   UNL     1       2.095   1.619   0.000  0.00  0.00    +0.000 A 
ATOM      8  N   UNL     1       2.812   1.208   0.000  0.00  0.00    +0.000 NA
ATOM      9  C   UNL     1       2.812   0.383   0.000  0.00  0.00    +0.000 A 
ATOM     10  N   UNL     1       2.095  -0.031   0.000  0.00  0.00    +0.000 NA
ATOM     11  N   UNL     1       3.526  -0.031   0.000  0.00  0.00    +0.000 NA
ENDROOT
BRANCH   3  12
ATOM     12  C   UNL     1      -0.760  -0.031   0.000  0.00  0.00    +0.000 C 
ATOM     13  C   UNL     1      -1.000  -0.802   0.000  0.00  0.00    +0.000 C 
ATOM     14  C   UNL     1      -1.831  -0.802   0.000  0.00  0.00    +0.000 C 
ATOM     15  C   UNL     1      -2.097  -0.031   0.000  0.00  0.00    +0.000 C 
ATOM     16  O   UNL     1      -1.444   0.475   0.000  0.00  0.00    +0.000 OA
BRANCH  15  17
ATOM     17  C   UNL     1      -2.812   0.383   0.000  0.00  0.00    +0.000 C 
ATOM     18  O   UNL     1      -3.526  -0.031   0.000  0.00  0.00    +0.000 OA
ENDBRANCH  15  17
BRANCH  13  19
ATOM     19  O   UNL     1      -0.261  -1.556   0.000  0.00  0.00    +0.000 OA
BRANCH  19  20
ATOM     20  C   UNL     1       0.471  -1.177   0.000  0.00  0.00    +0.000 C 
ATOM     21  C   UNL     1       1.167  -1.619   0.000  0.00  0.00    +0.000 C 
ATOM     22  O   UNL     1       0.460  -0.352   0.000  0.00  0.00    +0.000 OA
ENDBRANCH  19  20
ENDBRANCH  13  19
ENDBRANCH   3  12
TORSDOF 4
