REMARK  Name = 
REMARK  12 active torsions:
REMARK  status: ('A' for Active; 'I' for Inactive)
REMARK    1  A    between atoms: S_2  and  N_5
REMARK    2  A    between atoms: C_6  and  C_8
REMARK    3  A    between atoms: C_8  and  C_9
REMARK    4  A    between atoms: C_9  and  C_10
REMARK    5  A    between atoms: C_10  and  C_11
REMARK    6  A    between atoms: C_12  and  C_13
REMARK    7  A    between atoms: C_13  and  C_14
REMARK    8  A    between atoms: C_15  and  C_21
REMARK    9  A    between atoms: C_22  and  C_23
REMARK   10  A    between atoms: C_23  and  C_24
REMARK   11  A    between atoms: C_24  and  O_25
REMARK   12  A    between atoms: O_25  and  C_26
REMARK                            x       y       z     vdW  Elec       q    Type
REMARK                         _______ _______ _______ _____ _____    ______ ____
ROOT
ATOM      1  C   UNL     1       3.466  -3.774   0.000  0.00  0.00    +0.000 C 
ATOM      2  C   UNL     1       4.133  -4.259   0.000  0.00  0.00    +0.000 C 
ATOM      3  C   UNL     1       3.878  -5.044   0.000  0.00  0.00    +0.000 C 
ATOM      4  C   UNL     1       3.053  -5.044   0.000  0.00  0.00    +0.000 C 
ATOM      5  C   UNL     1       2.798  -4.259   0.000  0.00  0.00    +0.000 C 
ATOM      6  O   UNL     1       2.014  -4.004   0.000  0.00  0.00    +0.000 OA
ATOM      7  O   UNL     1       4.363  -5.711   0.000  0.00  0.00    +0.000 OA
ENDROOT
BRANCH   2   8
ATOM      8  C   UNL     1       4.918  -4.004   0.000  0.00  0.00    +0.000 C 
ATOM      9  C   UNL     1       5.531  -4.556   0.000  0.00  0.00    +0.000 C 
BRANCH   9  10
ATOM     10  C   UNL     1       6.315  -4.301   0.000  0.00  0.00    +0.000 C 
ATOM     11  O   UNL     1       6.487  -3.494   0.000  0.00  0.00    +0.000 OA
BRANCH  10  12
ATOM     12  C   UNL     1       6.928  -4.853   0.000  0.00  0.00    +0.000 C 
BRANCH  12  13
ATOM     13  O   UNL     1       7.713  -4.598   0.000  0.00  0.00    +0.000 OA
BRANCH  13  14
ATOM     14  C   UNL     1       8.326  -5.150   0.000  0.00  0.00    +0.000 A 
ATOM     15  C   UNL     1       9.111  -4.895   0.000  0.00  0.00    +0.000 A 
ATOM     16  C   UNL     1       9.724  -5.447   0.000  0.00  0.00    +0.000 A 
ATOM     17  C   UNL     1       9.552  -6.254   0.000  0.00  0.00    +0.000 A 
ATOM     18  C   UNL     1       8.768  -6.509   0.000  0.00  0.00    +0.000 A 
ATOM     19  C   UNL     1       8.155  -5.957   0.000  0.00  0.00    +0.000 A 
ENDBRANCH  13  14
ENDBRANCH  12  13
ENDBRANCH  10  12
ENDBRANCH   9  10
ENDBRANCH   2   8
BRANCH   1  20
ATOM     20  C   UNL     1       3.466  -2.949   0.000  0.00  0.00    +0.000 C 
BRANCH  20  22
ATOM     21  C   UNL     1       2.751  -1.712   0.000  0.00  0.00    +0.000 C 
ATOM     22  C   UNL     1       2.751  -2.537   0.000  0.00  0.00    +0.000 C 
BRANCH  21  23
ATOM     23  C   UNL     1       3.466  -1.299   0.000  0.00  0.00    +0.000 C 
BRANCH  23  24
ATOM     24  C   UNL     1       3.466  -0.474   0.000  0.00  0.00    +0.000 C 
BRANCH  24  25
ATOM     25  C   UNL     1       4.180  -0.062   0.000  0.00  0.00    +0.000 C 
BRANCH  25  27
ATOM     26  N   UNL     1       4.895   1.176   0.000  0.00  0.00    +0.000 NA
ATOM     27  C   UNL     1       4.180   0.763   0.000  0.00  0.00    +0.000 C 
ATOM     28  O   UNL     1       3.466   1.176   0.000  0.00  0.00    +0.000 OA
BRANCH  26  30
ATOM     29  C   UNL     1       4.895   2.826   0.000  0.00  0.00    +0.000 C 
ATOM     30  S   UNL     1       4.895   2.001   0.000  0.00  0.00    +0.000 S 
ATOM     31  O   UNL     1       4.070   2.001   0.000  0.00  0.00    +0.000 OA
ATOM     32  O   UNL     1       5.720   2.001   0.000  0.00  0.00    +0.000 OA
ENDBRANCH  26  30
ENDBRANCH  25  27
ENDBRANCH  24  25
ENDBRANCH  23  24
ENDBRANCH  21  23
ENDBRANCH  20  22
ENDBRANCH   1  20
TORSDOF 12
