REMARK  Name = 
REMARK  5 active torsions:
REMARK  status: ('A' for Active; 'I' for Inactive)
REMARK    1  A    between atoms: N_4  and  C_17
REMARK    2  A    between atoms: C_7  and  C_8
REMARK    3  A    between atoms: C_7  and  C_11
REMARK    4  A    between atoms: C_20  and  C_23
REMARK    5  A    between atoms: C_20  and  C_25
REMARK                            x       y       z     vdW  Elec       q    Type
REMARK                         _______ _______ _______ _____ _____    ______ ____
ROOT
ATOM      1  C   UNL     1       1.429   2.427   0.000  0.00  0.00    +0.000 C 
ATOM      2  C   UNL     1       0.714   2.014   0.000  0.00  0.00    +0.000 C 
ATOM      3  C   UNL     1       0.714   1.189   0.000  0.00  0.00    +0.000 C 
ATOM      4  N   UNL     1       0.000   0.777   0.000  0.00  0.00    +0.000 NA
ATOM      5  C   UNL     1      -0.714   1.189   0.000  0.00  0.00    +0.000 C 
ATOM      6  C   UNL     1      -0.714   2.014   0.000  0.00  0.00    +0.000 C 
ATOM      7  C   UNL     1       0.000   2.427   0.000  0.00  0.00    +0.000 C 
ENDROOT
BRANCH   7   8
ATOM      8  C   UNL     1      -0.387   3.155   0.000  0.00  0.00    +0.000 A 
ATOM      9  C   UNL     1      -1.212   3.184   0.000  0.00  0.00    +0.000 A 
ATOM     10  C   UNL     1      -1.599   3.912   0.000  0.00  0.00    +0.000 A 
ATOM     11  C   UNL     1      -1.162   4.612   0.000  0.00  0.00    +0.000 A 
ATOM     12  C   UNL     1      -0.337   4.583   0.000  0.00  0.00    +0.000 A 
ATOM     13  C   UNL     1       0.050   3.855   0.000  0.00  0.00    +0.000 A 
ENDBRANCH   7   8
BRANCH   4  14
ATOM     14  C   UNL     1       0.000  -0.048   0.000  0.00  0.00    +0.000 C 
ATOM     15  C   UNL     1      -0.714  -0.461   0.000  0.00  0.00    +0.000 C 
ATOM     16  C   UNL     1      -0.714  -1.286   0.000  0.00  0.00    +0.000 C 
ATOM     17  C   UNL     1       0.000  -1.698   0.000  0.00  0.00    +0.000 C 
ATOM     18  C   UNL     1       0.714  -1.286   0.000  0.00  0.00    +0.000 C 
ATOM     19  C   UNL     1       0.714  -0.461   0.000  0.00  0.00    +0.000 C 
BRANCH  17  20
ATOM     20  C   UNL     1       0.387  -2.427   0.000  0.00  0.00    +0.000 A 
ATOM     21  C   UNL     1       1.212  -2.455   0.000  0.00  0.00    +0.000 A 
ATOM     22  C   UNL     1       1.599  -3.184   0.000  0.00  0.00    +0.000 A 
ATOM     23  C   UNL     1       1.162  -3.884   0.000  0.00  0.00    +0.000 A 
ATOM     24  F   UNL     1       1.549  -4.612   0.000  0.00  0.00    +0.000 F 
ATOM     25  C   UNL     1       0.337  -3.855   0.000  0.00  0.00    +0.000 A 
ATOM     26  C   UNL     1      -0.050  -3.126   0.000  0.00  0.00    +0.000 A 
ENDBRANCH  17  20
BRANCH  17  27
ATOM     27  C   UNL     1      -0.387  -2.427   0.000  0.00  0.00    +0.000 C 
ATOM     28  N   UNL     1      -0.775  -3.155   0.000  0.00  0.00    +0.000 NA
ENDBRANCH  17  27
ENDBRANCH   4  14
BRANCH   7  29
ATOM     29  C   UNL     1       0.387   3.155   0.000  0.00  0.00    +0.000 C 
ATOM     30  O   UNL     1       0.445   3.978   0.000  0.00  0.00    +0.000 OA
ATOM     31  O   UNL     1       1.212   3.184   0.000  0.00  0.00    +0.000 OA
ENDBRANCH   7  29
TORSDOF 5
