REMARK  Name = 
REMARK  6 active torsions:
REMARK  status: ('A' for Active; 'I' for Inactive)
REMARK    1  A    between atoms: N_10  and  CA_12
REMARK    2  A    between atoms: N_11  and  CA_13
REMARK    3  A    between atoms: CA_12  and  CB_14
REMARK    4  A    between atoms: CA_12  and  C_16
REMARK    5  A    between atoms: CA_13  and  CB_15
REMARK    6  A    between atoms: CA_13  and  C_17
REMARK                            x       y       z     vdW  Elec       q    Type
REMARK                         _______ _______ _______ _____ _____    ______ ____
ROOT
ATOM      1  CA  CYS A   1       2.153   0.000   0.000  0.00  0.00    +0.000 C 
ENDROOT
BRANCH   1   3
ATOM      2  O   UNK A   0       3.585  -0.825   0.000  0.00  0.00    +0.000 OA
ATOM      3  N   CYS A   1       2.864   0.408   0.000  0.00  0.00    +0.000 N 
ATOM      4  C   UNK A   0       3.585   0.000   0.000  0.00  0.00    +0.000 C 
ATOM      5  C   UNK A   0       4.296   0.408   0.000  0.00  0.00    +0.000 C 
ATOM      6  H   CYS A   1       2.864   0.929   0.000  0.00  0.00    +0.000 HD
ENDBRANCH   1   3
BRANCH   1   9
ATOM      7  O   CYS A   1       0.721   0.000   0.000  0.00  0.00    +0.000 OA
ATOM      8  OXT CYS A   1       1.432   1.242   0.000  0.00  0.00    +0.000 OA
ATOM      9  C   CYS A   1       1.432   0.408   0.000  0.00  0.00    +0.000 C 
ENDBRANCH   1   9
BRANCH   1  11
ATOM     10  SG  CYS A   1       1.432  -1.242   0.000  0.00  0.00    +0.000 S 
ATOM     11  CB  CYS A   1       2.153  -0.825   0.000  0.00  0.00    +0.000 C 
ENDBRANCH   1  11
TORSDOF 3
REMARK  Name = 
REMARK  6 active torsions:
REMARK  status: ('A' for Active; 'I' for Inactive)
REMARK    1  A    between atoms: N_10  and  CA_12
REMARK    2  A    between atoms: N_11  and  CA_13
REMARK    3  A    between atoms: CA_12  and  CB_14
REMARK    4  A    between atoms: CA_12  and  C_16
REMARK    5  A    between atoms: CA_13  and  CB_15
REMARK    6  A    between atoms: CA_13  and  C_17
REMARK                            x       y       z     vdW  Elec       q    Type
REMARK                         _______ _______ _______ _____ _____    ______ ____
ROOT
ATOM      1  CA  CYS A   1      -2.153   0.000   0.000  0.00  0.00    +0.000 C 
ENDROOT
BRANCH   1   3
ATOM      2  O   UNK A   0      -3.585  -0.825   0.000  0.00  0.00    +0.000 OA
ATOM      3  N   CYS A   1      -2.864   0.408   0.000  0.00  0.00    +0.000 N 
ATOM      4  C   UNK A   0      -3.585   0.000   0.000  0.00  0.00    +0.000 C 
ATOM      5  C   UNK A   0      -4.296   0.408   0.000  0.00  0.00    +0.000 C 
ATOM      6  H   CYS A   1      -2.864   0.929   0.000  0.00  0.00    +0.000 HD
ENDBRANCH   1   3
BRANCH   1   9
ATOM      7  O   CYS A   1      -0.721   0.000   0.000  0.00  0.00    +0.000 OA
ATOM      8  OXT CYS A   1      -1.432   1.242   0.000  0.00  0.00    +0.000 OA
ATOM      9  C   CYS A   1      -1.432   0.408   0.000  0.00  0.00    +0.000 C 
ENDBRANCH   1   9
BRANCH   1  11
ATOM     10  SG  CYS A   1      -2.864  -1.242   0.000  0.00  0.00    +0.000 S 
ATOM     11  CB  CYS A   1      -2.153  -0.825   0.000  0.00  0.00    +0.000 C 
ENDBRANCH   1  11
TORSDOF 3
REMARK  Name = 
REMARK  6 active torsions:
REMARK  status: ('A' for Active; 'I' for Inactive)
REMARK    1  A    between atoms: N_10  and  CA_12
REMARK    2  A    between atoms: N_11  and  CA_13
REMARK    3  A    between atoms: CA_12  and  CB_14
REMARK    4  A    between atoms: CA_12  and  C_16
REMARK    5  A    between atoms: CA_13  and  CB_15
REMARK    6  A    between atoms: CA_13  and  C_17
REMARK                            x       y       z     vdW  Elec       q    Type
REMARK                         _______ _______ _______ _____ _____    ______ ____
ROOT
ATOM      1 MG   UNL     1       0.000   0.408   0.000  0.00  0.00    +0.000 Mg
ENDROOT
TORSDOF 0
