REMARK  Name = 
REMARK  13 active torsions:
REMARK  status: ('A' for Active; 'I' for Inactive)
REMARK    1  A    between atoms: C_2  and  C_3
REMARK    2  A    between atoms: C_2  and  N_11
REMARK    3  A    between atoms: C_3  and  O_5
REMARK    4  A    between atoms: O_5  and  C_6
REMARK    5  A    between atoms: C_6  and  C_7
REMARK    6  A    between atoms: N_11  and  P_12
REMARK    7  A    between atoms: P_12  and  O_14
REMARK    8  A    between atoms: P_12  and  O_36
REMARK    9  A    between atoms: O_14  and  C_15
REMARK   10  A    between atoms: C_15  and  C_16
REMARK   11  A    between atoms: C_19  and  N_21
REMARK   12  A    between atoms: C_29  and  O_30
REMARK   13  A    between atoms: O_36  and  C_37
REMARK                            x       y       z     vdW  Elec       q    Type
REMARK                         _______ _______ _______ _____ _____    ______ ____
ROOT
ATOM      1  P   UNL     1      -0.715   1.238   0.000  0.00  0.00    +0.000 P 
ATOM      2  O   UNL     1      -1.429   1.650   0.000  0.00  0.00    +0.000 OA
ENDROOT
BRANCH   1   3
ATOM      3  N   UNL     1      -0.302   1.952   0.000  0.00  0.00    +0.000 NA
BRANCH   3   5
ATOM      4  C   UNL     1       0.935   1.238   0.000  0.00  0.00    +0.000 C 
ATOM      5  C   UNL     1       0.523   1.952   0.000  0.00  0.00    +0.000 C 
BRANCH   5   6
ATOM      6  C   UNL     1       0.935   2.666   0.000  0.00  0.00    +0.000 C 
ATOM      7  O   UNL     1       0.523   3.381   0.000  0.00  0.00    +0.000 OA
BRANCH   6   8
ATOM      8  O   UNL     1       1.760   2.666   0.000  0.00  0.00    +0.000 OA
BRANCH   8   9
ATOM      9  C   UNL     1       2.173   3.381   0.000  0.00  0.00    +0.000 C 
BRANCH   9  10
ATOM     10  C   UNL     1       2.998   3.381   0.000  0.00  0.00    +0.000 C 
ATOM     11  C   UNL     1       3.823   3.381   0.000  0.00  0.00    +0.000 C 
ATOM     12  C   UNL     1       2.998   4.206   0.000  0.00  0.00    +0.000 C 
ATOM     13  C   UNL     1       2.998   2.556   0.000  0.00  0.00    +0.000 C 
ENDBRANCH   9  10
ENDBRANCH   8   9
ENDBRANCH   6   8
ENDBRANCH   5   6
ENDBRANCH   3   5
ENDBRANCH   1   3
BRANCH   1  14
ATOM     14  O   UNL     1       0.000   0.825   0.000  0.00  0.00    +0.000 OA
BRANCH  14  15
ATOM     15  C   UNL     1       0.000   0.000   0.000  0.00  0.00    +0.000 A 
ATOM     16  C   UNL     1      -0.715  -0.412   0.000  0.00  0.00    +0.000 A 
ATOM     17  C   UNL     1      -0.715  -1.238   0.000  0.00  0.00    +0.000 A 
ATOM     18  C   UNL     1       0.000  -1.650   0.000  0.00  0.00    +0.000 A 
ATOM     19  C   UNL     1       0.715  -1.238   0.000  0.00  0.00    +0.000 A 
ATOM     20  C   UNL     1       0.715  -0.412   0.000  0.00  0.00    +0.000 A 
ATOM     21  C   UNL     1       1.429   0.000   0.000  0.00  0.00    +0.000 A 
ATOM     22  C   UNL     1       2.143  -0.412   0.000  0.00  0.00    +0.000 A 
ATOM     23  C   UNL     1       2.143  -1.238   0.000  0.00  0.00    +0.000 A 
ATOM     24  C   UNL     1       1.429  -1.650   0.000  0.00  0.00    +0.000 A 
ENDBRANCH  14  15
ENDBRANCH   1  14
BRANCH   1  25
ATOM     25  O   UNL     1      -1.127   0.523   0.000  0.00  0.00    +0.000 OA
BRANCH  25  26
ATOM     26  C   UNL     1      -1.952   0.523   0.000  0.00  0.00    +0.000 C 
BRANCH  26  27
ATOM     27  C   UNL     1      -2.365  -0.191   0.000  0.00  0.00    +0.000 C 
ATOM     28  C   UNL     1      -2.029  -0.945   0.000  0.00  0.00    +0.000 C 
ATOM     29  C   UNL     1      -2.642  -1.497   0.000  0.00  0.00    +0.000 C 
ATOM     30  C   UNL     1      -3.357  -1.085   0.000  0.00  0.00    +0.000 C 
ATOM     31  O   UNL     1      -3.185  -0.278   0.000  0.00  0.00    +0.000 OA
ATOM     32  C   UNL     1      -2.164  -2.170   0.000  0.00  0.00    +0.000 C 
ATOM     33  O   UNL     1      -2.970  -2.254   0.000  0.00  0.00    +0.000 OA
ATOM     34  O   UNL     1      -1.222  -1.117   0.000  0.00  0.00    +0.000 OA
BRANCH  30  35
ATOM     35  N   UNL     1      -4.110  -1.420   0.000  0.00  0.00    +0.000 N 
ATOM     36  C   UNL     1      -4.825  -1.008   0.000  0.00  0.00    +0.000 A 
ATOM     37  N   UNL     1      -5.438  -1.560   0.000  0.00  0.00    +0.000 NA
ATOM     38  C   UNL     1      -5.102  -2.313   0.000  0.00  0.00    +0.000 A 
ATOM     39  C   UNL     1      -4.282  -2.227   0.000  0.00  0.00    +0.000 A 
ATOM     40  N   UNL     1      -3.797  -2.895   0.000  0.00  0.00    +0.000 NA
ATOM     41  C   UNL     1      -4.132  -3.648   0.000  0.00  0.00    +0.000 A 
ATOM     42  N   UNL     1      -4.953  -3.735   0.000  0.00  0.00    +0.000 NA
ATOM     43  C   UNL     1      -5.438  -3.067   0.000  0.00  0.00    +0.000 A 
ATOM     44  N   UNL     1      -3.647  -4.316   0.000  0.00  0.00    +0.000 NA
BRANCH  43  45
ATOM     45  O   UNL     1      -6.258  -3.153   0.000  0.00  0.00    +0.000 OA
ATOM     46  C   UNL     1      -6.594  -3.907   0.000  0.00  0.00    +0.000 C 
ENDBRANCH  43  45
ENDBRANCH  30  35
ENDBRANCH  26  27
ENDBRANCH  25  26
ENDBRANCH   1  25
TORSDOF 13
