REMARK  Name = 
REMARK  1 active torsions:
REMARK  status: ('A' for Active; 'I' for Inactive)
REMARK    1  A    between atoms: S_1  and  C_18
REMARK                            x       y       z     vdW  Elec       q    Type
REMARK                         _______ _______ _______ _____ _____    ______ ____
ROOT
ATOM      1  O   UNL     1       2.299  -1.492   0.000  0.00  0.00    +0.000 OA
ATOM      2  O   UNL     1      -0.058   0.620   0.000  0.00  0.00    +0.000 OA
ATOM      3  N   UNL     1       2.029   0.207   0.000  0.00  0.00    +0.000 N 
ATOM      4  N   UNL     1       0.992  -2.156   0.000  0.00  0.00    +0.000 N 
ATOM      5  C   UNL     1       0.992  -0.828   0.000  0.00  0.00    +0.000 C 
ATOM      6  C   UNL     1       0.211  -1.079   0.000  0.00  0.00    +0.000 A 
ATOM      7  C   UNL     1       1.248  -0.044   0.000  0.00  0.00    +0.000 C 
ATOM      8  C   UNL     1       0.211  -1.905   0.000  0.00  0.00    +0.000 A 
ATOM      9  C   UNL     1       1.474  -1.492   0.000  0.00  0.00    +0.000 C 
ATOM     10  C   UNL     1       1.248   1.284   0.000  0.00  0.00    +0.000 A 
ATOM     11  C   UNL     1       2.033   1.028   0.000  0.00  0.00    +0.000 A 
ATOM     12  C   UNL     1       0.767   0.620   0.000  0.00  0.00    +0.000 C 
ATOM     13  C   UNL     1      -0.503  -0.667   0.000  0.00  0.00    +0.000 A 
ATOM     14  C   UNL     1      -1.218  -1.079   0.000  0.00  0.00    +0.000 A 
ATOM     15  C   UNL     1      -0.503  -2.317   0.000  0.00  0.00    +0.000 A 
ATOM     16  C   UNL     1      -1.218  -1.905   0.000  0.00  0.00    +0.000 A 
ATOM     17  C   UNL     1       1.078   2.091   0.000  0.00  0.00    +0.000 A 
ATOM     18  C   UNL     1       2.647   1.579   0.000  0.00  0.00    +0.000 A 
ATOM     19  C   UNL     1       1.692   2.642   0.000  0.00  0.00    +0.000 A 
ATOM     20  C   UNL     1       2.477   2.386   0.000  0.00  0.00    +0.000 A 
ATOM     21  H   UNL     1       2.442  -0.095   0.000  0.00  0.00    +0.000 HD
ATOM     22  H   UNL     1       1.151  -2.642   0.000  0.00  0.00    +0.000 HD
ENDROOT
BRANCH  14  23
ATOM     23  S   UNL     1      -1.932  -0.667   0.000  0.00  0.00    +0.000 S 
ATOM     24  O   UNL     1      -2.647  -0.254   0.000  0.00  0.00    +0.000 OA
ATOM     25  O   UNL     1      -1.520   0.047   0.000  0.00  0.00    +0.000 OA
ATOM     26  O   UNL     1      -2.345  -1.381   0.000  0.00  0.00    +0.000 OA
ENDBRANCH  14  23
TORSDOF 1
