REMARK  Name = 
REMARK  2 active torsions:
REMARK  status: ('A' for Active; 'I' for Inactive)
REMARK    1  A    between atoms: C_4  and  O_23
REMARK    2  A    between atoms: C_18  and  C_19
REMARK                            x       y       z     vdW  Elec       q    Type
REMARK                         _______ _______ _______ _____ _____    ______ ____
ROOT
ATOM      1  C   UNL     1       1.389  -1.850   0.000  0.00  0.00    +0.000 C 
ATOM      2  C   UNL     1       1.749  -2.592   0.000  0.00  0.00    +0.000 C 
ATOM      3  C   UNL     1       2.281  -1.961   0.000  0.00  0.00    +0.000 C 
ATOM      4  C   UNL     1       3.093  -2.107   0.000  0.00  0.00    +0.000 C 
ATOM      5  C   UNL     1       3.374  -2.882   0.000  0.00  0.00    +0.000 C 
ATOM      6  C   UNL     1       4.186  -3.028   0.000  0.00  0.00    +0.000 A 
ATOM      7  C   UNL     1       4.718  -2.397   0.000  0.00  0.00    +0.000 A 
ATOM      8  C   UNL     1       5.530  -2.542   0.000  0.00  0.00    +0.000 A 
ATOM      9  C   UNL     1       5.810  -3.318   0.000  0.00  0.00    +0.000 A 
ATOM     10  C   UNL     1       5.278  -3.949   0.000  0.00  0.00    +0.000 A 
ATOM     11  C   UNL     1       4.466  -3.804   0.000  0.00  0.00    +0.000 A 
ATOM     12  C   UNL     1       3.934  -4.434   0.000  0.00  0.00    +0.000 C 
ATOM     13  C   UNL     1       3.122  -4.289   0.000  0.00  0.00    +0.000 C 
ATOM     14  C   UNL     1       2.842  -3.513   0.000  0.00  0.00    +0.000 C 
ATOM     15  C   UNL     1       2.030  -3.368   0.000  0.00  0.00    +0.000 C 
ATOM     16  C   UNL     1       1.378  -3.874   0.000  0.00  0.00    +0.000 C 
ATOM     17  C   UNL     1       0.696  -3.411   0.000  0.00  0.00    +0.000 C 
ATOM     18  C   UNL     1       0.925  -2.619   0.000  0.00  0.00    +0.000 C 
ATOM     19  O   UNL     1       0.803  -1.803   0.000  0.00  0.00    +0.000 OA
ATOM     20  O   UNL     1       6.622  -3.463   0.000  0.00  0.00    +0.000 OA
ENDROOT
BRANCH  18  21
ATOM     21  C   UNL     1       0.164  -2.300   0.000  0.00  0.00    +0.000 C 
ATOM     22  C   UNL     1      -0.597  -1.981   0.000  0.00  0.00    +0.000 C 
ENDBRANCH  18  21
BRANCH   4  23
ATOM     23  O   UNL     1       3.625  -1.476   0.000  0.00  0.00    +0.000 OA
ATOM     24  C   UNL     1       4.437  -1.621   0.000  0.00  0.00    +0.000 C 
ENDBRANCH   4  23
TORSDOF 2
