REMARK  Name = 
REMARK  9 active torsions:
REMARK  status: ('A' for Active; 'I' for Inactive)
REMARK    1  A    between atoms: C_2  and  O_3
REMARK    2  A    between atoms: O_3  and  C_4
REMARK    3  A    between atoms: C_4  and  C_6
REMARK    4  A    between atoms: C_6  and  N_7
REMARK    5  A    between atoms: C_13  and  C_15
REMARK    6  A    between atoms: C_16  and  C_17
REMARK    7  A    between atoms: C_19  and  O_27
REMARK    8  A    between atoms: C_20  and  O_25
REMARK    9  A    between atoms: C_21  and  O_23
REMARK                            x       y       z     vdW  Elec       q    Type
REMARK                         _______ _______ _______ _____ _____    ______ ____
ROOT
ATOM      1  N   UNL     1       0.000  -5.775   0.000  0.00  0.00    +0.000 NA
ATOM      2  C   UNL     1       0.715  -5.362   0.000  0.00  0.00    +0.000 C 
ATOM      3  C   UNL     1       1.429  -5.775   0.000  0.00  0.00    +0.000 C 
ATOM      4  N   UNL     1       1.429  -6.600   0.000  0.00  0.00    +0.000 N 
ATOM      5  C   UNL     1       0.715  -7.013   0.000  0.00  0.00    +0.000 C 
ATOM      6  C   UNL     1       0.000  -6.600   0.000  0.00  0.00    +0.000 C 
ATOM      7  C   UNL     1       2.143  -7.013   0.000  0.00  0.00    +0.000 C 
ATOM      8  O   UNL     1       2.143  -7.838   0.000  0.00  0.00    +0.000 OA
ENDROOT
BRANCH   7   9
ATOM      9  C   UNL     1       2.858  -6.600   0.000  0.00  0.00    +0.000 C 
ATOM     10  C   UNL     1       2.858  -5.775   0.000  0.00  0.00    +0.000 C 
BRANCH  10  11
ATOM     11  C   UNL     1       3.572  -5.362   0.000  0.00  0.00    +0.000 A 
ATOM     12  C   UNL     1       3.572  -4.537   0.000  0.00  0.00    +0.000 A 
ATOM     13  C   UNL     1       4.287  -4.125   0.000  0.00  0.00    +0.000 A 
ATOM     14  C   UNL     1       5.001  -4.537   0.000  0.00  0.00    +0.000 A 
ATOM     15  C   UNL     1       5.001  -5.362   0.000  0.00  0.00    +0.000 A 
ATOM     16  C   UNL     1       4.287  -5.775   0.000  0.00  0.00    +0.000 A 
BRANCH  14  17
ATOM     17  O   UNL     1       5.716  -4.125   0.000  0.00  0.00    +0.000 OA
ATOM     18  C   UNL     1       5.716  -3.300   0.000  0.00  0.00    +0.000 C 
ENDBRANCH  14  17
BRANCH  13  19
ATOM     19  O   UNL     1       4.287  -3.300   0.000  0.00  0.00    +0.000 OA
ATOM     20  C   UNL     1       5.001  -2.888   0.000  0.00  0.00    +0.000 C 
ENDBRANCH  13  19
BRANCH  15  21
ATOM     21  O   UNL     1       5.716  -5.775   0.000  0.00  0.00    +0.000 OA
ATOM     22  C   UNL     1       5.716  -6.600   0.000  0.00  0.00    +0.000 C 
ENDBRANCH  15  21
ENDBRANCH  10  11
ENDBRANCH   7   9
BRANCH   1  23
ATOM     23  C   UNL     1      -0.715  -5.362   0.000  0.00  0.00    +0.000 C 
BRANCH  23  24
ATOM     24  C   UNL     1      -1.429  -5.775   0.000  0.00  0.00    +0.000 C 
ATOM     25  O   UNL     1      -1.429  -6.600   0.000  0.00  0.00    +0.000 OA
BRANCH  24  26
ATOM     26  O   UNL     1      -2.143  -5.362   0.000  0.00  0.00    +0.000 OA
BRANCH  26  28
ATOM     27  C   UNL     1      -3.572  -5.362   0.000  0.00  0.00    +0.000 C 
ATOM     28  C   UNL     1      -2.858  -5.775   0.000  0.00  0.00    +0.000 C 
ENDBRANCH  26  28
ENDBRANCH  24  26
ENDBRANCH  23  24
ENDBRANCH   1  23
TORSDOF 9
