REMARK  Name = 
REMARK  14 active torsions:
REMARK  status: ('A' for Active; 'I' for Inactive)
REMARK    1  A    between atoms: C_3  and  C_10
REMARK    2  A    between atoms: C_5  and  N_7
REMARK    3  A    between atoms: C_11  and  C_18
REMARK    4  A    between atoms: C_15  and  C_22
REMARK    5  A    between atoms: C_18  and  O_19
REMARK    6  A    between atoms: C_22  and  O_24
REMARK    7  A    between atoms: O_24  and  C_25
REMARK    8  A    between atoms: C_25  and  C_28
REMARK    9  A    between atoms: C_28  and  N_29
REMARK   10  A    between atoms: N_29  and  C_31
REMARK   11  A    between atoms: C_31  and  C_32
REMARK   12  A    between atoms: C_32  and  C_33
REMARK   13  A    between atoms: C_33  and  C_34
REMARK   14  A    between atoms: C_33  and  C_35
REMARK                            x       y       z     vdW  Elec       q    Type
REMARK                         _______ _______ _______ _____ _____    ______ ____
ROOT
ATOM      1  C   UNL     1      -1.421  -0.215   0.000  0.00  0.00    +0.000 C 
ATOM      2  O   UNL     1      -1.425   0.610   0.000  0.00  0.00    +0.000 OA
ENDROOT
BRANCH   1   8
ATOM      3  C   UNL     1      -2.838  -0.220   0.000  0.00  0.00    +0.000 C 
ATOM      4  C   UNL     1      -3.556  -0.623   0.000  0.00  0.00    +0.000 C 
ATOM      5  C   UNL     1      -3.566  -1.441   0.000  0.00  0.00    +0.000 C 
ATOM      6  N   UNL     1      -2.859  -1.863   0.000  0.00  0.00    +0.000 NA
ATOM      7  C   UNL     1      -2.141  -1.460   0.000  0.00  0.00    +0.000 C 
ATOM      8  C   UNL     1      -2.130  -0.635   0.000  0.00  0.00    +0.000 C 
ATOM      9  C   UNL     1      -4.284  -1.849   0.000  0.00  0.00    +0.000 C 
ATOM     10  C   UNL     1      -1.429  -1.870   0.000  0.00  0.00    +0.000 C 
BRANCH   3  13
ATOM     11  C   UNL     1      -3.543   1.843   0.000  0.00  0.00    +0.000 A 
ATOM     12  C   UNL     1      -3.544   1.016   0.000  0.00  0.00    +0.000 A 
ATOM     13  C   UNL     1      -2.830   0.603   0.000  0.00  0.00    +0.000 A 
ATOM     14  C   UNL     1      -2.113   1.016   0.000  0.00  0.00    +0.000 A 
ATOM     15  C   UNL     1      -2.116   1.847   0.000  0.00  0.00    +0.000 A 
ATOM     16  C   UNL     1      -2.831   2.256   0.000  0.00  0.00    +0.000 A 
BRANCH  15  17
ATOM     17  N   UNL     1      -1.404   2.264   0.000  0.00  0.00    +0.000 N 
ATOM     18  O   UNL     1      -1.408   3.089   0.000  0.00  0.00    +0.000 OA
ATOM     19  O   UNL     1      -0.692   1.851   0.000  0.00  0.00    +0.000 OA
ENDBRANCH  15  17
ENDBRANCH   3  13
BRANCH   4  20
ATOM     20  C   UNL     1      -4.275  -0.207   0.000  0.00  0.00    +0.000 C 
ATOM     21  O   UNL     1      -4.279   0.618   0.000  0.00  0.00    +0.000 OA
BRANCH  20  22
ATOM     22  O   UNL     1      -4.992  -0.616   0.000  0.00  0.00    +0.000 OA
ATOM     23  C   UNL     1      -5.709  -0.203   0.000  0.00  0.00    +0.000 C 
ENDBRANCH  20  22
ENDBRANCH   4  20
ENDBRANCH   1   8
BRANCH   1  24
ATOM     24  O   UNL     1      -0.708  -0.628   0.000  0.00  0.00    +0.000 OA
BRANCH  24  25
ATOM     25  C   UNL     1       0.004  -0.211   0.000  0.00  0.00    +0.000 C 
ATOM     26  C   UNL     1      -0.412   0.505   0.000  0.00  0.00    +0.000 C 
ATOM     27  C   UNL     1       0.413   0.505   0.000  0.00  0.00    +0.000 C 
BRANCH  25  28
ATOM     28  C   UNL     1       0.717  -0.624   0.000  0.00  0.00    +0.000 C 
BRANCH  28  29
ATOM     29  N   UNL     1       1.429  -0.207   0.000  0.00  0.00    +0.000 NA
ATOM     30  C   UNL     1       1.425   0.618   0.000  0.00  0.00    +0.000 C 
BRANCH  29  31
ATOM     31  C   UNL     1       2.142  -0.620   0.000  0.00  0.00    +0.000 C 
BRANCH  31  32
ATOM     32  C   UNL     1       2.855  -0.203   0.000  0.00  0.00    +0.000 C 
BRANCH  32  33
ATOM     33  C   UNL     1       3.567  -0.616   0.000  0.00  0.00    +0.000 C 
BRANCH  33  34
ATOM     34  C   UNL     1       3.563  -1.441   0.000  0.00  0.00    +0.000 A 
ATOM     35  C   UNL     1       2.844  -1.848   0.000  0.00  0.00    +0.000 A 
ATOM     36  C   UNL     1       2.840  -2.672   0.000  0.00  0.00    +0.000 A 
ATOM     37  C   UNL     1       3.553  -3.089   0.000  0.00  0.00    +0.000 A 
ATOM     38  C   UNL     1       4.272  -2.676   0.000  0.00  0.00    +0.000 A 
ATOM     39  C   UNL     1       4.273  -1.853   0.000  0.00  0.00    +0.000 A 
ENDBRANCH  33  34
BRANCH  33  40
ATOM     40  C   UNL     1       4.280  -0.199   0.000  0.00  0.00    +0.000 A 
ATOM     41  C   UNL     1       4.997  -0.611   0.000  0.00  0.00    +0.000 A 
ATOM     42  C   UNL     1       5.709  -0.195   0.000  0.00  0.00    +0.000 A 
ATOM     43  C   UNL     1       5.705   0.632   0.000  0.00  0.00    +0.000 A 
ATOM     44  C   UNL     1       4.982   1.040   0.000  0.00  0.00    +0.000 A 
ATOM     45  C   UNL     1       4.273   0.622   0.000  0.00  0.00    +0.000 A 
ENDBRANCH  33  40
ENDBRANCH  32  33
ENDBRANCH  31  32
ENDBRANCH  29  31
ENDBRANCH  28  29
ENDBRANCH  25  28
ENDBRANCH  24  25
ENDBRANCH   1  24
TORSDOF 14
