REMARK  Name = 
REMARK  2 active torsions:
REMARK  status: ('A' for Active; 'I' for Inactive)
REMARK    1  A    between atoms: N_7  and  C_9
REMARK    2  A    between atoms: C_9  and  C_10
REMARK                            x       y       z     vdW  Elec       q    Type
REMARK                         _______ _______ _______ _____ _____    ______ ____
ROOT
ATOM      1  F   UNL     1      -1.005  -3.284   0.000  0.00  0.00    +0.000 F 
ATOM      2  O   UNL     1      -1.070   1.026   0.000  0.00  0.00    +0.000 OA
ATOM      3  O   UNL     1      -2.758  -0.966   0.000  0.00  0.00    +0.000 OA
ATOM      4  N   UNL     1      -0.151  -0.115   0.000  0.00  0.00    +0.000 N 
ATOM      5  N   UNL     1      -2.271  -0.300   0.000  0.00  0.00    +0.000 NA
ATOM      6  C   UNL     1      -0.236  -0.931   0.000  0.00  0.00    +0.000 A 
ATOM      7  C   UNL     1      -1.044  -1.101   0.000  0.00  0.00    +0.000 A 
ATOM      8  C   UNL     1      -0.900   0.219   0.000  0.00  0.00    +0.000 C 
ATOM      9  C   UNL     1      -1.451  -0.389   0.000  0.00  0.00    +0.000 C 
ATOM     10  C   UNL     1       0.315  -1.545   0.000  0.00  0.00    +0.000 A 
ATOM     11  C   UNL     1      -1.300  -1.885   0.000  0.00  0.00    +0.000 A 
ATOM     12  C   UNL     1       0.058  -2.329   0.000  0.00  0.00    +0.000 A 
ATOM     13  C   UNL     1      -0.749  -2.499   0.000  0.00  0.00    +0.000 A 
ENDROOT
BRANCH   4  14
ATOM     14  C   UNL     1       0.563   0.297   0.000  0.00  0.00    +0.000 C 
BRANCH  14  18
ATOM     15  F   UNL     1      -0.866   2.772   0.000  0.00  0.00    +0.000 F 
ATOM     16  O   UNL     1       2.015   1.094   0.000  0.00  0.00    +0.000 OA
ATOM     17  O   UNL     1       2.763   2.377   0.000  0.00  0.00    +0.000 OA
ATOM     18  C   UNL     1       0.563   1.122   0.000  0.00  0.00    +0.000 A 
ATOM     19  C   UNL     1       1.278   1.535   0.000  0.00  0.00    +0.000 A 
ATOM     20  C   UNL     1       1.278   2.360   0.000  0.00  0.00    +0.000 A 
ATOM     21  C   UNL     1      -0.151   1.535   0.000  0.00  0.00    +0.000 A 
ATOM     22  C   UNL     1       2.015   2.801   0.000  0.00  0.00    +0.000 C 
ATOM     23  C   UNL     1       0.563   2.772   0.000  0.00  0.00    +0.000 A 
ATOM     24  C   UNL     1      -0.151   2.360   0.000  0.00  0.00    +0.000 A 
ATOM     25  C   UNL     1       2.763   1.517   0.000  0.00  0.00    +0.000 C 
ENDBRANCH  14  18
ENDBRANCH   4  14
TORSDOF 2
