REMARK  Name = 
REMARK  6 active torsions:
REMARK  status: ('A' for Active; 'I' for Inactive)
REMARK    1  A    between atoms: C_3  and  S_8
REMARK    2  A    between atoms: C_6  and  N_15
REMARK    3  A    between atoms: C_14  and  N_19
REMARK    4  A    between atoms: N_20  and  C_21
REMARK    5  A    between atoms: C_23  and  C_31
REMARK    6  A    between atoms: C_26  and  S_28
REMARK                            x       y       z     vdW  Elec       q    Type
REMARK                         _______ _______ _______ _____ _____    ______ ____
ROOT
ATOM      1  C   UNL     1      -0.285   1.211   0.000  0.00  0.00    +0.000 A 
ATOM      2  C   UNL     1      -0.230  -0.124   0.000  0.00  0.00    +0.000 A 
ATOM      3  C   UNL     1       0.230   0.566   0.000  0.00  0.00    +0.000 A 
ATOM      4  N   UNL     1      -1.031   0.106   0.000  0.00  0.00    +0.000 N 
ATOM      5  N   UNL     1      -1.059   0.935   0.000  0.00  0.00    +0.000 NA
ATOM      6  C   UNL     1      -0.055   2.012   0.000  0.00  0.00    +0.000 C 
ATOM      7  O   UNL     1       0.046  -0.898   0.000  0.00  0.00    +0.000 OA
ENDROOT
BRANCH   4  13
ATOM      8  C   UNL     1      -2.459   0.106   0.000  0.00  0.00    +0.000 A 
ATOM      9  C   UNL     1      -3.177  -0.308   0.000  0.00  0.00    +0.000 A 
ATOM     10  C   UNL     1      -3.177  -1.137   0.000  0.00  0.00    +0.000 A 
ATOM     11  C   UNL     1      -2.459  -1.542   0.000  0.00  0.00    +0.000 A 
ATOM     12  C   UNL     1      -1.740  -1.137   0.000  0.00  0.00    +0.000 A 
ATOM     13  C   UNL     1      -1.740  -0.308   0.000  0.00  0.00    +0.000 A 
ATOM     14  C   UNL     1      -1.031  -1.542   0.000  0.00  0.00    +0.000 C 
BRANCH  10  16
ATOM     15  O   UNL     1      -4.604  -1.957   0.000  0.00  0.00    +0.000 OA
ATOM     16  S   UNL     1      -3.886  -1.542   0.000  0.00  0.00    +0.000 S 
ATOM     17  O   UNL     1      -4.300  -0.833   0.000  0.00  0.00    +0.000 OA
ATOM     18  O   UNL     1      -3.481  -2.261   0.000  0.00  0.00    +0.000 OA
ENDBRANCH  10  16
ENDBRANCH   4  13
BRANCH   3  19
ATOM     19  N   UNL     1       1.050   0.594   0.000  0.00  0.00    +0.000 NA
ATOM     20  N   UNL     1       1.639   0.014   0.000  0.00  0.00    +0.000 NA
BRANCH  20  21
ATOM     21  C   UNL     1       2.459   0.014   0.000  0.00  0.00    +0.000 A 
ATOM     22  C   UNL     1       2.827   0.750   0.000  0.00  0.00    +0.000 A 
ATOM     23  C   UNL     1       2.919  -0.677   0.000  0.00  0.00    +0.000 A 
ATOM     24  C   UNL     1       3.739  -0.622   0.000  0.00  0.00    +0.000 A 
ATOM     25  C   UNL     1       4.107   0.115   0.000  0.00  0.00    +0.000 A 
ATOM     26  C   UNL     1       3.656   0.806   0.000  0.00  0.00    +0.000 A 
BRANCH  26  28
ATOM     27  O   UNL     1       4.429   2.261   0.000  0.00  0.00    +0.000 OA
ATOM     28  S   UNL     1       4.024   1.542   0.000  0.00  0.00    +0.000 S 
ATOM     29  O   UNL     1       3.435   2.123   0.000  0.00  0.00    +0.000 OA
ATOM     30  O   UNL     1       4.604   0.962   0.000  0.00  0.00    +0.000 OA
ENDBRANCH  26  28
BRANCH  23  31
ATOM     31  C   UNL     1       2.551  -1.413   0.000  0.00  0.00    +0.000 C 
ATOM     32  O   UNL     1       3.002  -2.104   0.000  0.00  0.00    +0.000 OA
ATOM     33  O   UNL     1       1.722  -1.469   0.000  0.00  0.00    +0.000 OA
ENDBRANCH  23  31
ENDBRANCH  20  21
ENDBRANCH   3  19
TORSDOF 6
