REMARK  Name = 
REMARK  5 active torsions:
REMARK  status: ('A' for Active; 'I' for Inactive)
REMARK    1  A    between atoms: C_9  and  C_11
REMARK    2  A    between atoms: C_11  and  N_12
REMARK    3  A    between atoms: N_12  and  C_13
REMARK    4  A    between atoms: C_13  and  C_14
REMARK    5  A    between atoms: C_16  and  C_20
REMARK                            x       y       z     vdW  Elec       q    Type
REMARK                         _______ _______ _______ _____ _____    ______ ____
ROOT
ATOM      1  C   UNL     1       3.572  -2.888   0.000  0.00  0.00    +0.000 C 
ENDROOT
BRANCH   1   2
ATOM      2  C   UNL     1       3.572  -3.712   0.000  0.00  0.00    +0.000 A 
ATOM      3  C   UNL     1       4.287  -4.125   0.000  0.00  0.00    +0.000 A 
ATOM      4  C   UNL     1       4.287  -4.950   0.000  0.00  0.00    +0.000 A 
ATOM      5  C   UNL     1       3.572  -5.362   0.000  0.00  0.00    +0.000 A 
ATOM      6  N   UNL     1       2.858  -4.950   0.000  0.00  0.00    +0.000 NA
ATOM      7  C   UNL     1       2.858  -4.125   0.000  0.00  0.00    +0.000 A 
BRANCH   4   8
ATOM      8  C   UNL     1       5.001  -5.362   0.000  0.00  0.00    +0.000 A 
ATOM      9  C   UNL     1       5.716  -4.950   0.000  0.00  0.00    +0.000 A 
ATOM     10  C   UNL     1       6.430  -5.362   0.000  0.00  0.00    +0.000 A 
ATOM     11  C   UNL     1       6.430  -6.188   0.000  0.00  0.00    +0.000 A 
ATOM     12  C   UNL     1       5.716  -6.600   0.000  0.00  0.00    +0.000 A 
ATOM     13  C   UNL     1       5.001  -6.188   0.000  0.00  0.00    +0.000 A 
ATOM     14  F   UNL     1       7.145  -6.600   0.000  0.00  0.00    +0.000 F 
ENDBRANCH   4   8
ENDBRANCH   1   2
BRANCH   1  15
ATOM     15  N   UNL     1       2.858  -2.475   0.000  0.00  0.00    +0.000 NA
BRANCH  15  16
ATOM     16  C   UNL     1       2.858  -1.650   0.000  0.00  0.00    +0.000 C 
BRANCH  16  25
ATOM     17  C   UNL     1      -0.715  -0.412   0.000  0.00  0.00    +0.000 A 
ATOM     18  C   UNL     1      -0.715  -1.238   0.000  0.00  0.00    +0.000 A 
ATOM     19  C   UNL     1       0.000  -1.650   0.000  0.00  0.00    +0.000 A 
ATOM     20  C   UNL     1       0.715  -1.238   0.000  0.00  0.00    +0.000 A 
ATOM     21  C   UNL     1       0.715  -0.412   0.000  0.00  0.00    +0.000 A 
ATOM     22  C   UNL     1       0.000   0.000   0.000  0.00  0.00    +0.000 A 
ATOM     23  C   UNL     1       1.429   0.000   0.000  0.00  0.00    +0.000 C 
ATOM     24  C   UNL     1       2.143  -0.412   0.000  0.00  0.00    +0.000 C 
ATOM     25  C   UNL     1       2.143  -1.238   0.000  0.00  0.00    +0.000 C 
ATOM     26  O   UNL     1       1.429  -1.650   0.000  0.00  0.00    +0.000 OA
ENDBRANCH  16  25
ENDBRANCH  15  16
ENDBRANCH   1  15
TORSDOF 5
