REMARK  Name = 
REMARK  1 active torsions:
REMARK  status: ('A' for Active; 'I' for Inactive)
REMARK    1  A    between atoms: C_1  and  C_4
REMARK                            x       y       z     vdW  Elec       q    Type
REMARK                         _______ _______ _______ _____ _____    ______ ____
ROOT
ATOM      1  C   UNL     1       0.348  -0.004   0.000  0.00  0.00    +0.000 A 
ATOM      2  C   UNL     1      -0.360   0.419   0.000  0.00  0.00    +0.000 A 
ATOM      3  C   UNL     1       0.348  -0.822   0.000  0.00  0.00    +0.000 A 
ATOM      4  C   UNL     1      -1.075  -0.004   0.000  0.00  0.00    +0.000 A 
ATOM      5  C   UNL     1      -0.360   1.244   0.000  0.00  0.00    +0.000 C 
ATOM      6  C   UNL     1      -0.360  -1.244   0.000  0.00  0.00    +0.000 A 
ATOM      7  C   UNL     1      -1.075  -0.822   0.000  0.00  0.00    +0.000 A 
ATOM      8  O   UNL     1      -1.786  -1.224   0.000  0.00  0.00    +0.000 OA
ENDROOT
BRANCH   1   9
ATOM      9  C   UNL     1       1.066   0.399   0.000  0.00  0.00    +0.000 C 
ATOM     10  C   UNL     1       1.066   1.222   0.000  0.00  0.00    +0.000 C 
ATOM     11  C   UNL     1       1.786  -0.024   0.000  0.00  0.00    +0.000 C 
ENDBRANCH   1   9
TORSDOF 1
