REMARK  Name = 
REMARK  5 active torsions:
REMARK  status: ('A' for Active; 'I' for Inactive)
REMARK    1  A    between atoms: S_2  and  C_5
REMARK    2  A    between atoms: N_11  and  C_21
REMARK    3  A    between atoms: C_16  and  C_17
REMARK    4  A    between atoms: C_17  and  C_18
REMARK    5  A    between atoms: C_21  and  C_22
REMARK                            x       y       z     vdW  Elec       q    Type
REMARK                         _______ _______ _______ _____ _____    ______ ____
ROOT
ATOM      1  C   UNL     1       5.455   1.869   0.000  0.00  0.00    +0.000 A 
ATOM      2  C   UNL     1       6.019   1.267   0.000  0.00  0.00    +0.000 A 
ATOM      3  C   UNL     1       5.779   0.478   0.000  0.00  0.00    +0.000 A 
ATOM      4  C   UNL     1       4.976   0.290   0.000  0.00  0.00    +0.000 A 
ATOM      5  C   UNL     1       4.412   0.892   0.000  0.00  0.00    +0.000 A 
ATOM      6  C   UNL     1       4.651   1.682   0.000  0.00  0.00    +0.000 A 
ATOM      7  N   UNL     1       3.974   2.154   0.000  0.00  0.00    +0.000 N 
ATOM      8  C   UNL     1       3.317   1.656   0.000  0.00  0.00    +0.000 A 
ATOM      9  C   UNL     1       3.587   0.876   0.000  0.00  0.00    +0.000 A 
ATOM     10  C   UNL     1       2.929   0.378   0.000  0.00  0.00    +0.000 C 
ATOM     11  C   UNL     1       2.252   0.850   0.000  0.00  0.00    +0.000 C 
ATOM     12  C   UNL     1       2.492   1.639   0.000  0.00  0.00    +0.000 C 
ATOM     13  F   UNL     1       6.343  -0.124   0.000  0.00  0.00    +0.000 F 
ENDROOT
BRANCH   1  15
ATOM     14  C   UNL     1       4.905   2.898   0.000  0.00  0.00    +0.000 C 
ATOM     15  S   UNL     1       5.694   2.659   0.000  0.00  0.00    +0.000 S 
ATOM     16  O   UNL     1       6.484   2.420   0.000  0.00  0.00    +0.000 OA
ATOM     17  O   UNL     1       5.934   3.448   0.000  0.00  0.00    +0.000 OA
ENDBRANCH   1  15
BRANCH  12  18
ATOM     18  C   UNL     1       1.994   2.297   0.000  0.00  0.00    +0.000 C 
BRANCH  18  19
ATOM     19  C   UNL     1       1.175   2.195   0.000  0.00  0.00    +0.000 C 
ATOM     20  O   UNL     1       0.677   2.853   0.000  0.00  0.00    +0.000 OA
ATOM     21  O   UNL     1       0.855   1.435   0.000  0.00  0.00    +0.000 OA
ENDBRANCH  18  19
ENDBRANCH  12  18
BRANCH   7  22
ATOM     22  C   UNL     1       3.958   2.978   0.000  0.00  0.00    +0.000 C 
BRANCH  22  23
ATOM     23  C   UNL     1       3.236   3.377   0.000  0.00  0.00    +0.000 A 
ATOM     24  C   UNL     1       2.529   2.950   0.000  0.00  0.00    +0.000 A 
ATOM     25  C   UNL     1       1.807   3.349   0.000  0.00  0.00    +0.000 A 
ATOM     26  C   UNL     1       1.791   4.173   0.000  0.00  0.00    +0.000 A 
ATOM     27  C   UNL     1       2.497   4.600   0.000  0.00  0.00    +0.000 A 
ATOM     28  C   UNL     1       3.219   4.202   0.000  0.00  0.00    +0.000 A 
ATOM     29 CL   UNL     1       1.068   4.572   0.000  0.00  0.00    +0.000 Cl
ENDBRANCH  22  23
ENDBRANCH   7  22
TORSDOF 5
