REMARK  Name = 
REMARK  5 active torsions:
REMARK  status: ('A' for Active; 'I' for Inactive)
REMARK    1  A    between atoms: N_3  and  C_15
REMARK    2  A    between atoms: C_6  and  C_7
REMARK    3  A    between atoms: C_7  and  C_8
REMARK    4  A    between atoms: C_15  and  C_16
REMARK    5  A    between atoms: C_16  and  C_17
REMARK                            x       y       z     vdW  Elec       q    Type
REMARK                         _______ _______ _______ _____ _____    ______ ____
ROOT
ATOM      1  C   UNL     1       2.143  -2.888   0.000  0.00  0.00    +0.000 C 
ATOM      2  C   UNL     1       2.143  -3.712   0.000  0.00  0.00    +0.000 C 
ATOM      3  N   UNL     1       1.429  -4.125   0.000  0.00  0.00    +0.000 NA
ATOM      4  C   UNL     1       0.715  -3.712   0.000  0.00  0.00    +0.000 C 
ATOM      5  C   UNL     1       0.715  -2.888   0.000  0.00  0.00    +0.000 C 
ATOM      6  C   UNL     1       1.429  -2.475   0.000  0.00  0.00    +0.000 C 
ENDROOT
BRANCH   6   7
ATOM      7  C   UNL     1       1.429  -1.650   0.000  0.00  0.00    +0.000 C 
BRANCH   7   8
ATOM      8  C   UNL     1       0.715  -1.238   0.000  0.00  0.00    +0.000 A 
ATOM      9  C   UNL     1       0.000  -1.650   0.000  0.00  0.00    +0.000 A 
ATOM     10  C   UNL     1      -0.715  -1.238   0.000  0.00  0.00    +0.000 A 
ATOM     11  C   UNL     1      -0.715  -0.412   0.000  0.00  0.00    +0.000 A 
ATOM     12  C   UNL     1       0.000   0.000   0.000  0.00  0.00    +0.000 A 
ATOM     13  C   UNL     1       0.715  -0.412   0.000  0.00  0.00    +0.000 A 
ATOM     14  F   UNL     1      -1.429   0.000   0.000  0.00  0.00    +0.000 F 
ENDBRANCH   7   8
ENDBRANCH   6   7
BRANCH   3  15
ATOM     15  C   UNL     1       1.429  -4.950   0.000  0.00  0.00    +0.000 C 
BRANCH  15  16
ATOM     16  C   UNL     1       2.143  -5.362   0.000  0.00  0.00    +0.000 C 
ATOM     17  O   UNL     1       2.858  -4.950   0.000  0.00  0.00    +0.000 OA
BRANCH  16  18
ATOM     18  C   UNL     1       2.143  -6.188   0.000  0.00  0.00    +0.000 A 
ATOM     19  C   UNL     1       2.858  -6.600   0.000  0.00  0.00    +0.000 A 
ATOM     20  C   UNL     1       2.858  -7.425   0.000  0.00  0.00    +0.000 A 
ATOM     21  C   UNL     1       2.143  -7.838   0.000  0.00  0.00    +0.000 A 
ATOM     22  C   UNL     1       1.429  -7.425   0.000  0.00  0.00    +0.000 A 
ATOM     23  C   UNL     1       1.429  -6.600   0.000  0.00  0.00    +0.000 A 
ATOM     24 CL   UNL     1       2.143  -8.662   0.000  0.00  0.00    +0.000 Cl
ENDBRANCH  16  18
ENDBRANCH  15  16
ENDBRANCH   3  15
TORSDOF 5
