REMARK  Name = 
REMARK  1 active torsions:
REMARK  status: ('A' for Active; 'I' for Inactive)
REMARK    1  A    between atoms: C_11  and  N_14
REMARK                            x       y       z     vdW  Elec       q    Type
REMARK                         _______ _______ _______ _____ _____    ______ ____
ROOT
ATOM      1  C   UNL     1       2.143   4.537   0.000  0.00  0.00    +0.000 C 
ATOM      2  C   UNL     1       0.715   2.062   0.000  0.00  0.00    +0.000 C 
ATOM      3  C   UNL     1       2.858   2.475   0.000  0.00  0.00    +0.000 A 
ATOM      4  C   UNL     1       2.858   3.300   0.000  0.00  0.00    +0.000 A 
ATOM      5  C   UNL     1       2.143   2.062   0.000  0.00  0.00    +0.000 A 
ATOM      6  C   UNL     1       2.143   3.712   0.000  0.00  0.00    +0.000 A 
ATOM      7  C   UNL     1       1.429   2.475   0.000  0.00  0.00    +0.000 A 
ATOM      8  C   UNL     1       1.429   3.300   0.000  0.00  0.00    +0.000 A 
ENDROOT
BRANCH   8  14
ATOM      9  C   UNL     1       0.715   6.188   0.000  0.00  0.00    +0.000 C 
ATOM     10  C   UNL     1       0.000   5.775   0.000  0.00  0.00    +0.000 C 
ATOM     11  C   UNL     1       1.429   5.775   0.000  0.00  0.00    +0.000 C 
ATOM     12  C   UNL     1       0.715   4.537   0.000  0.00  0.00    +0.000 C 
ATOM     13  N   UNL     1       0.000   4.950   0.000  0.00  0.00    +0.000 NA
ATOM     14  N   UNL     1       0.715   3.712   0.000  0.00  0.00    +0.000 NA
ATOM     15  S   UNL     1       1.429   4.950   0.000  0.00  0.00    +0.000 S 
ENDBRANCH   8  14
TORSDOF 1
