REMARK  Name = 
REMARK  4 active torsions:
REMARK  status: ('A' for Active; 'I' for Inactive)
REMARK    1  A    between atoms: O_1  and  C_2
REMARK    2  A    between atoms: O_1  and  C_16
REMARK    3  A    between atoms: C_11  and  C_22
REMARK    4  A    between atoms: C_19  and  C_22
REMARK                            x       y       z     vdW  Elec       q    Type
REMARK                         _______ _______ _______ _____ _____    ______ ____
ROOT
ATOM      1  C   UNL     1       0.729   2.039   0.000  0.00  0.00    +0.000 A 
ATOM      2  C   UNL     1       0.729   1.214   0.000  0.00  0.00    +0.000 A 
ATOM      3  C   UNL     1       0.014   2.451   0.000  0.00  0.00    +0.000 A 
ATOM      4  C   UNL     1       0.014   0.801   0.000  0.00  0.00    +0.000 A 
ATOM      5  C   UNL     1      -0.700   2.039   0.000  0.00  0.00    +0.000 A 
ATOM      6  C   UNL     1      -0.700   1.214   0.000  0.00  0.00    +0.000 A 
ATOM      7  I   UNL     1      -1.415   2.451   0.000  0.00  0.00    +0.000 I 
ATOM      8  I   UNL     1       0.014  -0.023   0.000  0.00  0.00    +0.000 I 
ENDROOT
BRANCH   6   9
ATOM      9  O   UNL     1      -1.415   0.801   0.000  0.00  0.00    +0.000 OA
BRANCH   9  10
ATOM     10  C   UNL     1      -1.415  -0.023   0.000  0.00  0.00    +0.000 A 
ATOM     11  C   UNL     1      -2.143  -0.412   0.000  0.00  0.00    +0.000 A 
ATOM     12  C   UNL     1      -0.717  -0.442   0.000  0.00  0.00    +0.000 A 
ATOM     13  C   UNL     1      -2.143  -1.237   0.000  0.00  0.00    +0.000 A 
ATOM     14  C   UNL     1      -0.717  -1.267   0.000  0.00  0.00    +0.000 A 
ATOM     15  C   UNL     1      -1.445  -1.655   0.000  0.00  0.00    +0.000 A 
ATOM     16  O   UNL     1      -1.445  -2.480   0.000  0.00  0.00    +0.000 OA
ATOM     17  I   UNL     1      -2.841  -1.643   0.000  0.00  0.00    +0.000 I 
ATOM     18  I   UNL     1      -0.002  -1.655   0.000  0.00  0.00    +0.000 I 
ENDBRANCH   9  10
ENDBRANCH   6   9
BRANCH   1  19
ATOM     19  C   UNL     1       1.426   2.445   0.000  0.00  0.00    +0.000 C 
BRANCH  19  20
ATOM     20  C   UNL     1       2.143   2.074   0.000  0.00  0.00    +0.000 C 
ATOM     21  O   UNL     1       2.841   2.480   0.000  0.00  0.00    +0.000 OA
ATOM     22  O   UNL     1       2.163   1.261   0.000  0.00  0.00    +0.000 OA
ENDBRANCH  19  20
ENDBRANCH   1  19
TORSDOF 4
