REMARK  Name = 
REMARK  6 active torsions:
REMARK  status: ('A' for Active; 'I' for Inactive)
REMARK    1  A    between atoms: C_7  and  N_15
REMARK    2  A    between atoms: C_8  and  N_16
REMARK    3  A    between atoms: N_15  and  C_21
REMARK    4  A    between atoms: N_16  and  C_22
REMARK    5  A    between atoms: C_21  and  C_23
REMARK    6  A    between atoms: C_22  and  C_24
REMARK                            x       y       z     vdW  Elec       q    Type
REMARK                         _______ _______ _______ _____ _____    ______ ____
ROOT
ATOM      1  C   UNL     1       0.000  -0.412   0.000  0.00  0.00    +0.000 A 
ATOM      2  C   UNL     1       0.000   0.413   0.000  0.00  0.00    +0.000 A 
ATOM      3  C   UNL     1      -0.713  -0.825   0.000  0.00  0.00    +0.000 C 
ATOM      4  C   UNL     1      -0.713   0.825   0.000  0.00  0.00    +0.000 C 
ATOM      5  C   UNL     1      -1.429  -0.412   0.000  0.00  0.00    +0.000 A 
ATOM      6  C   UNL     1      -1.429   0.413   0.000  0.00  0.00    +0.000 A 
ATOM      7  C   UNL     1       0.717  -0.825   0.000  0.00  0.00    +0.000 A 
ATOM      8  C   UNL     1       0.717   0.825   0.000  0.00  0.00    +0.000 A 
ATOM      9  O   UNL     1      -0.713  -1.650   0.000  0.00  0.00    +0.000 OA
ATOM     10  O   UNL     1      -0.713   1.650   0.000  0.00  0.00    +0.000 OA
ATOM     11  N   UNL     1      -2.859  -0.412   0.000  0.00  0.00    +0.000 NA
ATOM     12  C   UNL     1       1.429   0.413   0.000  0.00  0.00    +0.000 A 
ATOM     13  C   UNL     1       1.429  -0.412   0.000  0.00  0.00    +0.000 A 
ATOM     14  C   UNL     1      -2.142  -0.825   0.000  0.00  0.00    +0.000 A 
ATOM     15  C   UNL     1      -2.142   0.825   0.000  0.00  0.00    +0.000 A 
ATOM     16  C   UNL     1      -2.859   0.413   0.000  0.00  0.00    +0.000 A 
ENDROOT
BRANCH   8  17
ATOM     17  N   UNL     1       0.717   1.650   0.000  0.00  0.00    +0.000 NA
BRANCH  17  18
ATOM     18  C   UNL     1       1.429   2.063   0.000  0.00  0.00    +0.000 C 
BRANCH  18  20
ATOM     19  N   UNL     1       2.859   2.063   0.000  0.00  0.00    +0.000 NA
ATOM     20  C   UNL     1       2.146   1.650   0.000  0.00  0.00    +0.000 C 
ENDBRANCH  18  20
ENDBRANCH  17  18
ENDBRANCH   8  17
BRANCH   7  21
ATOM     21  N   UNL     1       0.717  -1.650   0.000  0.00  0.00    +0.000 NA
BRANCH  21  22
ATOM     22  C   UNL     1       1.429  -2.063   0.000  0.00  0.00    +0.000 C 
BRANCH  22  24
ATOM     23  N   UNL     1       2.859  -2.063   0.000  0.00  0.00    +0.000 NA
ATOM     24  C   UNL     1       2.146  -1.650   0.000  0.00  0.00    +0.000 C 
ENDBRANCH  22  24
ENDBRANCH  21  22
ENDBRANCH   7  21
TORSDOF 6
