REMARK  Name = 
REMARK  4 active torsions:
REMARK  status: ('A' for Active; 'I' for Inactive)
REMARK    1  A    between atoms: C_1  and  N_6
REMARK    2  A    between atoms: N_2  and  C_10
REMARK    3  A    between atoms: C_5  and  C_8
REMARK    4  A    between atoms: N_9  and  C_12
REMARK                            x       y       z     vdW  Elec       q    Type
REMARK                         _______ _______ _______ _____ _____    ______ ____
ROOT
ATOM      1  C   UNL     1      -1.482   0.100   0.000  0.00  0.00    +0.000 A 
ATOM      2  N   UNL     1      -2.234  -0.237   0.000  0.00  0.00    +0.000 N 
ATOM      3  N   UNL     1      -2.783   0.378   0.000  0.00  0.00    +0.000 NA
ATOM      4  C   UNL     1      -1.569   0.923   0.000  0.00  0.00    +0.000 A 
ATOM      5  C   UNL     1      -2.371   1.089   0.000  0.00  0.00    +0.000 A 
ENDROOT
BRANCH   2   6
ATOM      6  C   UNL     1      -2.404  -1.035   0.000  0.00  0.00    +0.000 A 
ATOM      7  C   UNL     1      -3.190  -1.284   0.000  0.00  0.00    +0.000 A 
ATOM      8  C   UNL     1      -1.793  -1.583   0.000  0.00  0.00    +0.000 A 
ATOM      9  C   UNL     1      -1.968  -2.390   0.000  0.00  0.00    +0.000 A 
ATOM     10  C   UNL     1      -3.365  -2.095   0.000  0.00  0.00    +0.000 A 
ATOM     11  C   UNL     1      -2.753  -2.643   0.000  0.00  0.00    +0.000 A 
ENDBRANCH   2   6
BRANCH   1  12
ATOM     12  N   UNL     1      -0.771  -0.312   0.000  0.00  0.00    +0.000 NA
ATOM     13  C   UNL     1      -0.060   0.100   0.000  0.00  0.00    +0.000 C 
ATOM     14  N   UNL     1       0.650  -0.312   0.000  0.00  0.00    +0.000 NA
ATOM     15  O   UNL     1      -0.060   0.923   0.000  0.00  0.00    +0.000 OA
BRANCH  14  16
ATOM     16  C   UNL     1       1.369   0.100   0.000  0.00  0.00    +0.000 A 
ATOM     17  C   UNL     1       2.795   0.914   0.000  0.00  0.00    +0.000 A 
ATOM     18 CL   UNL     1       3.506   1.334   0.000  0.00  0.00    +0.000 Cl
ATOM     19  C   UNL     1       1.361   0.914   0.000  0.00  0.00    +0.000 A 
ATOM     20  C   UNL     1       2.080  -0.320   0.000  0.00  0.00    +0.000 A 
ATOM     21  C   UNL     1       2.791   0.091   0.000  0.00  0.00    +0.000 A 
ATOM     22  C   UNL     1       2.072   1.334   0.000  0.00  0.00    +0.000 A 
ENDBRANCH  14  16
ENDBRANCH   1  12
BRANCH   5  23
ATOM     23  C   UNL     1      -2.708   1.845   0.000  0.00  0.00    +0.000 C 
ATOM     24  C   UNL     1      -1.997   2.257   0.000  0.00  0.00    +0.000 C 
ATOM     25  C   UNL     1      -3.506   1.633   0.000  0.00  0.00    +0.000 C 
ATOM     26  C   UNL     1      -2.928   2.643   0.000  0.00  0.00    +0.000 C 
ENDBRANCH   5  23
TORSDOF 4
