REMARK  Name = 
REMARK  4 active torsions:
REMARK  status: ('A' for Active; 'I' for Inactive)
REMARK    1  A    between atoms: C_1  and  C_2
REMARK    2  A    between atoms: C_3  and  C_6
REMARK    3  A    between atoms: N_5  and  C_8
REMARK    4  A    between atoms: C_8  and  C_9
REMARK                            x       y       z     vdW  Elec       q    Type
REMARK                         _______ _______ _______ _____ _____    ______ ____
ROOT
ATOM      1  C   UNL     1      -0.335   0.011   0.000  0.00  0.00    +0.000 C 
ATOM      2  C   UNL     1      -1.074  -0.412   0.000  0.00  0.00    +0.000 C 
ENDROOT
BRANCH   2   3
ATOM      3  C   UNL     1      -1.813  -0.006   0.000  0.00  0.00    +0.000 A 
ATOM      4  C   UNL     1      -2.524  -0.412   0.000  0.00  0.00    +0.000 A 
ATOM      5  C   UNL     1      -1.813   0.819   0.000  0.00  0.00    +0.000 A 
ATOM      6  C   UNL     1      -2.518   1.238   0.000  0.00  0.00    +0.000 A 
ATOM      7  C   UNL     1      -3.240  -0.006   0.000  0.00  0.00    +0.000 A 
ATOM      8  C   UNL     1      -3.240   0.808   0.000  0.00  0.00    +0.000 A 
ENDBRANCH   2   3
BRANCH   1   9
ATOM      9  C   UNL     1       0.369  -0.401   0.000  0.00  0.00    +0.000 C 
ATOM     10  O   UNL     1       0.369  -1.238   0.000  0.00  0.00    +0.000 OA
ATOM     11  N   UNL     1       1.091   0.011   0.000  0.00  0.00    +0.000 NA
BRANCH  11  12
ATOM     12  C   UNL     1       1.813  -0.401   0.000  0.00  0.00    +0.000 C 
BRANCH  12  14
ATOM     13  O   UNL     1       3.240  -0.401   0.000  0.00  0.00    +0.000 OA
ATOM     14  C   UNL     1       2.529   0.011   0.000  0.00  0.00    +0.000 C 
ENDBRANCH  12  14
ENDBRANCH  11  12
ENDBRANCH   1   9
TORSDOF 4
