REMARK  Name = 
REMARK  10 active torsions:
REMARK  status: ('A' for Active; 'I' for Inactive)
REMARK    1  A    between atoms: C_2  and  O_3
REMARK    2  A    between atoms: O_3  and  C_4
REMARK    3  A    between atoms: C_4  and  C_5
REMARK    4  A    between atoms: C_5  and  N_6
REMARK    5  A    between atoms: N_6  and  C_7
REMARK    6  A    between atoms: C_7  and  C_8
REMARK    7  A    between atoms: C_11  and  O_14
REMARK    8  A    between atoms: O_14  and  C_15
REMARK    9  A    between atoms: C_18  and  N_21
REMARK   10  A    between atoms: C_24  and  C_26
REMARK                            x       y       z     vdW  Elec       q    Type
REMARK                         _______ _______ _______ _____ _____    ______ ____
ROOT
ATOM      1  C   UNL     1       2.335  -5.583   0.000  0.00  0.00    +0.000 A 
ATOM      2  C   UNL     1       2.065  -6.363   0.000  0.00  0.00    +0.000 A 
ATOM      3  C   UNL     1       1.255  -6.519   0.000  0.00  0.00    +0.000 A 
ATOM      4  C   UNL     1       0.715  -5.895   0.000  0.00  0.00    +0.000 A 
ATOM      5  C   UNL     1       0.985  -5.116   0.000  0.00  0.00    +0.000 A 
ATOM      6  C   UNL     1       1.795  -4.960   0.000  0.00  0.00    +0.000 A 
ENDROOT
BRANCH   4   7
ATOM      7  O   UNL     1      -0.096  -6.051   0.000  0.00  0.00    +0.000 OA
BRANCH   7   8
ATOM      8  C   UNL     1      -0.366  -6.831   0.000  0.00  0.00    +0.000 A 
ATOM      9  C   UNL     1       0.174  -7.454   0.000  0.00  0.00    +0.000 A 
ATOM     10  C   UNL     1      -0.096  -8.234   0.000  0.00  0.00    +0.000 A 
ATOM     11  C   UNL     1      -0.906  -8.390   0.000  0.00  0.00    +0.000 A 
ATOM     12  C   UNL     1      -1.446  -7.766   0.000  0.00  0.00    +0.000 A 
ATOM     13  C   UNL     1      -1.176  -6.987   0.000  0.00  0.00    +0.000 A 
BRANCH  11  14
ATOM     14  N   UNL     1      -1.176  -9.169   0.000  0.00  0.00    +0.000 N 
ATOM     15  O   UNL     1      -0.636  -9.793   0.000  0.00  0.00    +0.000 OA
ATOM     16  O   UNL     1      -1.986  -9.325   0.000  0.00  0.00    +0.000 OA
ENDBRANCH  11  14
ENDBRANCH   7   8
ENDBRANCH   4   7
BRANCH   1  17
ATOM     17  C   UNL     1       3.145  -5.428   0.000  0.00  0.00    +0.000 C 
BRANCH  17  18
ATOM     18  N   UNL     1       3.415  -4.648   0.000  0.00  0.00    +0.000 N 
ATOM     19  C   UNL     1       4.225  -4.492   0.000  0.00  0.00    +0.000 C 
ATOM     20  O   UNL     1       4.765  -5.116   0.000  0.00  0.00    +0.000 OA
BRANCH  19  21
ATOM     21  C   UNL     1       4.495  -3.712   0.000  0.00  0.00    +0.000 C 
ATOM     22 CL   UNL     1       3.955  -3.089   0.000  0.00  0.00    +0.000 Cl
ATOM     23 CL   UNL     1       5.305  -3.557   0.000  0.00  0.00    +0.000 Cl
ENDBRANCH  19  21
BRANCH  18  24
ATOM     24  C   UNL     1       2.875  -4.024   0.000  0.00  0.00    +0.000 C 
BRANCH  24  25
ATOM     25  C   UNL     1       2.065  -4.180   0.000  0.00  0.00    +0.000 C 
BRANCH  25  26
ATOM     26  O   UNL     1       1.525  -3.557   0.000  0.00  0.00    +0.000 OA
BRANCH  26  28
ATOM     27  C   UNL     1       0.174  -3.089   0.000  0.00  0.00    +0.000 C 
ATOM     28  C   UNL     1       0.715  -3.712   0.000  0.00  0.00    +0.000 C 
ENDBRANCH  26  28
ENDBRANCH  25  26
ENDBRANCH  24  25
ENDBRANCH  18  24
ENDBRANCH  17  18
ENDBRANCH   1  17
TORSDOF 10
