REMARK  Name = 
REMARK  7 active torsions:
REMARK  status: ('A' for Active; 'I' for Inactive)
REMARK    1  A    between atoms: C_4  and  N_14
REMARK    2  A    between atoms: S_5  and  C_6
REMARK    3  A    between atoms: S_5  and  C_19
REMARK    4  A    between atoms: C_6  and  C_7
REMARK    5  A    between atoms: C_7  and  C_9
REMARK    6  A    between atoms: N_10  and  S_13
REMARK    7  A    between atoms: C_18  and  C_19
REMARK                            x       y       z     vdW  Elec       q    Type
REMARK                         _______ _______ _______ _____ _____    ______ ____
ROOT
ATOM      1  S   UNL     1       0.942  -1.192   0.000  0.00  0.00    +0.000 S 
ENDROOT
BRANCH   1   2
ATOM      2  C   UNL     1       1.656  -0.780   0.000  0.00  0.00    +0.000 C 
BRANCH   2   3
ATOM      3  C   UNL     1       2.371  -1.192   0.000  0.00  0.00    +0.000 C 
BRANCH   3   5
ATOM      4  N   UNL     1       3.800  -1.192   0.000  0.00  0.00    +0.000 NA
ATOM      5  C   UNL     1       3.085  -0.780   0.000  0.00  0.00    +0.000 C 
ATOM      6  N   UNL     1       3.085   0.045   0.000  0.00  0.00    +0.000 NA
BRANCH   6   9
ATOM      7  O   UNL     1       3.910   0.870   0.000  0.00  0.00    +0.000 OA
ATOM      8  O   UNL     1       2.260   0.870   0.000  0.00  0.00    +0.000 OA
ATOM      9  S   UNL     1       3.085   0.870   0.000  0.00  0.00    +0.000 S 
ATOM     10  N   UNL     1       3.085   1.695   0.000  0.00  0.00    +0.000 NA
ENDBRANCH   6   9
ENDBRANCH   3   5
ENDBRANCH   2   3
ENDBRANCH   1   2
BRANCH   1  11
ATOM     11  C   UNL     1       0.029  -0.697   0.000  0.00  0.00    +0.000 C 
BRANCH  11  16
ATOM     12  C   UNL     1      -1.023  -1.695   0.000  0.00  0.00    +0.000 A 
ATOM     13  N   UNL     1      -1.436  -0.426   0.000  0.00  0.00    +0.000 NA
ATOM     14  S   UNL     1      -1.848  -1.695   0.000  0.00  0.00    +0.000 S 
ATOM     15  C   UNL     1      -2.103  -0.911   0.000  0.00  0.00    +0.000 A 
ATOM     16  C   UNL     1      -0.768  -0.911   0.000  0.00  0.00    +0.000 A 
BRANCH  15  17
ATOM     17  N   UNL     1      -2.900  -0.697   0.000  0.00  0.00    +0.000 NA
ATOM     18  N   UNL     1      -2.530   0.683   0.000  0.00  0.00    +0.000 NA
ATOM     19  C   UNL     1      -3.113   0.100   0.000  0.00  0.00    +0.000 C 
ATOM     20  N   UNL     1      -3.910   0.313   0.000  0.00  0.00    +0.000 NA
ENDBRANCH  15  17
ENDBRANCH  11  16
ENDBRANCH   1  11
TORSDOF 7
