REMARK  Name = 
REMARK  22 active torsions:
REMARK  status: ('A' for Active; 'I' for Inactive)
REMARK    1  A    between atoms: CG1_2  and  CB_3
REMARK    2  A    between atoms: CB_3  and  CA_5
REMARK    3  A    between atoms: CA_5  and  C_6
REMARK    4  A    between atoms: CA_5  and  N_25
REMARK    5  A    between atoms: CA_12  and  C_13
REMARK    6  A    between atoms: N_15  and  CA_16
REMARK    7  A    between atoms: CA_16  and  CB_17
REMARK    8  A    between atoms: CA_16  and  C_22
REMARK    9  A    between atoms: CB_17  and  CG_18
REMARK   10  A    between atoms: CG_18  and  CD_19
REMARK   11  A    between atoms: C_26  and  CA_28
REMARK   12  A    between atoms: CA_28  and  CB_29
REMARK   13  A    between atoms: CA_28  and  N_31
REMARK   14  A    between atoms: C_32  and  CA_34
REMARK   15  A    between atoms: CA_34  and  CB_35
REMARK   16  A    between atoms: CA_34  and  N_38
REMARK   17  A    between atoms: C_39  and  CA_41
REMARK   18  A    between atoms: C_46  and  CA_48
REMARK   19  A    between atoms: CA_48  and  N_50
REMARK   20  A    between atoms: C_51  and  CA_53
REMARK   21  A    between atoms: CA_53  and  CB_54
REMARK   22  A    between atoms: CB_54  and  CG_55
REMARK                            x       y       z     vdW  Elec       q    Type
REMARK                         _______ _______ _______ _____ _____    ______ ____
ROOT
ATOM      1  CA  SER A   5       2.994  -4.930   0.000  0.00  0.00    +0.000 C 
ENDROOT
BRANCH   1   2
ATOM      2  N   SER A   5       3.588  -5.502   0.000  0.00  0.00    +0.000 NA
ATOM      3  C   VAL A   4       4.381  -5.274   0.000  0.00  0.00    +0.000 C 
ATOM      4  O   VAL A   4       4.579  -4.473   0.000  0.00  0.00    +0.000 OA
BRANCH   3   5
ATOM      5  CA  VAL A   4       4.975  -5.846   0.000  0.00  0.00    +0.000 C 
BRANCH   5   6
ATOM      6  N   VAL A   4       5.768  -5.617   0.000  0.00  0.00    +0.000 NA
ATOM      7  C   PRO A   3       6.362  -6.189   0.000  0.00  0.00    +0.000 C 
ATOM      8  O   PRO A   3       6.164  -6.990   0.000  0.00  0.00    +0.000 OA
BRANCH   7   9
ATOM      9  CA  PRO A   3       7.155  -5.960   0.000  0.00  0.00    +0.000 C 
ATOM     10  CB  PRO A   3       7.436  -5.184   0.000  0.00  0.00    +0.000 C 
ATOM     11  CG  PRO A   3       8.260  -5.212   0.000  0.00  0.00    +0.000 C 
ATOM     12  CD  PRO A   3       8.489  -6.004   0.000  0.00  0.00    +0.000 C 
ATOM     13  N   PRO A   3       7.806  -6.467   0.000  0.00  0.00    +0.000 N 
ATOM     14  C   ALA A   2       7.779  -7.291   0.000  0.00  0.00    +0.000 C 
ATOM     15  O   ALA A   2       7.051  -7.680   0.000  0.00  0.00    +0.000 OA
BRANCH  14  16
ATOM     16  CA  ALA A   2       8.479  -7.727   0.000  0.00  0.00    +0.000 C 
ATOM     17  CB  ALA A   2       9.207  -7.339   0.000  0.00  0.00    +0.000 C 
BRANCH  16  18
ATOM     18  N   ALA A   2       8.452  -8.552   0.000  0.00  0.00    +0.000 NA
ATOM     19  C   ASN A   1       9.152  -8.988   0.000  0.00  0.00    +0.000 C 
ATOM     20  O   ASN A   1       9.880  -8.599   0.000  0.00  0.00    +0.000 OA
BRANCH  19  21
ATOM     21  CA  ASN A   1       9.125  -9.812   0.000  0.00  0.00    +0.000 C 
ATOM     22  N   ASN A   1       8.397 -10.201   0.000  0.00  0.00    +0.000 NA
BRANCH  21  23
ATOM     23  CB  ASN A   1       9.825 -10.248   0.000  0.00  0.00    +0.000 C 
BRANCH  23  24
ATOM     24  CG  ASN A   1       9.798 -11.073   0.000  0.00  0.00    +0.000 C 
ATOM     25  OD1 ASN A   1      10.498 -11.509   0.000  0.00  0.00    +0.000 OA
ATOM     26  ND2 ASN A   1       9.070 -11.461   0.000  0.00  0.00    +0.000 NA
ENDBRANCH  23  24
ENDBRANCH  21  23
ENDBRANCH  19  21
ENDBRANCH  16  18
ENDBRANCH  14  16
ENDBRANCH   7   9
ENDBRANCH   5   6
BRANCH   5  27
ATOM     27  CB  VAL A   4       4.777  -6.646   0.000  0.00  0.00    +0.000 C 
ATOM     28  CG1 VAL A   4       5.372  -7.218   0.000  0.00  0.00    +0.000 C 
ATOM     29  CG2 VAL A   4       3.984  -6.875   0.000  0.00  0.00    +0.000 C 
ENDBRANCH   5  27
ENDBRANCH   3   5
ENDBRANCH   1   2
BRANCH   1  31
ATOM     30  N   ILE A   6       1.607  -4.587   0.000  0.00  0.00    +0.000 NA
ATOM     31  C   SER A   5       2.201  -5.159   0.000  0.00  0.00    +0.000 C 
ATOM     32  O   SER A   5       2.003  -5.960   0.000  0.00  0.00    +0.000 OA
BRANCH  30  33
ATOM     33  CA  ILE A   6       0.814  -4.816   0.000  0.00  0.00    +0.000 C 
BRANCH  33  34
ATOM     34  C   ILE A   6       0.219  -4.244   0.000  0.00  0.00    +0.000 C 
ATOM     35  O   ILE A   6       0.418  -3.443   0.000  0.00  0.00    +0.000 OA
ATOM     36  N   PRO A   7      -0.573  -4.473   0.000  0.00  0.00    +0.000 N 
ATOM     37  CD  PRO A   7      -0.854  -5.248   0.000  0.00  0.00    +0.000 C 
ATOM     38  CG  PRO A   7      -1.679  -5.221   0.000  0.00  0.00    +0.000 C 
ATOM     39  CB  PRO A   7      -1.907  -4.428   0.000  0.00  0.00    +0.000 C 
ATOM     40  CA  PRO A   7      -1.224  -3.966   0.000  0.00  0.00    +0.000 C 
BRANCH  40  41
ATOM     41  C   PRO A   7      -1.197  -3.141   0.000  0.00  0.00    +0.000 C 
ATOM     42  O   PRO A   7      -0.469  -2.753   0.000  0.00  0.00    +0.000 OA
ATOM     43  N   GLN A   8      -1.897  -2.705   0.000  0.00  0.00    +0.000 NA
BRANCH  43  44
ATOM     44  CA  GLN A   8      -1.870  -1.881   0.000  0.00  0.00    +0.000 C 
BRANCH  44  45
ATOM     45  C   GLN A   8      -1.142  -1.492   0.000  0.00  0.00    +0.000 C 
ATOM     46  O   GLN A   8      -1.115  -0.668   0.000  0.00  0.00    +0.000 OA
ATOM     47  OXT GLN A   8      -0.442  -1.928   0.000  0.00  0.00    +0.000 OA
ENDBRANCH  44  45
BRANCH  44  48
ATOM     48  CB  GLN A   8      -2.570  -1.445   0.000  0.00  0.00    +0.000 C 
BRANCH  48  49
ATOM     49  CG  GLN A   8      -2.543  -0.621   0.000  0.00  0.00    +0.000 C 
BRANCH  49  50
ATOM     50  CD  GLN A   8      -3.244  -0.184   0.000  0.00  0.00    +0.000 C 
ATOM     51  OE1 GLN A   8      -3.216   0.640   0.000  0.00  0.00    +0.000 OA
ATOM     52  NE2 GLN A   8      -3.971  -0.573   0.000  0.00  0.00    +0.000 NA
ENDBRANCH  49  50
ENDBRANCH  48  49
ENDBRANCH  44  48
ENDBRANCH  43  44
ENDBRANCH  40  41
ENDBRANCH  33  34
BRANCH  33  53
ATOM     53  CB  ILE A   6       0.616  -5.617   0.000  0.00  0.00    +0.000 C 
ATOM     54  CG2 ILE A   6      -0.177  -5.846   0.000  0.00  0.00    +0.000 C 
BRANCH  53  56
ATOM     55  CD1 ILE A   6       1.012  -6.990   0.000  0.00  0.00    +0.000 C 
ATOM     56  CG1 ILE A   6       1.210  -6.189   0.000  0.00  0.00    +0.000 C 
ENDBRANCH  53  56
ENDBRANCH  33  53
ENDBRANCH  30  33
ENDBRANCH   1  31
BRANCH   1  57
ATOM     57  CB  SER A   5       3.192  -4.130   0.000  0.00  0.00    +0.000 C 
ATOM     58  OG  SER A   5       3.984  -3.901   0.000  0.00  0.00    +0.000 OA
ENDBRANCH   1  57
TORSDOF 22
