REMARK  Name = 
REMARK  5 active torsions:
REMARK  status: ('A' for Active; 'I' for Inactive)
REMARK    1  A    between atoms: C_1  and  C_2
REMARK    2  A    between atoms: C_1  and  C_5
REMARK    3  A    between atoms: C_2  and  C_3
REMARK    4  A    between atoms: C_5  and  S_6
REMARK    5  A    between atoms: S_6  and  C_7
REMARK                            x       y       z     vdW  Elec       q    Type
REMARK                         _______ _______ _______ _____ _____    ______ ____
ROOT
ATOM      1  C   UNL     1       3.904   1.429   0.000  0.00  0.00    +0.000 C 
ENDROOT
BRANCH   1   2
ATOM      2  C   UNL     1       3.189   1.841   0.000  0.00  0.00    +0.000 C 
BRANCH   2   3
ATOM      3  C   UNL     1       2.475   1.429   0.000  0.00  0.00    +0.000 C 
BRANCH   3   4
ATOM      4  C   UNL     1       1.760   1.841   0.000  0.00  0.00    +0.000 C 
ATOM      5  N   UNL     1       1.046   2.254   0.000  0.00  0.00    +0.000 NA
ENDBRANCH   3   4
ENDBRANCH   2   3
ENDBRANCH   1   2
BRANCH   1   6
ATOM      6  S   UNL     1       4.618   1.841   0.000  0.00  0.00    +0.000 S 
BRANCH   6   7
ATOM      7  C   UNL     1       5.333   1.429   0.000  0.00  0.00    +0.000 C 
ATOM      8  N   UNL     1       6.047   1.841   0.000  0.00  0.00    +0.000 NA
ATOM      9  N   UNL     1       5.333   0.604   0.000  0.00  0.00    +0.000 NA
ENDBRANCH   6   7
ENDBRANCH   1   6
TORSDOF 5
