REMARK  Name = 
REMARK  10 active torsions:
REMARK  status: ('A' for Active; 'I' for Inactive)
REMARK    1  A    between atoms: C_12  and  O_19
REMARK    2  A    between atoms: C_16  and  C_33
REMARK    3  A    between atoms: O_19  and  C_21
REMARK    4  A    between atoms: C_21  and  C_22
REMARK    5  A    between atoms: C_22  and  S_24
REMARK    6  A    between atoms: S_24  and  C_26
REMARK    7  A    between atoms: C_26  and  C_27
REMARK    8  A    between atoms: C_27  and  N_28
REMARK    9  A    between atoms: N_28  and  C_29
REMARK   10  A    between atoms: N_28  and  C_31
REMARK                            x       y       z     vdW  Elec       q    Type
REMARK                         _______ _______ _______ _____ _____    ______ ____
ROOT
ATOM      1  C   UNL     1       2.062   0.677   0.000  0.00  0.00    +0.000 C 
ATOM      2  C   UNL     1       1.481   0.093   0.000  0.00  0.00    +0.000 C 
ATOM      3  C   UNL     1       2.062   1.505   0.000  0.00  0.00    +0.000 C 
ATOM      4  C   UNL     1       2.800   0.299   0.000  0.00  0.00    +0.000 C 
ATOM      5  C   UNL     1       2.058  -0.144   0.000  0.00  0.00    +0.000 C 
ATOM      6  C   UNL     1       0.653   0.093   0.000  0.00  0.00    +0.000 C 
ATOM      7  C   UNL     1       1.852  -0.645   0.000  0.00  0.00    +0.000 C 
ATOM      8  C   UNL     1       1.481   2.089   0.000  0.00  0.00    +0.000 C 
ATOM      9  C   UNL     1       2.824   1.821   0.000  0.00  0.00    +0.000 C 
ATOM     10  C   UNL     1       2.670  -0.518   0.000  0.00  0.00    +0.000 C 
ATOM     11  C   UNL     1       1.274  -0.164   0.000  0.00  0.00    +0.000 C 
ATOM     12  C   UNL     1       0.069   0.681   0.000  0.00  0.00    +0.000 C 
ATOM     13  C   UNL     1       0.650  -0.731   0.000  0.00  0.00    +0.000 C 
ATOM     14  C   UNL     1       0.153  -0.449   0.000  0.00  0.00    +0.000 C 
ATOM     15  O   UNL     1       1.478  -1.381   0.000  0.00  0.00    +0.000 OA
ATOM     16  C   UNL     1       0.653   2.089   0.000  0.00  0.00    +0.000 C 
ATOM     17  O   UNL     1       1.794   2.852   0.000  0.00  0.00    +0.000 OA
ATOM     18  C   UNL     1       0.069   1.505   0.000  0.00  0.00    +0.000 C 
ATOM     19  C   UNL     1      -0.052  -0.974   0.000  0.00  0.00    +0.000 C 
ATOM     20  C   UNL     1       0.872   2.888   0.000  0.00  0.00    +0.000 C 
ENDROOT
BRANCH  16  21
ATOM     21  C   UNL     1      -0.061   2.502   0.000  0.00  0.00    +0.000 C 
ATOM     22  C   UNL     1      -0.061   3.327   0.000  0.00  0.00    +0.000 C 
ENDBRANCH  16  21
BRANCH  12  23
ATOM     23  O   UNL     1      -0.697   0.361   0.000  0.00  0.00    +0.000 OA
BRANCH  23  24
ATOM     24  C   UNL     1      -1.412   0.777   0.000  0.00  0.00    +0.000 C 
ATOM     25  O   UNL     1      -1.415   1.602   0.000  0.00  0.00    +0.000 OA
BRANCH  24  26
ATOM     26  C   UNL     1      -2.126   0.361   0.000  0.00  0.00    +0.000 C 
BRANCH  26  27
ATOM     27  S   UNL     1      -2.118  -0.465   0.000  0.00  0.00    +0.000 S 
BRANCH  27  28
ATOM     28  C   UNL     1      -2.824  -0.880   0.000  0.00  0.00    +0.000 C 
BRANCH  28  29
ATOM     29  C   UNL     1      -2.818  -1.701   0.000  0.00  0.00    +0.000 C 
BRANCH  29  30
ATOM     30  N   UNL     1      -2.104  -2.104   0.000  0.00  0.00    +0.000 NA
BRANCH  30  31
ATOM     31  C   UNL     1      -1.395  -1.686   0.000  0.00  0.00    +0.000 C 
ATOM     32  C   UNL     1      -0.680  -2.091   0.000  0.00  0.00    +0.000 C 
ENDBRANCH  30  31
BRANCH  30  33
ATOM     33  C   UNL     1      -2.098  -2.924   0.000  0.00  0.00    +0.000 C 
ATOM     34  C   UNL     1      -1.383  -3.327   0.000  0.00  0.00    +0.000 C 
ENDBRANCH  30  33
ENDBRANCH  29  30
ENDBRANCH  28  29
ENDBRANCH  27  28
ENDBRANCH  26  27
ENDBRANCH  24  26
ENDBRANCH  23  24
ENDBRANCH  12  23
TORSDOF 10
