REMARK  Name = 
REMARK  1 active torsions:
REMARK  status: ('A' for Active; 'I' for Inactive)
REMARK    1  A    between atoms: C_10  and  N_14
REMARK                            x       y       z     vdW  Elec       q    Type
REMARK                         _______ _______ _______ _____ _____    ______ ____
ROOT
ATOM      1  C   UNL     1       3.352   1.110   0.000  0.00  0.00    +0.000 A 
ATOM      2  C   UNL     1       3.352   1.935   0.000  0.00  0.00    +0.000 A 
ATOM      3  C   UNL     1       2.638   0.698   0.000  0.00  0.00    +0.000 A 
ATOM      4  C   UNL     1       2.638   2.348   0.000  0.00  0.00    +0.000 A 
ATOM      5  C   UNL     1       1.923   1.110   0.000  0.00  0.00    +0.000 A 
ATOM      6  C   UNL     1       1.923   1.935   0.000  0.00  0.00    +0.000 A 
ATOM      7  C   UNL     1       1.139   0.856   0.000  0.00  0.00    +0.000 A 
ATOM      8  N   UNL     1       0.654   1.523   0.000  0.00  0.00    +0.000 N 
ATOM      9  O   UNL     1       0.884   0.071   0.000  0.00  0.00    +0.000 OA
ATOM     10 SE   UNL     1       1.139   2.190   0.000  0.00  0.00    +0.000 Se
ENDROOT
BRANCH   8  16
ATOM     11  C   UNL     1      -1.821   1.523   0.000  0.00  0.00    +0.000 A 
ATOM     12  C   UNL     1      -1.409   0.808   0.000  0.00  0.00    +0.000 A 
ATOM     13  C   UNL     1      -1.409   2.237   0.000  0.00  0.00    +0.000 A 
ATOM     14  C   UNL     1      -0.584   0.808   0.000  0.00  0.00    +0.000 A 
ATOM     15  C   UNL     1      -0.584   2.237   0.000  0.00  0.00    +0.000 A 
ATOM     16  C   UNL     1      -0.171   1.523   0.000  0.00  0.00    +0.000 A 
ENDBRANCH   8  16
TORSDOF 1
