REMARK  Name = 
REMARK  3 active torsions:
REMARK  status: ('A' for Active; 'I' for Inactive)
REMARK    1  A    between atoms: C_5  and  C_8
REMARK    2  A    between atoms: C_8  and  C_9
REMARK    3  A    between atoms: C_9  and  C_10
REMARK                            x       y       z     vdW  Elec       q    Type
REMARK                         _______ _______ _______ _____ _____    ______ ____
ROOT
ATOM      1  C   UNK     1      -1.790   0.000   0.000  0.00  0.00    +0.000 A 
ATOM      2  C   UNK     1      -1.790  -0.825   0.000  0.00  0.00    +0.000 A 
ATOM      3  C   UNK     1      -1.047  -1.237   0.000  0.00  0.00    +0.000 A 
ATOM      4  C   UNK     1      -0.346  -0.825   0.000  0.00  0.00    +0.000 A 
ATOM      5  C   UNK     1      -0.346   0.000   0.000  0.00  0.00    +0.000 A 
ATOM      6  C   UNK     1      -1.047   0.412   0.000  0.00  0.00    +0.000 A 
ATOM      7  O   UNK     1      -2.491  -1.237   0.000  0.00  0.00    +0.000 OA
ATOM      8  O   UNK     1      -2.501   0.418   0.000  0.00  0.00    +0.000 OA
ENDROOT
BRANCH   5   9
ATOM      9  C   UNK     1       0.355   0.412   0.000  0.00  0.00    +0.000 C 
ATOM     10  O   UNK     1       0.355   1.237   0.000  0.00  0.00    +0.000 OA
BRANCH   9  11
ATOM     11  C   UNK     1       1.057   0.000   0.000  0.00  0.00    +0.000 C 
ATOM     12  N   UNK     1       1.057  -0.825   0.000  0.00  0.00    +0.000 NA
BRANCH  11  13
ATOM     13  C   UNK     1       1.799   0.412   0.000  0.00  0.00    +0.000 C 
ATOM     14  O   UNK     1       2.500   0.000   0.000  0.00  0.00    +0.000 OA
ATOM     15  O   UNK     1       1.799   1.237   0.000  0.00  0.00    +0.000 OA
ENDBRANCH  11  13
ENDBRANCH   9  11
ENDBRANCH   5   9
TORSDOF 3
