REMARK  Name = 
REMARK  2 active torsions:
REMARK  status: ('A' for Active; 'I' for Inactive)
REMARK    1  A    between atoms: C_24  and  C_25
REMARK    2  A    between atoms: C_25  and  C_26
REMARK                            x       y       z     vdW  Elec       q    Type
REMARK                         _______ _______ _______ _____ _____    ______ ____
ROOT
ATOM      1  C   UNL     1      20.961 -28.739   0.000  0.00  0.00    +0.000 C 
ATOM      2  C   UNL     1      20.961 -29.564   0.000  0.00  0.00    +0.000 C 
ATOM      3  C   UNL     1      21.663 -29.976   0.000  0.00  0.00    +0.000 C 
ATOM      4  C   UNL     1      22.364 -29.564   0.000  0.00  0.00    +0.000 C 
ATOM      5  C   UNL     1      22.364 -28.739   0.000  0.00  0.00    +0.000 C 
ATOM      6  C   UNL     1      21.663 -28.367   0.000  0.00  0.00    +0.000 C 
ATOM      7  C   UNL     1      23.065 -29.976   0.000  0.00  0.00    +0.000 C 
ATOM      8  C   UNL     1      23.808 -29.564   0.000  0.00  0.00    +0.000 C 
ATOM      9  C   UNL     1      23.808 -28.739   0.000  0.00  0.00    +0.000 C 
ATOM     10  C   UNL     1      23.065 -28.367   0.000  0.00  0.00    +0.000 C 
ATOM     11  C   UNL     1      24.509 -28.367   0.000  0.00  0.00    +0.000 C 
ATOM     12  C   UNL     1      24.509 -27.542   0.000  0.00  0.00    +0.000 C 
ATOM     13  C   UNL     1      23.808 -27.130   0.000  0.00  0.00    +0.000 C 
ATOM     14  C   UNL     1      23.065 -27.542   0.000  0.00  0.00    +0.000 C 
ATOM     15  C   UNL     1      22.364 -27.955   0.000  0.00  0.00    +0.000 C 
ATOM     16  O   UNL     1      22.364 -27.130   0.000  0.00  0.00    +0.000 OA
ATOM     17  C   UNL     1      24.509 -26.717   0.000  0.00  0.00    +0.000 C 
ATOM     18  F   UNL     1      23.065 -29.151   0.000  0.00  0.00    +0.000 F 
ATOM     19  O   UNL     1      20.260 -29.976   0.000  0.00  0.00    +0.000 OA
ATOM     20  C   UNL     1      25.938 -28.367   0.000  0.00  0.00    +0.000 C 
ATOM     21  C   UNL     1      25.938 -27.542   0.000  0.00  0.00    +0.000 C 
ATOM     22  C   UNL     1      25.223 -27.130   0.000  0.00  0.00    +0.000 C 
ATOM     23  O   UNL     1      25.928 -26.723   0.000  0.00  0.00    +0.000 OA
ATOM     24  O   UNL     1      26.719 -27.237   0.000  0.00  0.00    +0.000 OA
ATOM     25  C   UNL     1      26.753 -26.723   0.000  0.00  0.00    +0.000 C 
ATOM     26  C   UNL     1      26.753 -25.898   0.000  0.00  0.00    +0.000 C 
ATOM     27  C   UNL     1      27.578 -26.723   0.000  0.00  0.00    +0.000 C 
ENDROOT
BRANCH  22  28
ATOM     28  C   UNL     1      25.223 -26.223   0.000  0.00  0.00    +0.000 C 
ATOM     29  O   UNL     1      25.928 -25.816   0.000  0.00  0.00    +0.000 OA
BRANCH  28  30
ATOM     30  C   UNL     1      24.499 -25.804   0.000  0.00  0.00    +0.000 C 
ATOM     31 CL   UNL     1      23.789 -26.214   0.000  0.00  0.00    +0.000 Cl
ENDBRANCH  28  30
ENDBRANCH  22  28
TORSDOF 2
