REMARK  Name = 
REMARK  2 active torsions:
REMARK  status: ('A' for Active; 'I' for Inactive)
REMARK    1  A    between atoms: N_3  and  C_7
REMARK    2  A    between atoms: C_10  and  C_11
REMARK                            x       y       z     vdW  Elec       q    Type
REMARK                         _______ _______ _______ _____ _____    ______ ____
ROOT
ATOM      1  C   UNL     1      -0.295  -0.273   0.000  0.00  0.00    +0.000 A 
ATOM      2  C   UNL     1      -1.010  -0.685   0.000  0.00  0.00    +0.000 A 
ATOM      3  C   UNL     1      -1.725  -0.273   0.000  0.00  0.00    +0.000 A 
ATOM      4  C   UNL     1      -1.725   0.552   0.000  0.00  0.00    +0.000 A 
ATOM      5  C   UNL     1      -0.295   0.552   0.000  0.00  0.00    +0.000 A 
ATOM      6  C   UNL     1      -1.010   0.965   0.000  0.00  0.00    +0.000 A 
ATOM      7  C   UNL     1      -1.010   1.790   0.000  0.00  0.00    +0.000 A 
ATOM      8  C   UNL     1      -0.295   2.202   0.000  0.00  0.00    +0.000 A 
ATOM      9  C   UNL     1       0.419   1.790   0.000  0.00  0.00    +0.000 A 
ATOM     10  C   UNL     1       0.419   0.965   0.000  0.00  0.00    +0.000 A 
ENDROOT
BRANCH   1  13
ATOM     11  C   UNL     1       2.445  -0.976   0.000  0.00  0.00    +0.000 C 
ATOM     12  C   UNL     1       1.786  -0.853   0.000  0.00  0.00    +0.000 C 
ATOM     13  N   UNL     1       0.419  -0.685   0.000  0.00  0.00    +0.000 N 
ATOM     14  C   UNL     1       1.926  -0.329   0.000  0.00  0.00    +0.000 C 
ATOM     15  C   UNL     1       0.831  -2.202   0.000  0.00  0.00    +0.000 C 
ATOM     16  C   UNL     1       1.188  -1.571   0.000  0.00  0.00    +0.000 C 
ATOM     17  O   UNL     1       3.153  -1.399   0.000  0.00  0.00    +0.000 OA
ATOM     18  C   UNL     1       1.123  -0.796   0.000  0.00  0.00    +0.000 C 
ATOM     19  C   UNL     1       0.937  -1.327   0.000  0.00  0.00    +0.000 C 
ENDBRANCH   1  13
BRANCH   4  20
ATOM     20  C   UNL     1      -2.439   0.965   0.000  0.00  0.00    +0.000 C 
ATOM     21  N   UNL     1      -3.153   1.377   0.000  0.00  0.00    +0.000 NA
ENDBRANCH   4  20
TORSDOF 2
