REMARK  Name = 
REMARK  1 active torsions:
REMARK  status: ('A' for Active; 'I' for Inactive)
REMARK    1  A    between atoms: C_3  and  C_9
REMARK                            x       y       z     vdW  Elec       q    Type
REMARK                         _______ _______ _______ _____ _____    ______ ____
ROOT
ATOM      1  C   UNL     1       0.166  -0.495   0.000  0.00  0.00    +0.000 A 
ATOM      2  N   UNL     1       1.471  -0.146   0.000  0.00  0.00    +0.000 NA
ATOM      3  C   UNL     1       0.664  -0.009   0.000  0.00  0.00    +0.000 C 
ATOM      4  N   UNL     1       0.681  -1.835   0.000  0.00  0.00    +0.000 NA
ATOM      5  C   UNL     1       0.160  -1.331   0.000  0.00  0.00    +0.000 A 
ATOM      6  C   UNL     1       1.488  -1.691   0.000  0.00  0.00    +0.000 C 
ATOM      7  C   UNL     1      -0.555  -0.094   0.000  0.00  0.00    +0.000 A 
ATOM      8  C   UNL     1       1.849  -0.901   0.000  0.00  0.00    +0.000 C 
ATOM      9  C   UNL     1      -0.555  -1.743   0.000  0.00  0.00    +0.000 A 
ATOM     10  O   UNL     1       1.986  -2.344   0.000  0.00  0.00    +0.000 OA
ATOM     11  C   UNL     1      -1.265  -0.507   0.000  0.00  0.00    +0.000 A 
ATOM     12  C   UNL     1      -1.265  -1.331   0.000  0.00  0.00    +0.000 A 
ATOM     13 CL   UNL     1      -1.986  -0.094   0.000  0.00  0.00    +0.000 Cl
ENDROOT
BRANCH   3  14
ATOM     14  C   UNL     1       0.418   0.776   0.000  0.00  0.00    +0.000 A 
ATOM     15  C   UNL     1       0.973   1.382   0.000  0.00  0.00    +0.000 A 
ATOM     16  C   UNL     1      -0.389   0.953   0.000  0.00  0.00    +0.000 A 
ATOM     17  C   UNL     1      -0.641   1.743   0.000  0.00  0.00    +0.000 A 
ATOM     18  C   UNL     1       0.733   2.166   0.000  0.00  0.00    +0.000 A 
ATOM     19  C   UNL     1      -0.074   2.344   0.000  0.00  0.00    +0.000 A 
ENDBRANCH   3  14
TORSDOF 1
