REMARK  Name = 
REMARK  6 active torsions:
REMARK  status: ('A' for Active; 'I' for Inactive)
REMARK    1  A    between atoms: C_6  and  S_7
REMARK    2  A    between atoms: S_7  and  C_8
REMARK    3  A    between atoms: C_8  and  C_9
REMARK    4  A    between atoms: C_9  and  C_10
REMARK    5  A    between atoms: C_16  and  C_19
REMARK    6  A    between atoms: C_19  and  C_20
REMARK                            x       y       z     vdW  Elec       q    Type
REMARK                         _______ _______ _______ _____ _____    ______ ____
ROOT
ATOM      1  C   UNL     1      -0.162  -0.379   0.000  0.00  0.00    +0.000 A 
ATOM      2  C   UNL     1       0.553   0.034   0.000  0.00  0.00    +0.000 A 
ATOM      3  C   UNL     1      -0.162  -1.204   0.000  0.00  0.00    +0.000 A 
ATOM      4  C   UNL     1       0.553  -1.616   0.000  0.00  0.00    +0.000 A 
ATOM      5  C   UNL     1       1.267  -1.204   0.000  0.00  0.00    +0.000 A 
ATOM      6  C   UNL     1       1.267  -0.379   0.000  0.00  0.00    +0.000 A 
ATOM      7  C   UNL     1       2.052  -0.124   0.000  0.00  0.00    +0.000 A 
ATOM      8  N   UNL     1       2.052  -1.459   0.000  0.00  0.00    +0.000 NA
ATOM      9  C   UNL     1       2.537  -0.791   0.000  0.00  0.00    +0.000 A 
ENDROOT
BRANCH   7  10
ATOM     10  C   UNL     1       2.307   0.661   0.000  0.00  0.00    +0.000 C 
BRANCH  10  11
ATOM     11  C   UNL     1       3.114   0.832   0.000  0.00  0.00    +0.000 C 
ATOM     12  C   UNL     1       4.449   0.828   0.000  0.00  0.00    +0.000 C 
ATOM     13  N   UNL     1       3.780   0.345   0.000  0.00  0.00    +0.000 NA
ATOM     14  C   UNL     1       3.371   1.616   0.000  0.00  0.00    +0.000 C 
ATOM     15  C   UNL     1       4.196   1.614   0.000  0.00  0.00    +0.000 C 
ATOM     16  C   UNL     1       3.777  -0.480   0.000  0.00  0.00    +0.000 C 
ENDBRANCH  10  11
ENDBRANCH   7  10
BRANCH   1  17
ATOM     17  C   UNL     1      -0.876   0.034   0.000  0.00  0.00    +0.000 C 
BRANCH  17  18
ATOM     18  C   UNL     1      -1.591  -0.379   0.000  0.00  0.00    +0.000 C 
BRANCH  18  19
ATOM     19  S   UNL     1      -2.305   0.034   0.000  0.00  0.00    +0.000 S 
ATOM     20  O   UNL     1      -1.886   0.752   0.000  0.00  0.00    +0.000 OA
ATOM     21  O   UNL     1      -2.711   0.752   0.000  0.00  0.00    +0.000 OA
BRANCH  19  27
ATOM     22  C   UNL     1      -3.734   0.034   0.000  0.00  0.00    +0.000 A 
ATOM     23  C   UNL     1      -4.449  -0.379   0.000  0.00  0.00    +0.000 A 
ATOM     24  C   UNL     1      -4.449  -1.204   0.000  0.00  0.00    +0.000 A 
ATOM     25  C   UNL     1      -3.734  -1.616   0.000  0.00  0.00    +0.000 A 
ATOM     26  C   UNL     1      -3.020  -1.204   0.000  0.00  0.00    +0.000 A 
ATOM     27  C   UNL     1      -3.020  -0.379   0.000  0.00  0.00    +0.000 A 
ENDBRANCH  19  27
ENDBRANCH  18  19
ENDBRANCH  17  18
ENDBRANCH   1  17
TORSDOF 6
