REMARK  Name = 
REMARK  15 active torsions:
REMARK  status: ('A' for Active; 'I' for Inactive)
REMARK    1  A    between atoms: C_2  and  C_3
REMARK    2  A    between atoms: N_5  and  C_6
REMARK    3  A    between atoms: C_6  and  C_8
REMARK    4  A    between atoms: C_8  and  O_10
REMARK    5  A    between atoms: O_10  and  C_11
REMARK    6  A    between atoms: C_11  and  C_12
REMARK    7  A    between atoms: C_12  and  O_13
REMARK    8  A    between atoms: O_13  and  C_14
REMARK    9  A    between atoms: C_17  and  C_20
REMARK   10  A    between atoms: C_21  and  C_47
REMARK   11  A    between atoms: C_24  and  S_28
REMARK   12  A    between atoms: C_25  and  C_26
REMARK   13  A    between atoms: S_28  and  C_29
REMARK   14  A    between atoms: C_29  and  C_30
REMARK   15  A    between atoms: C_33  and  C_35
REMARK                            x       y       z     vdW  Elec       q    Type
REMARK                         _______ _______ _______ _____ _____    ______ ____
ROOT
ATOM      1  C   UNL     1       7.129 -15.204   0.000  0.00  0.00    +0.000 A 
ATOM      2  C   UNL     1       7.843 -14.791   0.000  0.00  0.00    +0.000 A 
ATOM      3  C   UNL     1       8.558 -15.204   0.000  0.00  0.00    +0.000 A 
ATOM      4  N   UNL     1       8.558 -16.029   0.000  0.00  0.00    +0.000 NA
ATOM      5  C   UNL     1       7.843 -16.441   0.000  0.00  0.00    +0.000 A 
ATOM      6  C   UNL     1       7.129 -16.029   0.000  0.00  0.00    +0.000 A 
ATOM      7  N   UNL     1       9.272 -14.791   0.000  0.00  0.00    +0.000 N 
ATOM      8  C   UNL     1       9.358 -13.970   0.000  0.00  0.00    +0.000 C 
ATOM      9  C   UNL     1      10.165 -13.799   0.000  0.00  0.00    +0.000 C 
ATOM     10  C   UNL     1      10.578 -14.513   0.000  0.00  0.00    +0.000 C 
ATOM     11  C   UNL     1      10.026 -15.127   0.000  0.00  0.00    +0.000 C 
ENDROOT
BRANCH   1  15
ATOM     12  C   UNL     1       4.985 -13.966   0.000  0.00  0.00    +0.000 A 
ATOM     13  C   UNL     1       5.700 -13.553   0.000  0.00  0.00    +0.000 A 
ATOM     14  C   UNL     1       6.414 -13.966   0.000  0.00  0.00    +0.000 A 
ATOM     15  C   UNL     1       6.414 -14.791   0.000  0.00  0.00    +0.000 A 
ATOM     16  C   UNL     1       5.700 -15.204   0.000  0.00  0.00    +0.000 A 
ATOM     17  C   UNL     1       4.985 -14.791   0.000  0.00  0.00    +0.000 A 
BRANCH  12  18
ATOM     18  O   UNL     1       4.271 -13.553   0.000  0.00  0.00    +0.000 OA
BRANCH  18  19
ATOM     19  C   UNL     1       3.556 -13.966   0.000  0.00  0.00    +0.000 C 
BRANCH  19  20
ATOM     20  C   UNL     1       2.842 -13.553   0.000  0.00  0.00    +0.000 C 
BRANCH  20  21
ATOM     21  O   UNL     1       2.127 -13.966   0.000  0.00  0.00    +0.000 OA
BRANCH  21  22
ATOM     22  C   UNL     1       1.413 -13.553   0.000  0.00  0.00    +0.000 C 
ATOM     23  O   UNL     1       1.413 -12.729   0.000  0.00  0.00    +0.000 OA
BRANCH  22  24
ATOM     24  C   UNL     1       0.699 -13.966   0.000  0.00  0.00    +0.000 C 
ATOM     25  C   UNL     1       0.699 -14.791   0.000  0.00  0.00    +0.000 C 
BRANCH  24  28
ATOM     26  C   UNL     1      -0.731 -13.966   0.000  0.00  0.00    +0.000 C 
ATOM     27  O   UNL     1      -0.731 -14.791   0.000  0.00  0.00    +0.000 OA
ATOM     28  N   UNL     1      -0.016 -13.553   0.000  0.00  0.00    +0.000 NA
BRANCH  26  30
ATOM     29  C   UNL     1      -2.159 -13.966   0.000  0.00  0.00    +0.000 C 
ATOM     30  C   UNL     1      -1.445 -13.553   0.000  0.00  0.00    +0.000 C 
ATOM     31  N   UNL     1      -1.445 -12.729   0.000  0.00  0.00    +0.000 NA
ENDBRANCH  26  30
ENDBRANCH  24  28
ENDBRANCH  22  24
ENDBRANCH  21  22
ENDBRANCH  20  21
ENDBRANCH  19  20
ENDBRANCH  18  19
ENDBRANCH  12  18
ENDBRANCH   1  15
BRANCH   2  32
ATOM     32  C   UNL     1       7.843 -13.966   0.000  0.00  0.00    +0.000 C 
ATOM     33  N   UNL     1       7.843 -13.141   0.000  0.00  0.00    +0.000 NA
ENDBRANCH   2  32
BRANCH   6  34
ATOM     34  C   UNL     1       6.414 -16.441   0.000  0.00  0.00    +0.000 C 
ATOM     35  N   UNL     1       5.700 -16.854   0.000  0.00  0.00    +0.000 NA
ENDBRANCH   6  34
BRANCH   5  36
ATOM     36  S   UNL     1       7.843 -17.266   0.000  0.00  0.00    +0.000 S 
BRANCH  36  37
ATOM     37  C   UNL     1       8.558 -17.678   0.000  0.00  0.00    +0.000 C 
BRANCH  37  38
ATOM     38  C   UNL     1       9.272 -17.266   0.000  0.00  0.00    +0.000 A 
ATOM     39  C   UNL     1       9.358 -16.445   0.000  0.00  0.00    +0.000 A 
ATOM     40  S   UNL     1      10.165 -16.274   0.000  0.00  0.00    +0.000 S 
ATOM     41  C   UNL     1      10.578 -16.988   0.000  0.00  0.00    +0.000 A 
ATOM     42  N   UNL     1      10.026 -17.602   0.000  0.00  0.00    +0.000 NA
BRANCH  41  43
ATOM     43  C   UNL     1      11.398 -17.075   0.000  0.00  0.00    +0.000 A 
ATOM     44  C   UNL     1      11.883 -16.407   0.000  0.00  0.00    +0.000 A 
ATOM     45  C   UNL     1      12.704 -16.494   0.000  0.00  0.00    +0.000 A 
ATOM     46  C   UNL     1      13.039 -17.247   0.000  0.00  0.00    +0.000 A 
ATOM     47  C   UNL     1      12.554 -17.915   0.000  0.00  0.00    +0.000 A 
ATOM     48  C   UNL     1      11.734 -17.828   0.000  0.00  0.00    +0.000 A 
ATOM     49 CL   UNL     1      13.860 -17.333   0.000  0.00  0.00    +0.000 Cl
ENDBRANCH  41  43
ENDBRANCH  37  38
ENDBRANCH  36  37
ENDBRANCH   5  36
TORSDOF 15
