REMARK  Name = 
REMARK  6 active torsions:
REMARK  status: ('A' for Active; 'I' for Inactive)
REMARK    1  A    between atoms: C_2  and  C_4
REMARK    2  A    between atoms: N_14  and  C_15
REMARK    3  A    between atoms: C_15  and  C_16
REMARK    4  A    between atoms: C_15  and  C_21
REMARK    5  A    between atoms: C_16  and  N_17
REMARK    6  A    between atoms: C_23  and  C_28
REMARK                            x       y       z     vdW  Elec       q    Type
REMARK                         _______ _______ _______ _____ _____    ______ ____
ROOT
ATOM      1  C   UNL     1       2.143  -2.888   0.000  0.00  0.00    +0.000 C 
ENDROOT
BRANCH   1  12
ATOM      2  C   UNL     1       0.000   0.000   0.000  0.00  0.00    +0.000 A 
ATOM      3  C   UNL     1      -0.715  -0.412   0.000  0.00  0.00    +0.000 A 
ATOM      4  C   UNL     1      -0.715  -1.238   0.000  0.00  0.00    +0.000 A 
ATOM      5  C   UNL     1       0.000  -1.650   0.000  0.00  0.00    +0.000 A 
ATOM      6  C   UNL     1       0.715  -1.238   0.000  0.00  0.00    +0.000 A 
ATOM      7  C   UNL     1       0.715  -0.412   0.000  0.00  0.00    +0.000 A 
ATOM      8  N   UNL     1       1.429   0.000   0.000  0.00  0.00    +0.000 NA
ATOM      9  C   UNL     1       2.143  -0.412   0.000  0.00  0.00    +0.000 A 
ATOM     10  N   UNL     1       2.143  -1.238   0.000  0.00  0.00    +0.000 NA
ATOM     11  C   UNL     1       1.429  -1.650   0.000  0.00  0.00    +0.000 A 
ATOM     12  N   UNL     1       1.429  -2.475   0.000  0.00  0.00    +0.000 NA
BRANCH   2  14
ATOM     13  N   UNL     1      -0.715   1.238   0.000  0.00  0.00    +0.000 NA
ATOM     14  C   UNL     1       0.000   0.825   0.000  0.00  0.00    +0.000 C 
ATOM     15  O   UNL     1       0.715   1.238   0.000  0.00  0.00    +0.000 OA
ENDBRANCH   2  14
ENDBRANCH   1  12
BRANCH   1  16
ATOM     16  C   UNL     1       2.143  -3.712   0.000  0.00  0.00    +0.000 A 
ATOM     17  C   UNL     1       2.858  -4.125   0.000  0.00  0.00    +0.000 A 
ATOM     18  C   UNL     1       2.858  -4.950   0.000  0.00  0.00    +0.000 A 
ATOM     19  C   UNL     1       2.143  -5.362   0.000  0.00  0.00    +0.000 A 
ATOM     20 CL   UNL     1       2.143  -6.188   0.000  0.00  0.00    +0.000 Cl
ATOM     21  C   UNL     1       1.429  -4.950   0.000  0.00  0.00    +0.000 A 
ATOM     22  C   UNL     1       1.429  -4.125   0.000  0.00  0.00    +0.000 A 
BRANCH  18  23
ATOM     23  C   UNL     1       3.572  -5.362   0.000  0.00  0.00    +0.000 C 
ATOM     24  F   UNL     1       4.287  -5.775   0.000  0.00  0.00    +0.000 F 
ATOM     25  F   UNL     1       3.160  -6.077   0.000  0.00  0.00    +0.000 F 
ATOM     26  F   UNL     1       3.985  -4.648   0.000  0.00  0.00    +0.000 F 
ENDBRANCH  18  23
ENDBRANCH   1  16
BRANCH   1  27
ATOM     27  C   UNL     1       2.858  -2.475   0.000  0.00  0.00    +0.000 C 
BRANCH  27  28
ATOM     28  N   UNL     1       3.572  -2.888   0.000  0.00  0.00    +0.000 NA
ATOM     29  C   UNL     1       4.369  -2.674   0.000  0.00  0.00    +0.000 C 
ATOM     30  C   UNL     1       4.583  -3.471   0.000  0.00  0.00    +0.000 C 
ATOM     31  C   UNL     1       3.786  -3.684   0.000  0.00  0.00    +0.000 C 
ENDBRANCH  27  28
ENDBRANCH   1  27
TORSDOF 6
