REMARK  Name = 
REMARK  1 active torsions:
REMARK  status: ('A' for Active; 'I' for Inactive)
REMARK    1  A    between atoms: CA_11  and  C_14
REMARK                            x       y       z     vdW  Elec       q    Type
REMARK                         _______ _______ _______ _____ _____    ______ ____
ROOT
ATOM      1  C   UNL     1      -0.709   0.000   0.000  0.00  0.00    +0.000 A 
ATOM      2  C   UNL     1      -0.002   0.414   0.000  0.00  0.00    +0.000 A 
ATOM      3  C   UNL     1      -1.420   0.414   0.000  0.00  0.00    +0.000 A 
ATOM      4  N   UNL     1      -0.709  -0.837   0.000  0.00  0.00    +0.000 NA
ATOM      5  C   UNL     1      -0.002   1.251   0.000  0.00  0.00    +0.000 A 
ATOM      6  N   UNL     1       0.709   1.669   0.000  0.00  0.00    +0.000 NA
ATOM      7  C   UNL     1      -1.420   1.251   0.000  0.00  0.00    +0.000 A 
ATOM      8  C   UNL     1      -0.709   1.669   0.000  0.00  0.00    +0.000 A 
ATOM      9  C   UNL     1       0.709   0.000   0.000  0.00  0.00    +0.000 A 
ATOM     10  O   UNL     1      -2.131   0.000   0.000  0.00  0.00    +0.000 OA
ATOM     11  CA  UNL     1       1.420   1.251   0.000  0.00  0.00    +0.000 A 
ATOM     12  C   UNL     1       1.420   0.414   0.000  0.00  0.00    +0.000 A 
ATOM     13  C   UNL     1      -1.420  -1.255   0.000  0.00  0.00    +0.000 A 
ATOM     14  C   UNL     1      -2.131  -0.837   0.000  0.00  0.00    +0.000 A 
ATOM     15  O   UNL     1      -0.709   2.506   0.000  0.00  0.00    +0.000 OA
ATOM     16  O   UNL     1       0.709  -0.837   0.000  0.00  0.00    +0.000 OA
ATOM     17  C   UNL     1      -1.420  -2.092   0.000  0.00  0.00    +0.000 A 
ATOM     18  C   UNL     1      -2.838  -1.255   0.000  0.00  0.00    +0.000 A 
ATOM     19  C   UNL     1      -2.131  -2.506   0.000  0.00  0.00    +0.000 A 
ATOM     20  C   UNL     1      -2.838  -2.092   0.000  0.00  0.00    +0.000 A 
ENDROOT
BRANCH  11  21
ATOM     21  C   UNL     1       2.131   1.669   0.000  0.00  0.00    +0.000 C 
ATOM     22  O   UNL     1       2.131   2.506   0.000  0.00  0.00    +0.000 OA
ATOM     23  OXT UNL     1       2.838   1.251   0.000  0.00  0.00    +0.000 OA
ENDBRANCH  11  21
TORSDOF 1
