REMARK  Name = 
REMARK  7 active torsions:
REMARK  status: ('A' for Active; 'I' for Inactive)
REMARK    1  A    between atoms: C_2  and  C_15
REMARK    2  A    between atoms: C_4  and  C_11
REMARK    3  A    between atoms: C_6  and  C_7
REMARK    4  A    between atoms: C_15  and  O_16
REMARK    5  A    between atoms: O_16  and  C_17
REMARK    6  A    between atoms: C_17  and  C_18
REMARK    7  A    between atoms: C_18  and  C_19
REMARK                            x       y       z     vdW  Elec       q    Type
REMARK                         _______ _______ _______ _____ _____    ______ ____
ROOT
ATOM      1  C   UNL     1      -1.056   1.408   0.000  0.00  0.00    +0.000 C 
ENDROOT
BRANCH   1   2
ATOM      2  C   UNL     1      -1.801   0.994   0.000  0.00  0.00    +0.000 C 
ATOM      3  N   UNL     1      -1.056   0.538   0.000  0.00  0.00    +0.000 NA
ATOM      4  C   UNL     1      -1.056  -0.290   0.000  0.00  0.00    +0.000 C 
ATOM      5  C   UNL     1      -1.760  -0.704   0.000  0.00  0.00    +0.000 C 
ATOM      6  C   UNL     1      -2.505  -0.248   0.000  0.00  0.00    +0.000 C 
ATOM      7  C   UNL     1      -2.505   0.580   0.000  0.00  0.00    +0.000 C 
ATOM      8  C   UNL     1      -1.097  -1.159   0.000  0.00  0.00    +0.000 C 
ATOM      9  C   UNL     1      -1.346  -1.946   0.000  0.00  0.00    +0.000 C 
ATOM     10  C   UNL     1      -2.174  -1.946   0.000  0.00  0.00    +0.000 C 
ATOM     11  N   UNL     1      -2.464  -1.159   0.000  0.00  0.00    +0.000 NA
ATOM     12  O   UNL     1      -2.671  -2.609   0.000  0.00  0.00    +0.000 OA
BRANCH   2  13
ATOM     13  C   UNL     1      -2.505   1.408   0.000  0.00  0.00    +0.000 A 
ATOM     14  C   UNL     1      -3.250   0.952   0.000  0.00  0.00    +0.000 A 
ATOM     15  C   UNL     1      -3.954   1.366   0.000  0.00  0.00    +0.000 A 
ATOM     16  C   UNL     1      -3.954   2.195   0.000  0.00  0.00    +0.000 A 
ATOM     17  C   UNL     1      -3.209   2.609   0.000  0.00  0.00    +0.000 A 
ATOM     18  C   UNL     1      -2.505   2.195   0.000  0.00  0.00    +0.000 A 
ENDBRANCH   2  13
ENDBRANCH   1   2
BRANCH   1  19
ATOM     19  O   UNL     1      -0.352   0.994   0.000  0.00  0.00    +0.000 OA
BRANCH  19  20
ATOM     20  C   UNL     1       0.352   1.408   0.000  0.00  0.00    +0.000 C 
ATOM     21  C   UNL     1       0.352   2.195   0.000  0.00  0.00    +0.000 C 
BRANCH  20  23
ATOM     22  C   UNL     1       1.097   0.166   0.000  0.00  0.00    +0.000 A 
ATOM     23  C   UNL     1       1.097   0.994   0.000  0.00  0.00    +0.000 A 
ATOM     24  C   UNL     1       1.801   1.408   0.000  0.00  0.00    +0.000 A 
ATOM     25  C   UNL     1       2.505   0.994   0.000  0.00  0.00    +0.000 A 
ATOM     26  C   UNL     1       2.505   0.166   0.000  0.00  0.00    +0.000 A 
ATOM     27  C   UNL     1       1.801  -0.248   0.000  0.00  0.00    +0.000 A 
BRANCH  25  28
ATOM     28  C   UNL     1       3.250   1.408   0.000  0.00  0.00    +0.000 C 
ATOM     29  F   UNL     1       3.954   1.822   0.000  0.00  0.00    +0.000 F 
ATOM     30  F   UNL     1       2.836   2.112   0.000  0.00  0.00    +0.000 F 
ATOM     31  F   UNL     1       3.664   0.662   0.000  0.00  0.00    +0.000 F 
ENDBRANCH  25  28
BRANCH  27  32
ATOM     32  C   UNL     1       1.801  -1.077   0.000  0.00  0.00    +0.000 C 
ATOM     33  F   UNL     1       1.801  -1.905   0.000  0.00  0.00    +0.000 F 
ATOM     34  F   UNL     1       0.973  -1.077   0.000  0.00  0.00    +0.000 F 
ATOM     35  F   UNL     1       2.588  -1.077   0.000  0.00  0.00    +0.000 F 
ENDBRANCH  27  32
ENDBRANCH  20  23
ENDBRANCH  19  20
ENDBRANCH   1  19
TORSDOF 7
