REMARK  Name = 
REMARK  0 active torsions:
REMARK  status: ('A' for Active; 'I' for Inactive)
REMARK                            x       y       z     vdW  Elec       q    Type
REMARK                         _______ _______ _______ _____ _____    ______ ____
ROOT
ATOM      1  C   UNL     1       3.572   0.120   0.000  0.00  0.00    +0.000 C 
ATOM      2  N   UNL     1       4.383  -0.036   0.000  0.00  0.00    +0.000 NA
ATOM      3  C   UNL     1       4.923   0.588   0.000  0.00  0.00    +0.000 C 
ATOM      4  C   UNL     1       5.733   0.432   0.000  0.00  0.00    +0.000 C 
ATOM      5  C   UNL     1       6.273   1.056   0.000  0.00  0.00    +0.000 C 
ATOM      6  C   UNL     1       7.083   0.900   0.000  0.00  0.00    +0.000 C 
ATOM      7  C   UNL     1       7.353   0.120   0.000  0.00  0.00    +0.000 C 
ATOM      8  O   UNL     1       6.813  -0.503   0.000  0.00  0.00    +0.000 OA
ATOM      9  C   UNL     1       7.083  -1.283   0.000  0.00  0.00    +0.000 A 
ATOM     10  C   UNL     1       6.543  -1.907   0.000  0.00  0.00    +0.000 A 
ATOM     11  C   UNL     1       6.813  -2.686   0.000  0.00  0.00    +0.000 A 
ATOM     12  C   UNL     1       7.623  -2.842   0.000  0.00  0.00    +0.000 A 
ATOM     13  C   UNL     1       8.163  -2.218   0.000  0.00  0.00    +0.000 A 
ATOM     14  C   UNL     1       7.893  -1.439   0.000  0.00  0.00    +0.000 A 
ATOM     15  C   UNL     1       6.273  -3.310   0.000  0.00  0.00    +0.000 A 
ATOM     16  C   UNL     1       6.543  -4.089   0.000  0.00  0.00    +0.000 A 
ATOM     17  C   UNL     1       6.003  -4.713   0.000  0.00  0.00    +0.000 A 
ATOM     18  N   UNL     1       5.193  -4.557   0.000  0.00  0.00    +0.000 NA
ATOM     19  C   UNL     1       4.923  -3.777   0.000  0.00  0.00    +0.000 A 
ATOM     20  N   UNL     1       4.112  -3.622   0.000  0.00  0.00    +0.000 NA
ATOM     21  C   UNL     1       3.842  -2.842   0.000  0.00  0.00    +0.000 A 
ATOM     22  C   UNL     1       3.032  -2.686   0.000  0.00  0.00    +0.000 A 
ATOM     23  C   UNL     1       2.762  -1.907   0.000  0.00  0.00    +0.000 A 
ATOM     24  C   UNL     1       3.302  -1.283   0.000  0.00  0.00    +0.000 A 
ATOM     25  C   UNL     1       4.112  -1.439   0.000  0.00  0.00    +0.000 A 
ATOM     26  C   UNL     1       4.652  -0.815   0.000  0.00  0.00    +0.000 C 
ATOM     27  C   UNL     1       4.383  -2.218   0.000  0.00  0.00    +0.000 A 
ATOM     28  N   UNL     1       5.463  -3.154   0.000  0.00  0.00    +0.000 NA
ENDROOT
TORSDOF 0
