REMARK  Name = 
REMARK  8 active torsions:
REMARK  status: ('A' for Active; 'I' for Inactive)
REMARK    1  A    between atoms: C_22  and  C_26
REMARK    2  A    between atoms: C_22  and  N_33
REMARK    3  A    between atoms: C_23  and  C_29
REMARK    4  A    between atoms: C_24  and  C_29
REMARK    5  A    between atoms: C_27  and  C_32
REMARK    6  A    between atoms: C_28  and  O_35
REMARK    7  A    between atoms: C_29  and  C_31
REMARK    8  A    between atoms: C_30  and  N_33
REMARK                            x       y       z     vdW  Elec       q    Type
REMARK                         _______ _______ _______ _____ _____    ______ ____
ROOT
ATOM      1  C   UNL     1       0.426   0.246   0.000  0.00  0.00    +0.000 C 
ATOM      2  C   UNL     1       1.003   0.383   0.000  0.00  0.00    +0.000 C 
ATOM      3  C   UNL     1       0.426   1.071   0.000  0.00  0.00    +0.000 C 
ATOM      4  C   UNL     1       1.003   0.933   0.000  0.00  0.00    +0.000 C 
ATOM      5  C   UNL     1       1.141  -0.167   0.000  0.00  0.00    +0.000 C 
ATOM      6  C   UNL     1       1.855   0.246   0.000  0.00  0.00    +0.000 C 
ATOM      7  C   UNL     1       1.855   1.071   0.000  0.00  0.00    +0.000 C 
ATOM      8  N   UNL     1       1.141   1.483   0.000  0.00  0.00    +0.000 NA
ENDROOT
BRANCH   7   9
ATOM      9  C   UNL     1       2.569   1.483   0.000  0.00  0.00    +0.000 C 
BRANCH   9  15
ATOM     10  C   UNL     1       4.713   0.246   0.000  0.00  0.00    +0.000 A 
ATOM     11  C   UNL     1       4.713   1.071   0.000  0.00  0.00    +0.000 A 
ATOM     12  C   UNL     1       3.998  -0.167   0.000  0.00  0.00    +0.000 A 
ATOM     13  C   UNL     1       3.998   1.483   0.000  0.00  0.00    +0.000 A 
ATOM     14  C   UNL     1       3.284   0.246   0.000  0.00  0.00    +0.000 A 
ATOM     15  C   UNL     1       3.284   1.071   0.000  0.00  0.00    +0.000 A 
ENDBRANCH   9  15
BRANCH   9  21
ATOM     16  C   UNL     1       2.569   3.958   0.000  0.00  0.00    +0.000 A 
ATOM     17  C   UNL     1       1.855   3.546   0.000  0.00  0.00    +0.000 A 
ATOM     18  C   UNL     1       3.284   3.546   0.000  0.00  0.00    +0.000 A 
ATOM     19  C   UNL     1       1.855   2.721   0.000  0.00  0.00    +0.000 A 
ATOM     20  C   UNL     1       3.284   2.721   0.000  0.00  0.00    +0.000 A 
ATOM     21  C   UNL     1       2.569   2.308   0.000  0.00  0.00    +0.000 A 
ENDBRANCH   9  21
ENDBRANCH   7   9
BRANCH   6  22
ATOM     22  N   UNL     1       2.569  -0.167   0.000  0.00  0.00    +0.000 NA
BRANCH  22  23
ATOM     23  C   UNL     1       2.569  -0.992   0.000  0.00  0.00    +0.000 C 
BRANCH  23  27
ATOM     24  C   UNL     1       4.713  -2.229   0.000  0.00  0.00    +0.000 A 
ATOM     25  C   UNL     1       3.998  -2.642   0.000  0.00  0.00    +0.000 A 
ATOM     26  C   UNL     1       3.998  -0.992   0.000  0.00  0.00    +0.000 A 
ATOM     27  C   UNL     1       3.284  -1.404   0.000  0.00  0.00    +0.000 A 
ATOM     28  C   UNL     1       4.713  -1.404   0.000  0.00  0.00    +0.000 A 
ATOM     29  C   UNL     1       3.284  -2.229   0.000  0.00  0.00    +0.000 A 
BRANCH  28  33
ATOM     30  C   UNL     1       6.142  -0.579   0.000  0.00  0.00    +0.000 C 
ATOM     31  C   UNL     1       5.840  -1.706   0.000  0.00  0.00    +0.000 C 
ATOM     32  C   UNL     1       5.015  -0.277   0.000  0.00  0.00    +0.000 C 
ATOM     33  C   UNL     1       5.427  -0.992   0.000  0.00  0.00    +0.000 C 
ENDBRANCH  28  33
BRANCH  29  35
ATOM     34  C   UNL     1       1.855  -2.229   0.000  0.00  0.00    +0.000 C 
ATOM     35  O   UNL     1       2.569  -2.642   0.000  0.00  0.00    +0.000 OA
ENDBRANCH  29  35
ENDBRANCH  23  27
ENDBRANCH  22  23
ENDBRANCH   6  22
TORSDOF 8
