REMARK  Name = 
REMARK  2 active torsions:
REMARK  status: ('A' for Active; 'I' for Inactive)
REMARK    1  A    between atoms: C_3  and  N_12
REMARK    2  A    between atoms: C_5  and  N_9
REMARK                            x       y       z     vdW  Elec       q    Type
REMARK                         _______ _______ _______ _____ _____    ______ ____
ROOT
ATOM      1  C   UNL     1      -1.072   0.619   0.000  0.00  0.00    +0.000 A 
ATOM      2  C   UNL     1      -0.357   1.031   0.000  0.00  0.00    +0.000 A 
ATOM      3  C   UNL     1       0.357   0.619   0.000  0.00  0.00    +0.000 A 
ATOM      4  C   UNL     1       0.357  -0.206   0.000  0.00  0.00    +0.000 A 
ATOM      5  C   UNL     1      -0.357  -0.619   0.000  0.00  0.00    +0.000 A 
ATOM      6  C   UNL     1      -1.072  -0.206   0.000  0.00  0.00    +0.000 A 
ATOM      7  O   UNL     1      -1.786   1.031   0.000  0.00  0.00    +0.000 OA
ATOM      8  O   UNL     1      -0.357   1.856   0.000  0.00  0.00    +0.000 OA
ENDROOT
BRANCH   5   9
ATOM      9  N   UNL     1      -0.357  -1.444   0.000  0.00  0.00    +0.000 N 
ATOM     10  O   UNL     1      -1.072  -1.856   0.000  0.00  0.00    +0.000 OA
ATOM     11  O   UNL     1       0.357  -1.856   0.000  0.00  0.00    +0.000 OA
ENDBRANCH   5   9
BRANCH   3  12
ATOM     12  N   UNL     1       1.072   1.031   0.000  0.00  0.00    +0.000 N 
ATOM     13  O   UNL     1       1.072   1.856   0.000  0.00  0.00    +0.000 OA
ATOM     14  O   UNL     1       1.786   0.619   0.000  0.00  0.00    +0.000 OA
ENDBRANCH   3  12
TORSDOF 2
