REMARK  Name = 
REMARK  6 active torsions:
REMARK  status: ('A' for Active; 'I' for Inactive)
REMARK    1  A    between atoms: C_6  and  C_7
REMARK    2  A    between atoms: C_7  and  C_22
REMARK    3  A    between atoms: N_8  and  N_9
REMARK    4  A    between atoms: N_9  and  C_10
REMARK    5  A    between atoms: C_13  and  N_19
REMARK    6  A    between atoms: C_15  and  N_16
REMARK                            x       y       z     vdW  Elec       q    Type
REMARK                         _______ _______ _______ _____ _____    ______ ____
ROOT
ATOM      1  C   UNL     1       2.143  -0.412   0.000  0.00  0.00    +0.000 C 
ATOM      2  N   UNL     1       1.429   0.000   0.000  0.00  0.00    +0.000 NA
ENDROOT
BRANCH   1   8
ATOM      3  C   UNL     1       2.858  -1.650   0.000  0.00  0.00    +0.000 A 
ATOM      4  C   UNL     1       2.858  -2.475   0.000  0.00  0.00    +0.000 A 
ATOM      5  C   UNL     1       2.143  -2.888   0.000  0.00  0.00    +0.000 A 
ATOM      6  C   UNL     1       1.429  -2.475   0.000  0.00  0.00    +0.000 A 
ATOM      7  C   UNL     1       1.429  -1.650   0.000  0.00  0.00    +0.000 A 
ATOM      8  C   UNL     1       2.143  -1.238   0.000  0.00  0.00    +0.000 A 
ATOM      9  O   UNL     1       2.143  -3.712   0.000  0.00  0.00    +0.000 OA
ENDBRANCH   1   8
BRANCH   1  10
ATOM     10  C   UNL     1       2.858   0.000   0.000  0.00  0.00    +0.000 A 
ATOM     11  C   UNL     1       2.858   0.825   0.000  0.00  0.00    +0.000 A 
ATOM     12  C   UNL     1       3.572   1.238   0.000  0.00  0.00    +0.000 A 
ATOM     13  C   UNL     1       4.287   0.825   0.000  0.00  0.00    +0.000 A 
ATOM     14  C   UNL     1       4.287   0.000   0.000  0.00  0.00    +0.000 A 
ATOM     15  C   UNL     1       3.572  -0.412   0.000  0.00  0.00    +0.000 A 
ATOM     16  O   UNL     1       5.001   1.238   0.000  0.00  0.00    +0.000 OA
ENDBRANCH   1  10
BRANCH   2  17
ATOM     17  N   UNL     1       0.715  -0.412   0.000  0.00  0.00    +0.000 NA
BRANCH  17  18
ATOM     18  C   UNL     1       0.000   0.000   0.000  0.00  0.00    +0.000 A 
ATOM     19  C   UNL     1      -0.715  -0.412   0.000  0.00  0.00    +0.000 A 
ATOM     20  C   UNL     1      -1.429   0.000   0.000  0.00  0.00    +0.000 A 
ATOM     21  C   UNL     1      -1.429   0.825   0.000  0.00  0.00    +0.000 A 
ATOM     22  C   UNL     1      -0.715   1.238   0.000  0.00  0.00    +0.000 A 
ATOM     23  C   UNL     1       0.000   0.825   0.000  0.00  0.00    +0.000 A 
BRANCH  23  24
ATOM     24  N   UNL     1       0.715   1.238   0.000  0.00  0.00    +0.000 N 
ATOM     25  O   UNL     1       1.429   0.825   0.000  0.00  0.00    +0.000 OA
ATOM     26  O   UNL     1       0.715   2.062   0.000  0.00  0.00    +0.000 OA
ENDBRANCH  23  24
BRANCH  21  27
ATOM     27  N   UNL     1      -2.143   1.238   0.000  0.00  0.00    +0.000 N 
ATOM     28  O   UNL     1      -2.143   2.062   0.000  0.00  0.00    +0.000 OA
ATOM     29  O   UNL     1      -2.858   0.825   0.000  0.00  0.00    +0.000 OA
ENDBRANCH  21  27
ENDBRANCH  17  18
ENDBRANCH   2  17
TORSDOF 6
