REMARK  Name = 
REMARK  6 active torsions:
REMARK  status: ('A' for Active; 'I' for Inactive)
REMARK    1  A    between atoms: O_2  and  C_3
REMARK    2  A    between atoms: C_3  and  C_4
REMARK    3  A    between atoms: C_5  and  C_6
REMARK    4  A    between atoms: C_6  and  N_7
REMARK    5  A    between atoms: C_21  and  C_22
REMARK    6  A    between atoms: C_27  and  O_28
REMARK                            x       y       z     vdW  Elec       q    Type
REMARK                         _______ _______ _______ _____ _____    ______ ____
ROOT
ATOM      1  C   UNL     1      -1.938  -1.365   0.000  0.00  0.00    +0.000 A 
ATOM      2  C   UNL     1      -2.723  -1.110   0.000  0.00  0.00    +0.000 A 
ATOM      3  N   UNL     1      -2.723  -0.285   0.000  0.00  0.00    +0.000 N 
ATOM      4  N   UNL     1      -3.336   0.267   0.000  0.00  0.00    +0.000 NA
ATOM      5  C   UNL     1      -3.164   1.074   0.000  0.00  0.00    +0.000 A 
ATOM      6  N   UNL     1      -2.380   1.329   0.000  0.00  0.00    +0.000 NA
ATOM      7  C   UNL     1      -1.767   0.776   0.000  0.00  0.00    +0.000 A 
ATOM      8  N   UNL     1      -0.982   1.031   0.000  0.00  0.00    +0.000 NA
ATOM      9  C   UNL     1      -1.938  -0.030   0.000  0.00  0.00    +0.000 A 
ATOM     10  C   UNL     1      -1.453  -0.698   0.000  0.00  0.00    +0.000 A 
ENDROOT
BRANCH  10  11
ATOM     11  C   UNL     1      -0.628  -0.698   0.000  0.00  0.00    +0.000 A 
ATOM     12  C   UNL     1      -0.143  -1.365   0.000  0.00  0.00    +0.000 A 
ATOM     13  C   UNL     1       0.641  -1.110   0.000  0.00  0.00    +0.000 A 
ATOM     14  C   UNL     1       0.641  -0.285   0.000  0.00  0.00    +0.000 A 
ATOM     15  S   UNL     1      -0.143  -0.030   0.000  0.00  0.00    +0.000 S 
ATOM     16  C   UNL     1       1.356   0.127   0.000  0.00  0.00    +0.000 A 
ATOM     17  C   UNL     1       2.070  -0.285   0.000  0.00  0.00    +0.000 A 
ATOM     18  C   UNL     1       2.070  -1.110   0.000  0.00  0.00    +0.000 A 
ATOM     19  C   UNL     1       2.784  -1.523   0.000  0.00  0.00    +0.000 C 
ATOM     20  C   UNL     1       1.356  -1.523   0.000  0.00  0.00    +0.000 A 
BRANCH  16  21
ATOM     21  O   UNL     1       1.356   0.952   0.000  0.00  0.00    +0.000 OA
ATOM     22  C   UNL     1       0.641   1.365   0.000  0.00  0.00    +0.000 C 
ENDBRANCH  16  21
ENDBRANCH  10  11
BRANCH   1  23
ATOM     23  C   UNL     1      -1.683  -2.150   0.000  0.00  0.00    +0.000 C 
BRANCH  23  25
ATOM     24  C   UNL     1      -0.622  -3.106   0.000  0.00  0.00    +0.000 C 
ATOM     25  O   UNL     1      -0.876  -2.321   0.000  0.00  0.00    +0.000 OA
ENDBRANCH  23  25
ENDBRANCH   1  23
BRANCH   2  26
ATOM     26  C   UNL     1      -3.390  -1.595   0.000  0.00  0.00    +0.000 C 
BRANCH  26  27
ATOM     27  N   UNL     1      -4.144  -1.260   0.000  0.00  0.00    +0.000 NA
ATOM     28  C   UNL     1      -4.811  -1.745   0.000  0.00  0.00    +0.000 C 
ATOM     29  C   UNL     1      -5.565  -1.409   0.000  0.00  0.00    +0.000 C 
ATOM     30  N   UNL     1      -5.651  -0.589   0.000  0.00  0.00    +0.000 NA
ATOM     31  C   UNL     1      -4.984  -0.104   0.000  0.00  0.00    +0.000 C 
ATOM     32  O   UNL     1      -5.070   0.717   0.000  0.00  0.00    +0.000 OA
ATOM     33  C   UNL     1      -4.230  -0.439   0.000  0.00  0.00    +0.000 C 
ENDBRANCH  26  27
ENDBRANCH   2  26
TORSDOF 6
