REMARK  Name = 
REMARK  8 active torsions:
REMARK  status: ('A' for Active; 'I' for Inactive)
REMARK    1  A    between atoms: C_2  and  C_5
REMARK    2  A    between atoms: C_6  and  C_7
REMARK    3  A    between atoms: C_7  and  O_9
REMARK    4  A    between atoms: O_9  and  C_10
REMARK    5  A    between atoms: C_12  and  C_15
REMARK    6  A    between atoms: C_16  and  C_17
REMARK    7  A    between atoms: C_17  and  O_19
REMARK    8  A    between atoms: O_19  and  C_20
REMARK                            x       y       z     vdW  Elec       q    Type
REMARK                         _______ _______ _______ _____ _____    ______ ____
ROOT
ATOM      1 CA   UNL     1      -2.987  -0.346   0.000  0.00  0.00    +0.000 Ca
ENDROOT
TORSDOF 0
REMARK  Name = 
REMARK  8 active torsions:
REMARK  status: ('A' for Active; 'I' for Inactive)
REMARK    1  A    between atoms: C_2  and  C_5
REMARK    2  A    between atoms: C_6  and  C_7
REMARK    3  A    between atoms: C_7  and  O_9
REMARK    4  A    between atoms: O_9  and  C_10
REMARK    5  A    between atoms: C_12  and  C_15
REMARK    6  A    between atoms: C_16  and  C_17
REMARK    7  A    between atoms: C_17  and  O_19
REMARK    8  A    between atoms: O_19  and  C_20
REMARK                            x       y       z     vdW  Elec       q    Type
REMARK                         _______ _______ _______ _____ _____    ______ ____
ROOT
ATOM      1  C   UNL     1       1.348   2.746   0.000  0.00  0.00    +0.000 C 
ATOM      2  C   UNL     1       0.523   2.746   0.000  0.00  0.00    +0.000 C 
ENDROOT
BRANCH   1   3
ATOM      3  C   UNL     1       1.761   3.460   0.000  0.00  0.00    +0.000 C 
ATOM      4  O   UNL     1       2.586   3.460   0.000  0.00  0.00    +0.000 OA
ATOM      5  O   UNL     1       1.348   4.175   0.000  0.00  0.00    +0.000 OA
ENDBRANCH   1   3
BRANCH   2   6
ATOM      6  C   UNL     1       0.111   2.031   0.000  0.00  0.00    +0.000 C 
ATOM      7  O   UNL     1       0.523   1.317   0.000  0.00  0.00    +0.000 OA
BRANCH   6   8
ATOM      8  O   UNL     1      -0.714   2.031   0.000  0.00  0.00    +0.000 OA
BRANCH   8   9
ATOM      9  C   UNL     1      -1.127   1.317   0.000  0.00  0.00    +0.000 C 
ATOM     10  C   UNL     1      -0.714   0.602   0.000  0.00  0.00    +0.000 C 
ENDBRANCH   8   9
ENDBRANCH   6   8
ENDBRANCH   2   6
TORSDOF 4
REMARK  Name = 
REMARK  8 active torsions:
REMARK  status: ('A' for Active; 'I' for Inactive)
REMARK    1  A    between atoms: C_2  and  C_5
REMARK    2  A    between atoms: C_6  and  C_7
REMARK    3  A    between atoms: C_7  and  O_9
REMARK    4  A    between atoms: O_9  and  C_10
REMARK    5  A    between atoms: C_12  and  C_15
REMARK    6  A    between atoms: C_16  and  C_17
REMARK    7  A    between atoms: C_17  and  O_19
REMARK    8  A    between atoms: O_19  and  C_20
REMARK                            x       y       z     vdW  Elec       q    Type
REMARK                         _______ _______ _______ _____ _____    ______ ____
ROOT
ATOM      1  C   UNL     1       2.196  -0.424   0.000  0.00  0.00    +0.000 C 
ATOM      2  C   UNL     1       1.371  -0.424   0.000  0.00  0.00    +0.000 C 
ENDROOT
BRANCH   1   3
ATOM      3  C   UNL     1       2.609   0.290   0.000  0.00  0.00    +0.000 C 
ATOM      4  O   UNL     1       3.434   0.290   0.000  0.00  0.00    +0.000 OA
ATOM      5  O   UNL     1       2.196   1.005   0.000  0.00  0.00    +0.000 OA
ENDBRANCH   1   3
BRANCH   2   6
ATOM      6  C   UNL     1       0.959  -1.138   0.000  0.00  0.00    +0.000 C 
ATOM      7  O   UNL     1       1.371  -1.853   0.000  0.00  0.00    +0.000 OA
BRANCH   6   8
ATOM      8  O   UNL     1       0.134  -1.138   0.000  0.00  0.00    +0.000 OA
BRANCH   8   9
ATOM      9  C   UNL     1      -0.279  -1.853   0.000  0.00  0.00    +0.000 C 
ATOM     10  C   UNL     1       0.134  -2.567   0.000  0.00  0.00    +0.000 C 
ENDBRANCH   8   9
ENDBRANCH   6   8
ENDBRANCH   2   6
TORSDOF 4
