REMARK  Name = 
REMARK  1 active torsions:
REMARK  status: ('A' for Active; 'I' for Inactive)
REMARK    1  A    between atoms: C_1  and  C_2
REMARK                            x       y       z     vdW  Elec       q    Type
REMARK                         _______ _______ _______ _____ _____    ______ ____
ROOT
ATOM      1  C   UNL     1      -1.179  -0.364   0.000  0.00  0.00    +0.000 C 
ATOM      2  C   UNL     1      -1.893   0.048   0.000  0.00  0.00    +0.000 C 
ATOM      3  C   UNL     1      -1.893   0.873   0.000  0.00  0.00    +0.000 C 
ATOM      4  C   UNL     1      -1.179   1.286   0.000  0.00  0.00    +0.000 C 
ATOM      5  C   UNL     1      -0.464   0.873   0.000  0.00  0.00    +0.000 C 
ATOM      6  C   UNL     1      -0.464   0.048   0.000  0.00  0.00    +0.000 C 
ATOM      7  C   UNL     1      -1.566   2.014   0.000  0.00  0.00    +0.000 C 
ATOM      8  O   UNL     1      -0.791   2.014   0.000  0.00  0.00    +0.000 OA
ENDROOT
BRANCH   1   9
ATOM      9  C   UNL     1      -1.179  -1.189   0.000  0.00  0.00    +0.000 C 
ATOM     10  C   UNL     1      -1.179  -2.014   0.000  0.00  0.00    +0.000 C 
ATOM     11  C   UNL     1      -2.003  -1.189   0.000  0.00  0.00    +0.000 C 
ATOM     12  O   UNL     1      -0.353  -1.189   0.000  0.00  0.00    +0.000 OA
ENDBRANCH   1   9
TORSDOF 1
REMARK  Name = 
REMARK  1 active torsions:
REMARK  status: ('A' for Active; 'I' for Inactive)
REMARK    1  A    between atoms: C_1  and  C_2
REMARK                            x       y       z     vdW  Elec       q    Type
REMARK                         _______ _______ _______ _____ _____    ______ ____
ROOT
ATOM      1  O   HOH     1       2.003   0.101   0.000  0.00  0.00    +0.000 OA
ENDROOT
TORSDOF 0
