REMARK  Name = 
REMARK  8 active torsions:
REMARK  status: ('A' for Active; 'I' for Inactive)
REMARK    1  A    between atoms: C_1  and  C_2
REMARK    2  A    between atoms: C_2  and  O_5
REMARK    3  A    between atoms: O_5  and  C_10
REMARK    4  A    between atoms: C_10  and  C_12
REMARK    5  A    between atoms: C_12  and  C_13
REMARK    6  A    between atoms: C_12  and  C_14
REMARK    7  A    between atoms: C_13  and  C_15
REMARK    8  A    between atoms: C_15  and  C_17
REMARK                            x       y       z     vdW  Elec       q    Type
REMARK                         _______ _______ _______ _____ _____    ______ ____
ROOT
ATOM      1  C   UNL     1      -1.415   0.407   0.000  0.00  0.00    +0.000 C 
ATOM      2  O   UNL     1      -1.415   1.239   0.000  0.00  0.00    +0.000 OA
ENDROOT
BRANCH   1   3
ATOM      3  C   UNL     1      -2.132  -0.002   0.000  0.00  0.00    +0.000 A 
ATOM      4  C   UNL     1      -2.804   0.438   0.000  0.00  0.00    +0.000 A 
ATOM      5  C   UNL     1      -2.119  -0.819   0.000  0.00  0.00    +0.000 A 
ATOM      6  C   UNL     1      -3.560   0.005   0.000  0.00  0.00    +0.000 A 
ATOM      7  O   UNL     1      -2.804   1.187   0.000  0.00  0.00    +0.000 OA
ATOM      8  C   UNL     1      -2.884  -1.221   0.000  0.00  0.00    +0.000 A 
ATOM      9  C   UNL     1      -3.560  -0.819   0.000  0.00  0.00    +0.000 A 
ENDBRANCH   1   3
BRANCH   1  10
ATOM     10  O   UNL     1      -0.712  -0.019   0.000  0.00  0.00    +0.000 OA
BRANCH  10  11
ATOM     11  C   UNL     1       0.009   0.400   0.000  0.00  0.00    +0.000 C 
BRANCH  11  12
ATOM     12  C   UNL     1       0.698  -0.015   0.000  0.00  0.00    +0.000 C 
BRANCH  12  13
ATOM     13  C   UNL     1       0.698  -0.823   0.000  0.00  0.00    +0.000 C 
ATOM     14  C   UNL     1       1.415  -1.239   0.000  0.00  0.00    +0.000 C 
ENDBRANCH  12  13
BRANCH  12  15
ATOM     15  C   UNL     1       1.422   0.400   0.000  0.00  0.00    +0.000 C 
BRANCH  15  16
ATOM     16  C   UNL     1       2.126  -0.019   0.000  0.00  0.00    +0.000 C 
BRANCH  16  17
ATOM     17  C   UNL     1       2.843   0.400   0.000  0.00  0.00    +0.000 C 
ATOM     18  C   UNL     1       3.560  -0.033   0.000  0.00  0.00    +0.000 C 
ENDBRANCH  16  17
ENDBRANCH  15  16
ENDBRANCH  12  15
ENDBRANCH  11  12
ENDBRANCH  10  11
ENDBRANCH   1  10
TORSDOF 8
