REMARK  Name = 
REMARK  16 active torsions:
REMARK  status: ('A' for Active; 'I' for Inactive)
REMARK    1  A    between atoms: C_2  and  C_3
REMARK    2  A    between atoms: C_2  and  C_45
REMARK    3  A    between atoms: C_3  and  C_4
REMARK    4  A    between atoms: C_4  and  C_5
REMARK    5  A    between atoms: N_7  and  C_8
REMARK    6  A    between atoms: C_8  and  C_9
REMARK    7  A    between atoms: C_8  and  C_42
REMARK    8  A    between atoms: C_9  and  C_10
REMARK    9  A    between atoms: C_10  and  C_11
REMARK   10  A    between atoms: C_11  and  C_12
REMARK   11  A    between atoms: C_12  and  N_13
REMARK   12  A    between atoms: N_13  and  C_14
REMARK   13  A    between atoms: C_14  and  N_16
REMARK   14  A    between atoms: N_16  and  C_17
REMARK   15  A    between atoms: C_20  and  C_26
REMARK   16  A    between atoms: C_21  and  C_23
REMARK                            x       y       z     vdW  Elec       q    Type
REMARK                         _______ _______ _______ _____ _____    ______ ____
ROOT
ATOM      1  C   UNK A   1       0.009  -1.206   0.000  0.00  0.00    +0.000 C 
ENDROOT
BRANCH   1   2
ATOM      2  C   UNK A   1       0.009  -0.381   0.000  0.00  0.00    +0.000 C 
ATOM      3  O   UNK A   1       0.723   0.032   0.000  0.00  0.00    +0.000 OA
ATOM      4  O   UNK A   1      -0.706   0.032   0.000  0.00  0.00    +0.000 OA
ENDBRANCH   1   2
BRANCH   1   7
ATOM      5  C   UNK A   0      -1.420  -1.206   0.000  0.00  0.00    +0.000 C 
ATOM      6  O   UNK A   0      -1.420  -0.381   0.000  0.00  0.00    +0.000 OA
ATOM      7  N   UNK A   1      -0.706  -1.618   0.000  0.00  0.00    +0.000 NA
BRANCH   5   8
ATOM      8  C   UNK A   0      -2.135  -1.618   0.000  0.00  0.00    +0.000 C 
BRANCH   8   9
ATOM      9  C   UNK A   0      -2.849  -1.206   0.000  0.00  0.00    +0.000 C 
BRANCH   9  11
ATOM     10  C   UNK A   0      -3.563  -2.443   0.000  0.00  0.00    +0.000 C 
ATOM     11  C   UNK A   0      -3.563  -1.618   0.000  0.00  0.00    +0.000 C 
BRANCH  11  12
ATOM     12  C   UNK A   0      -4.278  -1.206   0.000  0.00  0.00    +0.000 C 
ATOM     13  C   UNK A   0      -4.364  -0.385   0.000  0.00  0.00    +0.000 C 
ATOM     14  C   UNK A   0      -5.171  -0.213   0.000  0.00  0.00    +0.000 C 
ATOM     15  C   UNK A   0      -5.584  -0.928   0.000  0.00  0.00    +0.000 C 
ATOM     16  C   UNK A   0      -5.032  -1.541   0.000  0.00  0.00    +0.000 C 
ATOM     17  C   UNK A   0      -5.287  -2.326   0.000  0.00  0.00    +0.000 C 
ATOM     18  C   UNK A   0      -6.093  -2.497   0.000  0.00  0.00    +0.000 C 
ATOM     19  C   UNK A   0      -6.646  -1.884   0.000  0.00  0.00    +0.000 C 
ATOM     20  C   UNK A   0      -6.391  -1.099   0.000  0.00  0.00    +0.000 C 
ATOM     21  C   UNK A   0      -6.943  -0.486   0.000  0.00  0.00    +0.000 C 
ATOM     22  C   UNK A   0      -7.750  -0.658   0.000  0.00  0.00    +0.000 C 
ATOM     23  C   UNK A   0      -8.005  -1.443   0.000  0.00  0.00    +0.000 C 
ATOM     24  C   UNK A   0      -7.452  -2.056   0.000  0.00  0.00    +0.000 C 
ATOM     25  C   UNK A   0      -7.707  -2.840   0.000  0.00  0.00    +0.000 C 
ATOM     26  C   UNK A   0      -8.514  -3.012   0.000  0.00  0.00    +0.000 C 
ATOM     27  C   UNK A   0      -9.066  -2.399   0.000  0.00  0.00    +0.000 C 
ATOM     28  C   UNK A   0      -8.812  -1.614   0.000  0.00  0.00    +0.000 C 
ATOM     29  O   UNK A   0      -9.873  -2.570   0.000  0.00  0.00    +0.000 OA
ATOM     30  C   UNK A   0      -6.901  -2.669   0.000  0.00  0.00    +0.000 C 
ATOM     31  O   UNK A   0      -6.688   0.298   0.000  0.00  0.00    +0.000 OA
ATOM     32  O   UNK A   0      -4.734  -2.939   0.000  0.00  0.00    +0.000 OA
ATOM     33  C   UNK A   0      -4.418  -2.093   0.000  0.00  0.00    +0.000 C 
ENDBRANCH  11  12
ENDBRANCH   9  11
ENDBRANCH   8   9
ENDBRANCH   5   8
ENDBRANCH   1   7
BRANCH   1  34
ATOM     34  C   UNK A   1       0.723  -1.618   0.000  0.00  0.00    +0.000 C 
BRANCH  34  35
ATOM     35  C   UNK A   1       1.438  -1.206   0.000  0.00  0.00    +0.000 C 
BRANCH  35  36
ATOM     36  C   UNK A   1       2.152  -1.618   0.000  0.00  0.00    +0.000 C 
BRANCH  36  37
ATOM     37  C   UNK A   1       2.867  -1.206   0.000  0.00  0.00    +0.000 C 
BRANCH  37  38
ATOM     38  N   UNK A   1       3.581  -1.618   0.000  0.00  0.00    +0.000 NA
BRANCH  38  39
ATOM     39  C   UNK A   1       4.296  -1.206   0.000  0.00  0.00    +0.000 C 
ATOM     40  S   UNK A   1       4.296  -0.381   0.000  0.00  0.00    +0.000 S 
BRANCH  39  41
ATOM     41  N   UNK A   1       5.010  -1.618   0.000  0.00  0.00    +0.000 NA
BRANCH  41  42
ATOM     42  C   UNK A   1       5.725  -1.206   0.000  0.00  0.00    +0.000 A 
ATOM     43  C   UNK A   1       5.725  -0.381   0.000  0.00  0.00    +0.000 A 
ATOM     44  C   UNK A   1       6.439   0.032   0.000  0.00  0.00    +0.000 A 
ATOM     45  C   UNK A   1       7.154  -0.381   0.000  0.00  0.00    +0.000 A 
ATOM     46  C   UNK A   1       7.154  -1.206   0.000  0.00  0.00    +0.000 A 
ATOM     47  C   UNK A   1       6.439  -1.618   0.000  0.00  0.00    +0.000 A 
BRANCH  45  48
ATOM     48  C   UNK A   1       7.868   0.032   0.000  0.00  0.00    +0.000 C 
ATOM     49  C   UNK A   1       8.582  -0.381   0.000  0.00  0.00    +0.000 A 
ATOM     50  C   UNK A   1       8.582  -1.206   0.000  0.00  0.00    +0.000 A 
ATOM     51  C   UNK A   1       9.297  -1.618   0.000  0.00  0.00    +0.000 A 
ATOM     52  C   UNK A   1      10.011  -1.206   0.000  0.00  0.00    +0.000 A 
ATOM     53  C   UNK A   1      10.011  -0.381   0.000  0.00  0.00    +0.000 A 
ATOM     54  C   UNK A   1       9.297   0.032   0.000  0.00  0.00    +0.000 A 
ATOM     55  O   UNK A   1       9.297   0.857   0.000  0.00  0.00    +0.000 OA
ATOM     56  C   UNK A   1       8.582   1.270   0.000  0.00  0.00    +0.000 A 
ATOM     57  C   UNK A   1       7.868   0.857   0.000  0.00  0.00    +0.000 A 
ATOM     58  C   UNK A   1       7.154   1.270   0.000  0.00  0.00    +0.000 A 
ATOM     59  C   UNK A   1       7.154   2.095   0.000  0.00  0.00    +0.000 A 
ATOM     60  C   UNK A   1       7.868   2.507   0.000  0.00  0.00    +0.000 A 
ATOM     61  C   UNK A   1       8.582   2.095   0.000  0.00  0.00    +0.000 A 
ATOM     62  O   UNK A   1       7.868   3.332   0.000  0.00  0.00    +0.000 OA
ATOM     63  O   UNK A   1      10.726  -1.618   0.000  0.00  0.00    +0.000 OA
ENDBRANCH  45  48
BRANCH  46  64
ATOM     64  C   UNK A   1       7.868  -1.618   0.000  0.00  0.00    +0.000 C 
ATOM     65  O   UNK A   1       7.868  -2.443   0.000  0.00  0.00    +0.000 OA
ATOM     66  O   UNK A   1       8.688  -1.704   0.000  0.00  0.00    +0.000 OA
ENDBRANCH  46  64
ENDBRANCH  41  42
ENDBRANCH  39  41
ENDBRANCH  38  39
ENDBRANCH  37  38
ENDBRANCH  36  37
ENDBRANCH  35  36
ENDBRANCH  34  35
ENDBRANCH   1  34
TORSDOF 16
