REMARK  Name = 
REMARK  17 active torsions:
REMARK  status: ('A' for Active; 'I' for Inactive)
REMARK    1  A    between atoms: C_2  and  O_3
REMARK    2  A    between atoms: O_3  and  C_4
REMARK    3  A    between atoms: C_4  and  C_6
REMARK    4  A    between atoms: C_6  and  C_7
REMARK    5  A    between atoms: C_6  and  C_42
REMARK    6  A    between atoms: C_6  and  C_48
REMARK    7  A    between atoms: C_7  and  O_8
REMARK    8  A    between atoms: O_8  and  C_9
REMARK    9  A    between atoms: C_9  and  C_11
REMARK   10  A    between atoms: C_11  and  C_12
REMARK   11  A    between atoms: C_15  and  N_23
REMARK   12  A    between atoms: C_16  and  C_18
REMARK   13  A    between atoms: C_24  and  C_26
REMARK   14  A    between atoms: C_31  and  C_32
REMARK   15  A    between atoms: C_35  and  C_38
REMARK   16  A    between atoms: C_48  and  O_50
REMARK   17  A    between atoms: O_50  and  C_51
REMARK                            x       y       z     vdW  Elec       q    Type
REMARK                         _______ _______ _______ _____ _____    ______ ____
ROOT
ATOM      1  C   UNL     1      -3.410  -1.841   0.000  0.00  0.00    +0.000 A 
ATOM      2  C   UNL     1      -2.696  -2.254   0.000  0.00  0.00    +0.000 A 
ATOM      3  C   UNL     1      -2.696  -3.079   0.000  0.00  0.00    +0.000 A 
ATOM      4  C   UNL     1      -3.410  -3.491   0.000  0.00  0.00    +0.000 A 
ATOM      5  C   UNL     1      -4.125  -3.079   0.000  0.00  0.00    +0.000 A 
ATOM      6  C   UNL     1      -4.125  -2.254   0.000  0.00  0.00    +0.000 A 
ENDROOT
BRANCH   5   7
ATOM      7  C   UNL     1      -4.840  -3.491   0.000  0.00  0.00    +0.000 C 
ATOM      8  O   UNL     1      -5.554  -3.079   0.000  0.00  0.00    +0.000 OA
ATOM      9  N   UNL     1      -4.840  -4.316   0.000  0.00  0.00    +0.000 N 
ATOM     10  C   UNL     1      -4.125  -4.729   0.000  0.00  0.00    +0.000 C 
ATOM     11  C   UNL     1      -5.554  -4.729   0.000  0.00  0.00    +0.000 C 
ENDBRANCH   5   7
BRANCH   4  12
ATOM     12  N   UNL     1      -3.410  -4.316   0.000  0.00  0.00    +0.000 NA
ATOM     13  C   UNL     1      -2.696  -4.729   0.000  0.00  0.00    +0.000 C 
ATOM     14  O   UNL     1      -2.696  -5.554   0.000  0.00  0.00    +0.000 OA
BRANCH  13  15
ATOM     15  C   UNL     1      -1.982  -4.316   0.000  0.00  0.00    +0.000 A 
ATOM     16  C   UNL     1      -1.982  -3.491   0.000  0.00  0.00    +0.000 A 
ATOM     17  C   UNL     1      -1.267  -3.079   0.000  0.00  0.00    +0.000 A 
ATOM     18  C   UNL     1      -0.553  -3.491   0.000  0.00  0.00    +0.000 A 
ATOM     19  C   UNL     1      -0.553  -4.316   0.000  0.00  0.00    +0.000 A 
ATOM     20  C   UNL     1      -1.267  -4.729   0.000  0.00  0.00    +0.000 A 
BRANCH  20  21
ATOM     21  C   UNL     1      -1.267  -5.554   0.000  0.00  0.00    +0.000 A 
ATOM     22  C   UNL     1      -0.553  -5.966   0.000  0.00  0.00    +0.000 A 
ATOM     23  C   UNL     1      -0.553  -6.791   0.000  0.00  0.00    +0.000 A 
ATOM     24  C   UNL     1      -1.267  -7.204   0.000  0.00  0.00    +0.000 A 
ATOM     25  C   UNL     1      -1.982  -6.791   0.000  0.00  0.00    +0.000 A 
ATOM     26  C   UNL     1      -1.982  -5.966   0.000  0.00  0.00    +0.000 A 
BRANCH  24  27
ATOM     27  C   UNL     1      -1.267  -8.029   0.000  0.00  0.00    +0.000 C 
ATOM     28  F   UNL     1      -1.267  -8.854   0.000  0.00  0.00    +0.000 F 
ATOM     29  F   UNL     1      -2.092  -8.029   0.000  0.00  0.00    +0.000 F 
ATOM     30  F   UNL     1      -0.442  -8.029   0.000  0.00  0.00    +0.000 F 
ENDBRANCH  24  27
ENDBRANCH  20  21
ENDBRANCH  13  15
ENDBRANCH   4  12
BRANCH   1  31
ATOM     31  C   UNL     1      -3.410  -1.016   0.000  0.00  0.00    +0.000 C 
BRANCH  31  32
ATOM     32  C   UNL     1      -4.125  -0.604   0.000  0.00  0.00    +0.000 C 
ATOM     33  O   UNL     1      -4.840  -1.016   0.000  0.00  0.00    +0.000 OA
BRANCH  32  34
ATOM     34  O   UNL     1      -4.125   0.221   0.000  0.00  0.00    +0.000 OA
BRANCH  34  35
ATOM     35  C   UNL     1      -4.840   0.634   0.000  0.00  0.00    +0.000 C 
BRANCH  35  36
ATOM     36  C   UNL     1      -4.840   1.459   0.000  0.00  0.00    +0.000 C 
BRANCH  36  37
ATOM     37  C   UNL     1      -5.665   1.459   0.000  0.00  0.00    +0.000 A 
ATOM     38  C   UNL     1      -6.077   0.744   0.000  0.00  0.00    +0.000 A 
ATOM     39  C   UNL     1      -6.902   0.744   0.000  0.00  0.00    +0.000 A 
ATOM     40  C   UNL     1      -7.314   1.459   0.000  0.00  0.00    +0.000 A 
ATOM     41  C   UNL     1      -6.902   2.173   0.000  0.00  0.00    +0.000 A 
ATOM     42  C   UNL     1      -6.077   2.173   0.000  0.00  0.00    +0.000 A 
ENDBRANCH  36  37
BRANCH  36  43
ATOM     43  C   UNL     1      -4.014   1.459   0.000  0.00  0.00    +0.000 C 
ATOM     44  O   UNL     1      -3.602   0.744   0.000  0.00  0.00    +0.000 OA
BRANCH  43  45
ATOM     45  O   UNL     1      -3.602   2.173   0.000  0.00  0.00    +0.000 OA
BRANCH  45  46
ATOM     46  C   UNL     1      -2.777   2.173   0.000  0.00  0.00    +0.000 C 
ATOM     47  C   UNL     1      -2.365   1.459   0.000  0.00  0.00    +0.000 C 
ENDBRANCH  45  46
ENDBRANCH  43  45
ENDBRANCH  36  43
BRANCH  36  48
ATOM     48  C   UNL     1      -4.840   2.284   0.000  0.00  0.00    +0.000 C 
ATOM     49  O   UNL     1      -4.125   2.696   0.000  0.00  0.00    +0.000 OA
BRANCH  48  50
ATOM     50  O   UNL     1      -5.554   2.696   0.000  0.00  0.00    +0.000 OA
BRANCH  50  52
ATOM     51  C   UNL     1      -6.268   3.934   0.000  0.00  0.00    +0.000 C 
ATOM     52  C   UNL     1      -5.554   3.521   0.000  0.00  0.00    +0.000 C 
ENDBRANCH  50  52
ENDBRANCH  48  50
ENDBRANCH  36  48
ENDBRANCH  35  36
ENDBRANCH  34  35
ENDBRANCH  32  34
ENDBRANCH  31  32
ENDBRANCH   1  31
TORSDOF 17
