REMARK  Name = 
REMARK  8 active torsions:
REMARK  status: ('A' for Active; 'I' for Inactive)
REMARK    1  A    between atoms: C_1  and  O_4
REMARK    2  A    between atoms: O_4  and  C_7
REMARK    3  A    between atoms: C_7  and  C_9
REMARK    4  A    between atoms: C_8  and  C_10
REMARK    5  A    between atoms: C_9  and  C_11
REMARK    6  A    between atoms: C_10  and  C_13
REMARK    7  A    between atoms: C_11  and  N_14
REMARK    8  A    between atoms: N_14  and  C_17
REMARK                            x       y       z     vdW  Elec       q    Type
REMARK                         _______ _______ _______ _____ _____    ______ ____
ROOT
ATOM      1  C   UNL     1      -0.714  -0.014   0.000  0.00  0.00    +0.000 A 
ATOM      2  C   UNL     1      -1.424  -0.432   0.000  0.00  0.00    +0.000 A 
ATOM      3  C   UNL     1      -0.724   0.810   0.000  0.00  0.00    +0.000 A 
ATOM      4  C   UNL     1      -2.186  -0.031   0.000  0.00  0.00    +0.000 A 
ATOM      5  C   UNL     1      -1.445   1.218   0.000  0.00  0.00    +0.000 A 
ATOM      6  C   UNL     1      -2.152   0.796   0.000  0.00  0.00    +0.000 A 
ENDROOT
BRANCH   1   7
ATOM      7  O   UNL     1       0.007  -0.412   0.000  0.00  0.00    +0.000 OA
BRANCH   7   8
ATOM      8  C   UNL     1       0.717   0.007   0.000  0.00  0.00    +0.000 C 
BRANCH   8   9
ATOM      9  C   UNL     1       1.438  -0.395   0.000  0.00  0.00    +0.000 C 
ATOM     10  O   UNL     1       1.448  -1.218   0.000  0.00  0.00    +0.000 OA
BRANCH   9  11
ATOM     11  C   UNL     1       2.148   0.024   0.000  0.00  0.00    +0.000 C 
BRANCH  11  12
ATOM     12  N   UNL     1       2.862  -0.378   0.000  0.00  0.00    +0.000 NA
BRANCH  12  13
ATOM     13  C   UNL     1       3.573   0.045   0.000  0.00  0.00    +0.000 C 
ATOM     14  C   UNL     1       4.293  -0.357   0.000  0.00  0.00    +0.000 C 
ATOM     15  C   UNL     1       3.563   0.868   0.000  0.00  0.00    +0.000 C 
ENDBRANCH  12  13
ENDBRANCH  11  12
ENDBRANCH   9  11
ENDBRANCH   8   9
ENDBRANCH   7   8
ENDBRANCH   1   7
BRANCH   6  16
ATOM     16  C   UNL     1      -2.866   1.212   0.000  0.00  0.00    +0.000 C 
BRANCH  16  17
ATOM     17  C   UNL     1      -3.580   0.796   0.000  0.00  0.00    +0.000 C 
ATOM     18  N   UNL     1      -4.293   1.212   0.000  0.00  0.00    +0.000 NA
ATOM     19  O   UNL     1      -3.580  -0.031   0.000  0.00  0.00    +0.000 OA
ENDBRANCH  16  17
ENDBRANCH   6  16
TORSDOF 8
