REMARK  Name = 
REMARK  26 active torsions:
REMARK  status: ('A' for Active; 'I' for Inactive)
REMARK    1  A    between atoms: N_1  and  C_19
REMARK    2  A    between atoms: N_2  and  C_20
REMARK    3  A    between atoms: C_5  and  C_28
REMARK    4  A    between atoms: C_6  and  C_27
REMARK    5  A    between atoms: C_11  and  O_46
REMARK    6  A    between atoms: C_12  and  O_45
REMARK    7  A    between atoms: C_15  and  O_48
REMARK    8  A    between atoms: C_16  and  O_47
REMARK    9  A    between atoms: C_17  and  C_19
REMARK   10  A    between atoms: C_17  and  C_21
REMARK   11  A    between atoms: C_18  and  C_20
REMARK   12  A    between atoms: C_18  and  C_22
REMARK   13  A    between atoms: C_21  and  O_52
REMARK   14  A    between atoms: C_22  and  O_51
REMARK   15  A    between atoms: C_23  and  O_49
REMARK   16  A    between atoms: C_24  and  O_50
REMARK   17  A    between atoms: C_27  and  C_35
REMARK   18  A    between atoms: C_28  and  C_36
REMARK   19  A    between atoms: C_29  and  O_53
REMARK   20  A    between atoms: C_30  and  O_54
REMARK   21  A    between atoms: O_51  and  C_55
REMARK   22  A    between atoms: O_52  and  C_56
REMARK   23  A    between atoms: C_55  and  C_66
REMARK   24  A    between atoms: C_56  and  C_65
REMARK   25  A    between atoms: C_65  and  C_67
REMARK   26  A    between atoms: C_66  and  C_67
REMARK                            x       y       z     vdW  Elec       q    Type
REMARK                         _______ _______ _______ _____ _____    ______ ____
ROOT
ATOM      1  C   UNL     1       0.022   0.465   0.000  0.00  0.00    +0.000 C 
ENDROOT
BRANCH   1   2
ATOM      2  C   UNL     1       0.708   0.781   0.000  0.00  0.00    +0.000 C 
BRANCH   2   3
ATOM      3  C   UNL     1       1.452   0.465   0.000  0.00  0.00    +0.000 C 
BRANCH   3   4
ATOM      4  O   UNL     1       2.148   0.869   0.000  0.00  0.00    +0.000 OA
BRANCH   4   5
ATOM      5  C   UNL     1       2.776   0.465   0.000  0.00  0.00    +0.000 C 
ATOM      6  O   UNL     1       2.776  -0.314   0.000  0.00  0.00    +0.000 OA
BRANCH   5   7
ATOM      7  C   UNL     1       3.438   0.800   0.000  0.00  0.00    +0.000 C 
BRANCH   7   8
ATOM      8  C   UNL     1       4.104   0.465   0.000  0.00  0.00    +0.000 C 
BRANCH   8   9
ATOM      9  N   UNL     1       4.805   0.883   0.000  0.00  0.00    +0.000 N 
ATOM     10  C   UNL     1       6.211   0.883   0.000  0.00  0.00    +0.000 A 
ATOM     11  C   UNL     1       5.491   0.465   0.000  0.00  0.00    +0.000 C 
ATOM     12  C   UNL     1       6.211   1.715   0.000  0.00  0.00    +0.000 A 
ATOM     13  C   UNL     1       6.922   0.465   0.000  0.00  0.00    +0.000 A 
ATOM     14  C   UNL     1       7.652   0.883   0.000  0.00  0.00    +0.000 A 
ATOM     15  C   UNL     1       6.922   2.124   0.000  0.00  0.00    +0.000 A 
ATOM     16  C   UNL     1       7.652   1.715   0.000  0.00  0.00    +0.000 A 
ATOM     17  C   UNL     1       4.805   1.715   0.000  0.00  0.00    +0.000 C 
ATOM     18  C   UNL     1       5.491   2.124   0.000  0.00  0.00    +0.000 C 
ATOM     19  C   UNL     1       4.080   1.574   0.000  0.00  0.00    +0.000 C 
BRANCH  14  20
ATOM     20  O   UNL     1       8.474   0.431   0.000  0.00  0.00    +0.000 OA
ATOM     21  C   UNL     1       9.131   0.781   0.000  0.00  0.00    +0.000 C 
ENDBRANCH  14  20
BRANCH  16  22
ATOM     22  O   UNL     1       8.328   2.124   0.000  0.00  0.00    +0.000 OA
ATOM     23  C   UNL     1       9.024   1.715   0.000  0.00  0.00    +0.000 C 
ENDBRANCH  16  22
BRANCH  11  24
ATOM     24  C   UNL     1       5.491  -0.460   0.000  0.00  0.00    +0.000 C 
BRANCH  24  28
ATOM     25  C   UNL     1       7.700  -0.795   0.000  0.00  0.00    +0.000 A 
ATOM     26  C   UNL     1       7.700  -1.637   0.000  0.00  0.00    +0.000 A 
ATOM     27  C   UNL     1       7.014  -0.382   0.000  0.00  0.00    +0.000 A 
ATOM     28  C   UNL     1       6.285  -0.795   0.000  0.00  0.00    +0.000 A 
ATOM     29  C   UNL     1       7.014  -2.066   0.000  0.00  0.00    +0.000 A 
ATOM     30  C   UNL     1       6.285  -1.637   0.000  0.00  0.00    +0.000 A 
BRANCH  25  31
ATOM     31  O   UNL     1       8.401  -0.358   0.000  0.00  0.00    +0.000 OA
ATOM     32  C   UNL     1       9.112  -0.766   0.000  0.00  0.00    +0.000 C 
ENDBRANCH  25  31
BRANCH  26  33
ATOM     33  O   UNL     1       8.518  -2.090   0.000  0.00  0.00    +0.000 OA
ATOM     34  C   UNL     1       9.277  -1.637   0.000  0.00  0.00    +0.000 C 
ENDBRANCH  26  33
ENDBRANCH  24  28
ENDBRANCH  11  24
ENDBRANCH   8   9
ENDBRANCH   7   8
ENDBRANCH   5   7
ENDBRANCH   4   5
ENDBRANCH   3   4
ENDBRANCH   2   3
ENDBRANCH   1   2
BRANCH   1  35
ATOM     35  C   UNL     1      -0.752   0.781   0.000  0.00  0.00    +0.000 C 
BRANCH  35  36
ATOM     36  C   UNL     1      -1.452   0.465   0.000  0.00  0.00    +0.000 C 
BRANCH  36  37
ATOM     37  O   UNL     1      -2.182   0.781   0.000  0.00  0.00    +0.000 OA
BRANCH  37  38
ATOM     38  C   UNL     1      -2.869   0.392   0.000  0.00  0.00    +0.000 C 
ATOM     39  O   UNL     1      -2.869  -0.382   0.000  0.00  0.00    +0.000 OA
BRANCH  38  40
ATOM     40  C   UNL     1      -3.569   0.781   0.000  0.00  0.00    +0.000 C 
BRANCH  40  41
ATOM     41  C   UNL     1      -4.299   0.392   0.000  0.00  0.00    +0.000 C 
BRANCH  41  42
ATOM     42  N   UNL     1      -4.985   0.781   0.000  0.00  0.00    +0.000 N 
ATOM     43  C   UNL     1      -6.401   0.781   0.000  0.00  0.00    +0.000 A 
ATOM     44  C   UNL     1      -5.691   0.392   0.000  0.00  0.00    +0.000 C 
ATOM     45  C   UNL     1      -6.401   1.642   0.000  0.00  0.00    +0.000 A 
ATOM     46  C   UNL     1      -7.117   0.392   0.000  0.00  0.00    +0.000 A 
ATOM     47  C   UNL     1      -7.846   0.781   0.000  0.00  0.00    +0.000 A 
ATOM     48  C   UNL     1      -7.117   2.027   0.000  0.00  0.00    +0.000 A 
ATOM     49  C   UNL     1      -7.846   1.642   0.000  0.00  0.00    +0.000 A 
ATOM     50  C   UNL     1      -4.985   1.642   0.000  0.00  0.00    +0.000 C 
ATOM     51  C   UNL     1      -5.691   2.027   0.000  0.00  0.00    +0.000 C 
ATOM     52  C   UNL     1      -4.036   1.657   0.000  0.00  0.00    +0.000 C 
BRANCH  47  53
ATOM     53  O   UNL     1      -8.537   0.392   0.000  0.00  0.00    +0.000 OA
ATOM     54  C   UNL     1      -9.277   0.766   0.000  0.00  0.00    +0.000 C 
ENDBRANCH  47  53
BRANCH  49  55
ATOM     55  O   UNL     1      -8.537   2.027   0.000  0.00  0.00    +0.000 OA
ATOM     56  C   UNL     1      -9.248   1.657   0.000  0.00  0.00    +0.000 C 
ENDBRANCH  49  55
BRANCH  44  57
ATOM     57  C   UNL     1      -5.691  -0.445   0.000  0.00  0.00    +0.000 C 
BRANCH  57  61
ATOM     58  C   UNL     1      -7.832  -0.834   0.000  0.00  0.00    +0.000 A 
ATOM     59  C   UNL     1      -7.832  -1.686   0.000  0.00  0.00    +0.000 A 
ATOM     60  C   UNL     1      -7.117  -0.460   0.000  0.00  0.00    +0.000 A 
ATOM     61  C   UNL     1      -6.387  -0.834   0.000  0.00  0.00    +0.000 A 
ATOM     62  C   UNL     1      -7.117  -2.124   0.000  0.00  0.00    +0.000 A 
ATOM     63  C   UNL     1      -6.387  -1.686   0.000  0.00  0.00    +0.000 A 
BRANCH  59  64
ATOM     64  O   UNL     1      -8.518  -2.066   0.000  0.00  0.00    +0.000 OA
ATOM     65  C   UNL     1      -9.238  -1.686   0.000  0.00  0.00    +0.000 C 
ENDBRANCH  59  64
BRANCH  58  66
ATOM     66  O   UNL     1      -8.518  -0.382   0.000  0.00  0.00    +0.000 OA
ATOM     67  C   UNL     1      -9.248  -0.766   0.000  0.00  0.00    +0.000 C 
ENDBRANCH  58  66
ENDBRANCH  57  61
ENDBRANCH  44  57
ENDBRANCH  41  42
ENDBRANCH  40  41
ENDBRANCH  38  40
ENDBRANCH  37  38
ENDBRANCH  36  37
ENDBRANCH  35  36
ENDBRANCH   1  35
TORSDOF 26
