REMARK  Name = 
REMARK  6 active torsions:
REMARK  status: ('A' for Active; 'I' for Inactive)
REMARK    1  A    between atoms: C_2  and  N_14
REMARK    2  A    between atoms: C_5  and  C_7
REMARK    3  A    between atoms: C_7  and  C_8
REMARK    4  A    between atoms: C_8  and  C_9
REMARK    5  A    between atoms: C_10  and  C_11
REMARK    6  A    between atoms: C_12  and  C_13
REMARK                            x       y       z     vdW  Elec       q    Type
REMARK                         _______ _______ _______ _____ _____    ______ ____
ROOT
ATOM      1  C   UNL     1      -1.069   0.823   0.000  0.00  0.00    +0.000 C 
ATOM      2  O   UNL     1      -1.071   1.649   0.000  0.00  0.00    +0.000 OA
ENDROOT
BRANCH   1   7
ATOM      3  C   UNL     1      -3.210   0.405   0.000  0.00  0.00    +0.000 A 
ATOM      4  C   UNL     1      -3.211  -0.423   0.000  0.00  0.00    +0.000 A 
ATOM      5  C   UNL     1      -2.495  -0.836   0.000  0.00  0.00    +0.000 A 
ATOM      6  C   UNL     1      -1.778  -0.422   0.000  0.00  0.00    +0.000 A 
ATOM      7  C   UNL     1      -1.781   0.409   0.000  0.00  0.00    +0.000 A 
ATOM      8  C   UNL     1      -2.497   0.819   0.000  0.00  0.00    +0.000 A 
BRANCH   4   9
ATOM      9  N   UNL     1      -3.927  -0.835   0.000  0.00  0.00    +0.000 N 
ATOM     10  C   UNL     1      -4.642  -0.422   0.000  0.00  0.00    +0.000 C 
ATOM     11  C   UNL     1      -3.927  -1.661   0.000  0.00  0.00    +0.000 C 
ENDBRANCH   4   9
ENDBRANCH   1   7
BRANCH   1  12
ATOM     12  C   UNL     1      -0.355   0.414   0.000  0.00  0.00    +0.000 C 
ATOM     13  C   UNL     1      -0.354  -0.412   0.000  0.00  0.00    +0.000 C 
BRANCH  12  14
ATOM     14  C   UNL     1       0.358   0.827   0.000  0.00  0.00    +0.000 C 
ATOM     15  C   UNL     1       1.071   0.418   0.000  0.00  0.00    +0.000 C 
ATOM     16  C   UNL     1       1.073  -0.408   0.000  0.00  0.00    +0.000 C 
BRANCH  15  17
ATOM     17  C   UNL     1       1.784   0.831   0.000  0.00  0.00    +0.000 C 
ATOM     18  C   UNL     1       2.498   0.422   0.000  0.00  0.00    +0.000 C 
BRANCH  18  19
ATOM     19  C   UNL     1       3.211   0.835   0.000  0.00  0.00    +0.000 C 
ATOM     20  N   UNL     1       3.927   0.423   0.000  0.00  0.00    +0.000 NA
ATOM     21  O   UNL     1       3.210   1.661   0.000  0.00  0.00    +0.000 OA
ATOM     22  O   UNL     1       4.642   0.837   0.000  0.00  0.00    +0.000 OA
ENDBRANCH  18  19
ENDBRANCH  15  17
ENDBRANCH  12  14
ENDBRANCH   1  12
TORSDOF 6
