REMARK  Name = 
REMARK  2 active torsions:
REMARK  status: ('A' for Active; 'I' for Inactive)
REMARK    1  A    between atoms: CA_8  and  CB_11
REMARK    2  A    between atoms: CB_11  and  CG_12
REMARK                            x       y       z     vdW  Elec       q    Type
REMARK                         _______ _______ _______ _____ _____    ______ ____
ROOT
ATOM      1  O   HIS A   2       0.733  -1.650   0.000  0.00  0.00    +0.000 OA
ATOM      2  O   PRO A   1       0.733   1.650   0.000  0.00  0.00    +0.000 OA
ATOM      3  N   PRO A   1       1.447  -0.412   0.000  0.00  0.00    +0.000 N 
ATOM      4  N   HIS A   2       0.018   0.412   0.000  0.00  0.00    +0.000 NA
ATOM      5  CA  PRO A   1       1.447   0.412   0.000  0.00  0.00    +0.000 C 
ATOM      6  CA  HIS A   2       0.018  -0.412   0.000  0.00  0.00    +0.000 C 
ATOM      7  C   HIS A   2       0.733  -0.825   0.000  0.00  0.00    +0.000 C 
ATOM      8  C   PRO A   1       0.733   0.825   0.000  0.00  0.00    +0.000 C 
ATOM      9  CD  PRO A   1       2.232  -0.667   0.000  0.00  0.00    +0.000 C 
ATOM     10  CG  PRO A   1       2.716   0.000   0.000  0.00  0.00    +0.000 C 
ATOM     11  CB  PRO A   1       2.232   0.667   0.000  0.00  0.00    +0.000 C 
ENDROOT
BRANCH   6  12
ATOM     12  CB  HIS A   2      -0.696  -0.825   0.000  0.00  0.00    +0.000 C 
BRANCH  12  15
ATOM     13  ND1 HIS A   2      -2.165  -0.748   0.000  0.00  0.00    +0.000 NA
ATOM     14  NE2 HIS A   2      -2.304   0.580   0.000  0.00  0.00    +0.000 NA
ATOM     15  CG  HIS A   2      -1.411  -0.412   0.000  0.00  0.00    +0.000 A 
ATOM     16  CD2 HIS A   2      -1.497   0.408   0.000  0.00  0.00    +0.000 A 
ATOM     17  CE1 HIS A   2      -2.716  -0.135   0.000  0.00  0.00    +0.000 A 
ENDBRANCH  12  15
ENDBRANCH   6  12
TORSDOF 2
