REMARK  Name = 
REMARK  2 active torsions:
REMARK  status: ('A' for Active; 'I' for Inactive)
REMARK    1  A    between atoms: C_9  and  C_10
REMARK    2  A    between atoms: C_10  and  C_12
REMARK                            x       y       z     vdW  Elec       q    Type
REMARK                         _______ _______ _______ _____ _____    ______ ____
ROOT
ATOM      1  O   UNL     1       1.415  -1.408   0.000  0.00  0.00    +0.000 OA
ATOM      2  N   UNL     1      -0.028  -0.555   0.000  0.00  0.00    +0.000 NA
ATOM      3  N   UNL     1      -0.028   1.095   0.000  0.00  0.00    +0.000 NA
ATOM      4  N   UNL     1       1.424   1.124   0.000  0.00  0.00    +0.000 NA
ATOM      5  N   UNL     1       2.172  -0.159   0.000  0.00  0.00    +0.000 NA
ATOM      6  N   UNL     1       2.885   1.115   0.000  0.00  0.00    +0.000 NA
ATOM      7  C   UNL     1      -0.742  -0.142   0.000  0.00  0.00    +0.000 C 
ATOM      8  C   UNL     1      -0.742   0.683   0.000  0.00  0.00    +0.000 C 
ATOM      9  C   UNL     1       0.687  -0.142   0.000  0.00  0.00    +0.000 A 
ATOM     10  C   UNL     1       0.687   0.683   0.000  0.00  0.00    +0.000 A 
ATOM     11  C   UNL     1       1.424  -0.583   0.000  0.00  0.00    +0.000 A 
ATOM     12  C   UNL     1       2.172   0.700   0.000  0.00  0.00    +0.000 A 
ENDROOT
BRANCH   7  14
ATOM     13  O   UNL     1      -1.457  -1.380   0.000  0.00  0.00    +0.000 OA
ATOM     14  C   UNL     1      -1.457  -0.555   0.000  0.00  0.00    +0.000 C 
BRANCH  14  16
ATOM     15  O   UNL     1      -2.886  -0.555   0.000  0.00  0.00    +0.000 OA
ATOM     16  C   UNL     1      -2.171  -0.142   0.000  0.00  0.00    +0.000 C 
ATOM     17  C   UNL     1      -2.171   0.683   0.000  0.00  0.00    +0.000 C 
ENDBRANCH  14  16
ENDBRANCH   7  14
TORSDOF 2
