REMARK  Name = 
REMARK  4 active torsions:
REMARK  status: ('A' for Active; 'I' for Inactive)
REMARK    1  A    between atoms: C_1  and  C_8
REMARK    2  A    between atoms: C_8  and  C_13
REMARK    3  A    between atoms: C_9  and  C_10
REMARK    4  A    between atoms: C_9  and  C_12
REMARK                            x       y       z     vdW  Elec       q    Type
REMARK                         _______ _______ _______ _____ _____    ______ ____
ROOT
ATOM      1  C   UNL     1       0.000   0.412   0.000  0.00  0.00    +0.000 C 
ATOM      2  C   UNL     1       0.000  -0.412   0.000  0.00  0.00    +0.000 C 
ENDROOT
BRANCH   1   3
ATOM      3  C   UNL     1       0.714   0.825   0.000  0.00  0.00    +0.000 A 
ATOM      4  C   UNL     1       1.429   0.413   0.000  0.00  0.00    +0.000 A 
ATOM      5  C   UNL     1       0.714   1.650   0.000  0.00  0.00    +0.000 A 
ATOM      6  C   UNL     1       1.429   2.063   0.000  0.00  0.00    +0.000 A 
ATOM      7  C   UNL     1       2.143   0.825   0.000  0.00  0.00    +0.000 A 
ATOM      8  C   UNL     1       2.143   1.650   0.000  0.00  0.00    +0.000 A 
ATOM      9  O   UNL     1       2.858   2.063   0.000  0.00  0.00    +0.000 OA
ENDBRANCH   1   3
BRANCH   2  10
ATOM     10  C   UNL     1      -0.714  -0.825   0.000  0.00  0.00    +0.000 A 
ATOM     11  C   UNL     1      -2.143  -1.650   0.000  0.00  0.00    +0.000 A 
ATOM     12  C   UNL     1      -1.429  -2.063   0.000  0.00  0.00    +0.000 A 
ATOM     13  C   UNL     1      -2.143  -0.825   0.000  0.00  0.00    +0.000 A 
ATOM     14  C   UNL     1      -1.429  -0.413   0.000  0.00  0.00    +0.000 A 
ATOM     15  C   UNL     1      -0.714  -1.650   0.000  0.00  0.00    +0.000 A 
ATOM     16  O   UNL     1      -2.858  -2.063   0.000  0.00  0.00    +0.000 OA
ENDBRANCH   2  10
BRANCH   2  17
ATOM     17  C   UNL     1       0.715  -0.825   0.000  0.00  0.00    +0.000 C 
ATOM     18  C   UNL     1       1.429  -0.412   0.000  0.00  0.00    +0.000 C 
ENDBRANCH   2  17
BRANCH   1  19
ATOM     19  C   UNL     1      -0.715   0.825   0.000  0.00  0.00    +0.000 C 
ATOM     20  C   UNL     1      -1.429   0.412   0.000  0.00  0.00    +0.000 C 
ENDBRANCH   1  19
TORSDOF 4
