REMARK  Name = 
REMARK  0 active torsions:
REMARK  status: ('A' for Active; 'I' for Inactive)
REMARK                            x       y       z     vdW  Elec       q    Type
REMARK                         _______ _______ _______ _____ _____    ______ ____
ROOT
ATOM      1  C   UNL     1      -2.501  -0.412   0.000  0.00  0.00    +0.000 A 
ATOM      2  C   UNL     1      -1.072  -0.412   0.000  0.00  0.00    +0.000 A 
ATOM      3  C   UNL     1      -1.072   0.412   0.000  0.00  0.00    +0.000 A 
ATOM      4  C   UNL     1      -0.357   0.825   0.000  0.00  0.00    +0.000 C 
ATOM      5  O   UNL     1      -0.357   1.650   0.000  0.00  0.00    +0.000 OA
ATOM      6  C   UNL     1       0.357   0.412   0.000  0.00  0.00    +0.000 A 
ATOM      7  C   UNL     1       0.357  -0.412   0.000  0.00  0.00    +0.000 A 
ATOM      8  C   UNL     1      -0.357  -0.825   0.000  0.00  0.00    +0.000 C 
ATOM      9  O   UNL     1      -0.357  -1.650   0.000  0.00  0.00    +0.000 OA
ATOM     10  C   UNL     1       1.786  -0.412   0.000  0.00  0.00    +0.000 A 
ATOM     11  C   UNL     1      -2.501   0.412   0.000  0.00  0.00    +0.000 A 
ATOM     12  C   UNL     1       1.072   0.825   0.000  0.00  0.00    +0.000 A 
ATOM     13  O   UNL     1       1.072   1.650   0.000  0.00  0.00    +0.000 OA
ATOM     14  C   UNL     1       1.072  -0.825   0.000  0.00  0.00    +0.000 A 
ATOM     15  C   UNL     1      -1.786  -0.825   0.000  0.00  0.00    +0.000 A 
ATOM     16  O   UNL     1      -1.786  -1.650   0.000  0.00  0.00    +0.000 OA
ATOM     17  C   UNL     1       1.786   0.412   0.000  0.00  0.00    +0.000 A 
ATOM     18  O   UNL     1       2.501   0.825   0.000  0.00  0.00    +0.000 OA
ATOM     19  C   UNL     1      -1.786   0.825   0.000  0.00  0.00    +0.000 A 
ATOM     20  O   UNL     1      -1.786   1.650   0.000  0.00  0.00    +0.000 OA
ENDROOT
TORSDOF 0
