REMARK  Name = 
REMARK  4 active torsions:
REMARK  status: ('A' for Active; 'I' for Inactive)
REMARK    1  A    between atoms: S_1  and  O_2
REMARK    2  A    between atoms: O_2  and  C_12
REMARK    3  A    between atoms: C_7  and  C_8
REMARK    4  A    between atoms: C_7  and  C_9
REMARK                            x       y       z     vdW  Elec       q    Type
REMARK                         _______ _______ _______ _____ _____    ______ ____
ROOT
ATOM      1  C   UNL     1      15.933 -13.644   0.000  0.00  0.00    +0.000 A 
ATOM      2  C   UNL     1      15.218 -13.232   0.000  0.00  0.00    +0.000 A 
ATOM      3  C   UNL     1      16.647 -13.232   0.000  0.00  0.00    +0.000 A 
ATOM      4  C   UNL     1      15.933 -11.994   0.000  0.00  0.00    +0.000 A 
ATOM      5  C   UNL     1      15.218 -12.407   0.000  0.00  0.00    +0.000 A 
ATOM      6  C   UNL     1      16.647 -12.407   0.000  0.00  0.00    +0.000 A 
ENDROOT
BRANCH   4   7
ATOM      7  O   UNL     1      15.933 -11.169   0.000  0.00  0.00    +0.000 OA
BRANCH   7   8
ATOM      8  S   UNL     1      16.647 -10.757   0.000  0.00  0.00    +0.000 S 
ATOM      9  O   UNL     1      17.362 -10.344   0.000  0.00  0.00    +0.000 OA
ATOM     10  O   UNL     1      16.235 -10.042   0.000  0.00  0.00    +0.000 OA
ATOM     11  O   UNL     1      17.060 -11.471   0.000  0.00  0.00    +0.000 OA
ENDBRANCH   7   8
ENDBRANCH   4   7
BRANCH   1  12
ATOM     12  C   UNL     1      15.933 -14.469   0.000  0.00  0.00    +0.000 C 
BRANCH  12  14
ATOM     13  N   UNL     1      15.218 -15.707   0.000  0.00  0.00    +0.000 NA
ATOM     14  C   UNL     1      15.218 -14.882   0.000  0.00  0.00    +0.000 C 
ENDBRANCH  12  14
ENDBRANCH   1  12
TORSDOF 4
