REMARK  Name = 
REMARK  27 active torsions:
REMARK  status: ('A' for Active; 'I' for Inactive)
REMARK    1  A    between atoms: C_1  and  C_3
REMARK    2  A    between atoms: C_1  and  O_8
REMARK    3  A    between atoms: C_3  and  C_4
REMARK    4  A    between atoms: O_8  and  C_9
REMARK    5  A    between atoms: C_9  and  C_10
REMARK    6  A    between atoms: C_10  and  C_11
REMARK    7  A    between atoms: C_11  and  C_12
REMARK    8  A    between atoms: C_11  and  C_33
REMARK    9  A    between atoms: C_12  and  O_13
REMARK   10  A    between atoms: O_13  and  C_14
REMARK   11  A    between atoms: C_14  and  C_15
REMARK   12  A    between atoms: C_15  and  C_16
REMARK   13  A    between atoms: C_16  and  C_17
REMARK   14  A    between atoms: C_17  and  C_18
REMARK   15  A    between atoms: C_18  and  C_19
REMARK   16  A    between atoms: C_19  and  C_20
REMARK   17  A    between atoms: C_20  and  C_21
REMARK   18  A    between atoms: C_21  and  C_22
REMARK   19  A    between atoms: C_22  and  C_23
REMARK   20  A    between atoms: C_23  and  C_24
REMARK   21  A    between atoms: C_24  and  C_25
REMARK   22  A    between atoms: C_25  and  C_26
REMARK   23  A    between atoms: C_26  and  C_27
REMARK   24  A    between atoms: C_27  and  C_28
REMARK   25  A    between atoms: C_28  and  C_29
REMARK   26  A    between atoms: C_29  and  C_30
REMARK   27  A    between atoms: C_33  and  N_36
REMARK                            x       y       z     vdW  Elec       q    Type
REMARK                         _______ _______ _______ _____ _____    ______ ____
ROOT
ATOM      1  C   UNL     1       5.014   0.302   0.000  0.00  0.00    +0.000 C 
ENDROOT
BRANCH   1   2
ATOM      2  C   UNL     1       4.299  -0.110   0.000  0.00  0.00    +0.000 C 
BRANCH   2   3
ATOM      3  O   UNL     1       3.585   0.302   0.000  0.00  0.00    +0.000 OA
BRANCH   3   4
ATOM      4  C   UNL     1       2.870  -0.110   0.000  0.00  0.00    +0.000 C 
ATOM      5  O   UNL     1       2.156   0.302   0.000  0.00  0.00    +0.000 OA
BRANCH   4   6
ATOM      6  C   UNL     1       2.870  -0.935   0.000  0.00  0.00    +0.000 C 
BRANCH   6   7
ATOM      7  C   UNL     1       2.156  -1.348   0.000  0.00  0.00    +0.000 C 
BRANCH   7   8
ATOM      8  C   UNL     1       1.441  -0.935   0.000  0.00  0.00    +0.000 C 
BRANCH   8   9
ATOM      9  C   UNL     1       0.727  -1.348   0.000  0.00  0.00    +0.000 C 
BRANCH   9  10
ATOM     10  C   UNL     1       0.012  -0.935   0.000  0.00  0.00    +0.000 C 
BRANCH  10  11
ATOM     11  C   UNL     1      -0.702  -1.348   0.000  0.00  0.00    +0.000 C 
BRANCH  11  12
ATOM     12  C   UNL     1      -1.417  -0.935   0.000  0.00  0.00    +0.000 C 
BRANCH  12  13
ATOM     13  C   UNL     1      -2.131  -1.348   0.000  0.00  0.00    +0.000 C 
BRANCH  13  14
ATOM     14  C   UNL     1      -2.846  -0.935   0.000  0.00  0.00    +0.000 C 
BRANCH  14  15
ATOM     15  C   UNL     1      -3.560  -1.348   0.000  0.00  0.00    +0.000 C 
BRANCH  15  16
ATOM     16  C   UNL     1      -4.275  -0.935   0.000  0.00  0.00    +0.000 C 
BRANCH  16  17
ATOM     17  C   UNL     1      -4.989  -1.348   0.000  0.00  0.00    +0.000 C 
BRANCH  17  18
ATOM     18  C   UNL     1      -5.704  -0.935   0.000  0.00  0.00    +0.000 C 
BRANCH  18  19
ATOM     19  C   UNL     1      -6.418  -1.348   0.000  0.00  0.00    +0.000 C 
BRANCH  19  20
ATOM     20  C   UNL     1      -7.133  -0.935   0.000  0.00  0.00    +0.000 C 
BRANCH  20  21
ATOM     21  C   UNL     1      -7.847  -1.348   0.000  0.00  0.00    +0.000 C 
ATOM     22  C   UNL     1      -8.562  -0.935   0.000  0.00  0.00    +0.000 C 
ENDBRANCH  20  21
ENDBRANCH  19  20
ENDBRANCH  18  19
ENDBRANCH  17  18
ENDBRANCH  16  17
ENDBRANCH  15  16
ENDBRANCH  14  15
ENDBRANCH  13  14
ENDBRANCH  12  13
ENDBRANCH  11  12
ENDBRANCH  10  11
ENDBRANCH   9  10
ENDBRANCH   8   9
ENDBRANCH   7   8
ENDBRANCH   6   7
ENDBRANCH   4   6
ENDBRANCH   3   4
ENDBRANCH   2   3
ENDBRANCH   1   2
BRANCH   1  23
ATOM     23  C   UNL     1       5.014   1.127   0.000  0.00  0.00    +0.000 C 
BRANCH  23  24
ATOM     24  C   UNL     1       4.299   1.540   0.000  0.00  0.00    +0.000 C 
BRANCH  24  25
ATOM     25  O   UNL     1       4.299   2.365   0.000  0.00  0.00    +0.000 OA
BRANCH  25  26
ATOM     26  C   UNL     1       3.585   2.777   0.000  0.00  0.00    +0.000 C 
ATOM     27  O   UNL     1       3.585   3.603   0.000  0.00  0.00    +0.000 OA
BRANCH  26  29
ATOM     28  N   UNL     1       2.156   2.777   0.000  0.00  0.00    +0.000 NA
ATOM     29  C   UNL     1       2.870   2.365   0.000  0.00  0.00    +0.000 C 
BRANCH  29  30
ATOM     30  C   UNL     1       2.870   1.540   0.000  0.00  0.00    +0.000 C 
ATOM     31  C   UNL     1       3.585   1.127   0.000  0.00  0.00    +0.000 C 
ATOM     32  C   UNL     1       2.156   1.127   0.000  0.00  0.00    +0.000 C 
ENDBRANCH  29  30
ENDBRANCH  26  29
ENDBRANCH  25  26
ENDBRANCH  24  25
ENDBRANCH  23  24
ENDBRANCH   1  23
BRANCH   1  33
ATOM     33  C   UNL     1       5.728  -0.110   0.000  0.00  0.00    +0.000 C 
BRANCH  33  36
ATOM     34  N   UNL     1       5.316  -2.205   0.000  0.00  0.00    +0.000 NA
ATOM     35  C   UNL     1       5.061  -1.420   0.000  0.00  0.00    +0.000 A 
ATOM     36  N   UNL     1       5.728  -0.935   0.000  0.00  0.00    +0.000 N 
ATOM     37  C   UNL     1       6.396  -1.420   0.000  0.00  0.00    +0.000 A 
ATOM     38  N   UNL     1       7.202  -1.248   0.000  0.00  0.00    +0.000 NA
ATOM     39  C   UNL     1       7.755  -1.861   0.000  0.00  0.00    +0.000 A 
ATOM     40  N   UNL     1       7.500  -2.646   0.000  0.00  0.00    +0.000 NA
ATOM     41  C   UNL     1       6.693  -2.818   0.000  0.00  0.00    +0.000 A 
ATOM     42  C   UNL     1       6.141  -2.205   0.000  0.00  0.00    +0.000 A 
ATOM     43  O   UNL     1       6.438  -3.603   0.000  0.00  0.00    +0.000 OA
ATOM     44  N   UNL     1       8.562  -1.690   0.000  0.00  0.00    +0.000 NA
ENDBRANCH  33  36
ENDBRANCH   1  33
TORSDOF 27
