REMARK  Name = 
REMARK  26 active torsions:
REMARK  status: ('A' for Active; 'I' for Inactive)
REMARK    1  A    between atoms: C_12  and  C_15
REMARK    2  A    between atoms: C_12  and  C_34
REMARK    3  A    between atoms: C_13  and  C_16
REMARK    4  A    between atoms: C_13  and  C_35
REMARK    5  A    between atoms: C_14  and  C_17
REMARK    6  A    between atoms: C_14  and  C_36
REMARK    7  A    between atoms: C_15  and  C_43
REMARK    8  A    between atoms: C_16  and  C_44
REMARK    9  A    between atoms: C_17  and  C_45
REMARK   10  A    between atoms: C_18  and  C_19
REMARK   11  A    between atoms: C_18  and  C_49
REMARK   12  A    between atoms: C_19  and  C_59
REMARK   13  A    between atoms: C_22  and  C_37
REMARK   14  A    between atoms: C_22  and  C_46
REMARK   15  A    between atoms: C_24  and  C_47
REMARK   16  A    between atoms: C_24  and  C_60
REMARK   17  A    between atoms: C_25  and  C_48
REMARK   18  A    between atoms: C_25  and  C_61
REMARK   19  A    between atoms: C_26  and  C_31
REMARK   20  A    between atoms: C_26  and  N_69
REMARK   21  A    between atoms: C_27  and  C_41
REMARK   22  A    between atoms: C_31  and  O_88
REMARK   23  A    between atoms: C_53  and  O_89
REMARK   24  A    between atoms: C_57  and  N_75
REMARK   25  A    between atoms: O_88  and  P_90
REMARK   26  A    between atoms: O_89  and  P_90
REMARK                            x       y       z     vdW  Elec       q    Type
REMARK                         _______ _______ _______ _____ _____    ______ ____
ROOT
ATOM      1  C   UNL     1      -1.592  -0.069   0.000  0.00  0.00    +0.000 C 
ATOM      2  C   UNL     1      -5.515  -4.043   0.000  0.00  0.00    +0.000 C 
ATOM      3  C   UNL     1      -4.213  -1.611   0.000  0.00  0.00    +0.000 C 
ATOM      4  C   UNL     1      -5.059  -0.902   0.000  0.00  0.00    +0.000 C 
ATOM      5  C   UNL     1      -0.316  -1.981   0.000  0.00  0.00    +0.000 C 
ATOM      6  C   UNL     1      -7.161  -2.439   0.000  0.00  0.00    +0.000 C 
ATOM      7  C   UNL     1      -2.028  -4.400   0.000  0.00  0.00    +0.000 C 
ATOM      8  C   UNL     1      -1.952  -3.860   0.000  0.00  0.00    +0.000 C 
ATOM      9  C   UNL     1      -5.142  -0.424   0.000  0.00  0.00    +0.000 C 
ATOM     10  C   UNL     1      -2.200  -0.627   0.000  0.00  0.00    +0.000 C 
ATOM     11  C   UNL     1      -5.036  -3.371   0.000  0.00  0.00    +0.000 C 
ATOM     12  C   UNL     1      -6.367  -1.671   0.000  0.00  0.00    +0.000 C 
ATOM     13  C   UNL     1      -3.419  -0.843   0.000  0.00  0.00    +0.000 C 
ATOM     14  C   UNL     1      -3.668  -4.460   0.000  0.00  0.00    +0.000 C 
ATOM     15  C   UNL     1      -1.251  -2.567   0.000  0.00  0.00    +0.000 C 
ATOM     16  C   UNL     1      -5.593  -1.388   0.000  0.00  0.00    +0.000 C 
ATOM     17  C   UNL     1      -4.443   0.014   0.000  0.00  0.00    +0.000 C 
ATOM     18  C   UNL     1      -3.111  -0.078   0.000  0.00  0.00    +0.000 C 
ATOM     19  C   UNL     1      -4.031  -3.719   0.000  0.00  0.00    +0.000 C 
ATOM     20  C   UNL     1      -1.838  -1.368   0.000  0.00  0.00    +0.000 C 
ATOM     21  C   UNL     1      -5.544  -2.722   0.000  0.00  0.00    +0.000 C 
ATOM     22  C   UNL     1      -2.068  -2.683   0.000  0.00  0.00    +0.000 C 
ATOM     23  C   UNL     1      -4.242  -0.787   0.000  0.00  0.00    +0.000 C 
ATOM     24  C   UNL     1      -1.109  -1.754   0.000  0.00  0.00    +0.000 C 
ATOM     25  C   UNL     1      -6.338  -2.495   0.000  0.00  0.00    +0.000 C 
ATOM     26  C   UNL     1      -2.851  -4.344   0.000  0.00  0.00    +0.000 C 
ATOM     27  C   UNL     1      -2.709  -3.531   0.000  0.00  0.00    +0.000 C 
ATOM     28  N   UNL     1      -5.084  -2.037   0.000  0.00  0.00    +0.000 NA
ATOM     29  N   UNL     1      -3.744   0.452   0.000  0.00  0.00    +0.000 NA
ATOM     30  N   UNL     1      -2.430  -1.941   0.000  0.00  0.00    +0.000 NA
ATOM     31  N   UNL     1      -3.438  -3.145   0.000  0.00  0.00    +0.000 NA
ENDROOT
BRANCH  26  32
ATOM     32  C   UNL     1      -2.821  -5.168   0.000  0.00  0.00    +0.000 C 
BRANCH  32  33
ATOM     33  C   UNL     1      -2.093  -5.555   0.000  0.00  0.00    +0.000 C 
ATOM     34  N   UNL     1      -1.393  -5.117   0.000  0.00  0.00    +0.000 NA
ATOM     35  O   UNL     1      -2.063  -6.379   0.000  0.00  0.00    +0.000 OA
ENDBRANCH  32  33
ENDBRANCH  26  32
BRANCH  25  36
ATOM     36  C   UNL     1      -6.480  -3.308   0.000  0.00  0.00    +0.000 C 
BRANCH  36  37
ATOM     37  C   UNL     1      -7.255  -3.591   0.000  0.00  0.00    +0.000 C 
ATOM     38  N   UNL     1      -7.397  -4.404   0.000  0.00  0.00    +0.000 NA
ATOM     39  O   UNL     1      -7.888  -3.061   0.000  0.00  0.00    +0.000 OA
ENDBRANCH  36  37
ENDBRANCH  25  36
BRANCH  15  40
ATOM     40  C   UNL     1      -0.677  -3.159   0.000  0.00  0.00    +0.000 C 
BRANCH  40  41
ATOM     41  C   UNL     1       0.123  -2.959   0.000  0.00  0.00    +0.000 C 
ATOM     42  N   UNL     1       0.349  -2.166   0.000  0.00  0.00    +0.000 NA
ATOM     43  O   UNL     1       0.697  -3.552   0.000  0.00  0.00    +0.000 OA
ENDBRANCH  40  41
ENDBRANCH  15  40
BRANCH  24  44
ATOM     44  C   UNL     1      -0.801  -0.989   0.000  0.00  0.00    +0.000 C 
BRANCH  44  45
ATOM     45  C   UNL     1       0.016  -0.873   0.000  0.00  0.00    +0.000 C 
BRANCH  45  46
ATOM     46  C   UNL     1       0.324  -0.108   0.000  0.00  0.00    +0.000 C 
ATOM     47  N   UNL     1       1.141   0.008   0.000  0.00  0.00    +0.000 NA
ATOM     48  O   UNL     1      -0.184   0.542   0.000  0.00  0.00    +0.000 OA
BRANCH  47  49
ATOM     49  C   UNL     1       1.449   0.773   0.000  0.00  0.00    +0.000 C 
BRANCH  49  51
ATOM     50  C   UNL     1       2.775   0.239   0.000  0.00  0.00    +0.000 C 
ATOM     51  C   UNL     1       2.266   0.889   0.000  0.00  0.00    +0.000 C 
BRANCH  51  52
ATOM     52  O   UNL     1       2.574   1.654   0.000  0.00  0.00    +0.000 OA
BRANCH  52  55
ATOM     53  O   UNL     1       3.275   2.587   0.000  0.00  0.00    +0.000 OA
ATOM     54  O   UNL     1       3.507   0.953   0.000  0.00  0.00    +0.000 OA
ATOM     55  P   UNL     1       3.391   1.770   0.000  0.00  0.00    +0.000 P 
BRANCH  55  56
ATOM     56  O   UNL     1       4.208   1.886   0.000  0.00  0.00    +0.000 OA
BRANCH  56  59
ATOM     57  C   UNL     1       4.078   3.350   0.000  0.00  0.00    +0.000 C 
ATOM     58  C   UNL     1       5.316   2.852   0.000  0.00  0.00    +0.000 C 
ATOM     59  C   UNL     1       4.516   2.651   0.000  0.00  0.00    +0.000 C 
ATOM     60  C   UNL     1       5.373   3.675   0.000  0.00  0.00    +0.000 C 
ATOM     61  O   UNL     1       5.949   2.322   0.000  0.00  0.00    +0.000 OA
ATOM     62  O   UNL     1       4.608   3.983   0.000  0.00  0.00    +0.000 OA
BRANCH  60  73
ATOM     63  C   UNL     1       6.808   7.316   0.000  0.00  0.00    +0.000 C 
ATOM     64  C   UNL     1       5.207   6.915   0.000  0.00  0.00    +0.000 C 
ATOM     65  C   UNL     1       7.155   5.929   0.000  0.00  0.00    +0.000 A 
ATOM     66  C   UNL     1       5.555   5.529   0.000  0.00  0.00    +0.000 A 
ATOM     67  C   UNL     1       6.837   3.804   0.000  0.00  0.00    +0.000 A 
ATOM     68  C   UNL     1       6.582   6.522   0.000  0.00  0.00    +0.000 A 
ATOM     69  C   UNL     1       5.781   6.322   0.000  0.00  0.00    +0.000 A 
ATOM     70  C   UNL     1       6.929   5.136   0.000  0.00  0.00    +0.000 A 
ATOM     71  C   UNL     1       6.129   4.936   0.000  0.00  0.00    +0.000 A 
ATOM     72  N   UNL     1       7.367   4.437   0.000  0.00  0.00    +0.000 NA
ATOM     73  N   UNL     1       6.072   4.113   0.000  0.00  0.00    +0.000 N 
ENDBRANCH  60  73
BRANCH  57  74
ATOM     74  C   UNL     1       3.255   3.407   0.000  0.00  0.00    +0.000 C 
ATOM     75  O   UNL     1       2.893   4.148   0.000  0.00  0.00    +0.000 OA
ENDBRANCH  57  74
ENDBRANCH  56  59
ENDBRANCH  55  56
ENDBRANCH  52  55
ENDBRANCH  51  52
ENDBRANCH  49  51
ENDBRANCH  47  49
ENDBRANCH  45  46
ENDBRANCH  44  45
ENDBRANCH  24  44
BRANCH  14  76
ATOM     76  C   UNL     1      -4.054  -5.189   0.000  0.00  0.00    +0.000 C 
BRANCH  76  77
ATOM     77  C   UNL     1      -3.616  -5.888   0.000  0.00  0.00    +0.000 C 
BRANCH  77  78
ATOM     78  C   UNL     1      -4.003  -6.617   0.000  0.00  0.00    +0.000 C 
ATOM     79  N   UNL     1      -3.565  -7.316   0.000  0.00  0.00    +0.000 NA
ATOM     80  O   UNL     1      -4.827  -6.646   0.000  0.00  0.00    +0.000 OA
ENDBRANCH  77  78
ENDBRANCH  76  77
ENDBRANCH  14  76
BRANCH  13  81
ATOM     81  C   UNL     1      -2.981  -1.542   0.000  0.00  0.00    +0.000 C 
BRANCH  81  82
ATOM     82  C   UNL     1      -3.368  -2.271   0.000  0.00  0.00    +0.000 C 
BRANCH  82  83
ATOM     83  C   UNL     1      -4.192  -2.301   0.000  0.00  0.00    +0.000 C 
ATOM     84  N   UNL     1      -4.630  -1.602   0.000  0.00  0.00    +0.000 NA
ATOM     85  O   UNL     1      -4.579  -3.030   0.000  0.00  0.00    +0.000 OA
ENDBRANCH  82  83
ENDBRANCH  81  82
ENDBRANCH  13  81
BRANCH  12  86
ATOM     86  C   UNL     1      -7.052  -1.210   0.000  0.00  0.00    +0.000 C 
BRANCH  86  87
ATOM     87  C   UNL     1      -7.793  -1.573   0.000  0.00  0.00    +0.000 C 
BRANCH  87  88
ATOM     88  C   UNL     1      -8.478  -1.112   0.000  0.00  0.00    +0.000 C 
ATOM     89  N   UNL     1      -8.421  -0.289   0.000  0.00  0.00    +0.000 NA
ATOM     90  O   UNL     1      -9.219  -1.475   0.000  0.00  0.00    +0.000 OA
ENDBRANCH  87  88
ENDBRANCH  86  87
ENDBRANCH  12  86
TORSDOF 26
REMARK  Name = 
REMARK  26 active torsions:
REMARK  status: ('A' for Active; 'I' for Inactive)
REMARK    1  A    between atoms: C_12  and  C_15
REMARK    2  A    between atoms: C_12  and  C_34
REMARK    3  A    between atoms: C_13  and  C_16
REMARK    4  A    between atoms: C_13  and  C_35
REMARK    5  A    between atoms: C_14  and  C_17
REMARK    6  A    between atoms: C_14  and  C_36
REMARK    7  A    between atoms: C_15  and  C_43
REMARK    8  A    between atoms: C_16  and  C_44
REMARK    9  A    between atoms: C_17  and  C_45
REMARK   10  A    between atoms: C_18  and  C_19
REMARK   11  A    between atoms: C_18  and  C_49
REMARK   12  A    between atoms: C_19  and  C_59
REMARK   13  A    between atoms: C_22  and  C_37
REMARK   14  A    between atoms: C_22  and  C_46
REMARK   15  A    between atoms: C_24  and  C_47
REMARK   16  A    between atoms: C_24  and  C_60
REMARK   17  A    between atoms: C_25  and  C_48
REMARK   18  A    between atoms: C_25  and  C_61
REMARK   19  A    between atoms: C_26  and  C_31
REMARK   20  A    between atoms: C_26  and  N_69
REMARK   21  A    between atoms: C_27  and  C_41
REMARK   22  A    between atoms: C_31  and  O_88
REMARK   23  A    between atoms: C_53  and  O_89
REMARK   24  A    between atoms: C_57  and  N_75
REMARK   25  A    between atoms: O_88  and  P_90
REMARK   26  A    between atoms: O_89  and  P_90
REMARK                            x       y       z     vdW  Elec       q    Type
REMARK                         _______ _______ _______ _____ _____    ______ ____
ROOT
ATOM      1  C   UNL     1       9.960  -0.663   0.000  0.00  0.00    +0.000 C 
ATOM      2  N   UNL     1       9.135  -0.663   0.000  0.00  0.00    +0.000 NA
ENDROOT
TORSDOF 0
REMARK  Name = 
REMARK  26 active torsions:
REMARK  status: ('A' for Active; 'I' for Inactive)
REMARK    1  A    between atoms: C_12  and  C_15
REMARK    2  A    between atoms: C_12  and  C_34
REMARK    3  A    between atoms: C_13  and  C_16
REMARK    4  A    between atoms: C_13  and  C_35
REMARK    5  A    between atoms: C_14  and  C_17
REMARK    6  A    between atoms: C_14  and  C_36
REMARK    7  A    between atoms: C_15  and  C_43
REMARK    8  A    between atoms: C_16  and  C_44
REMARK    9  A    between atoms: C_17  and  C_45
REMARK   10  A    between atoms: C_18  and  C_19
REMARK   11  A    between atoms: C_18  and  C_49
REMARK   12  A    between atoms: C_19  and  C_59
REMARK   13  A    between atoms: C_22  and  C_37
REMARK   14  A    between atoms: C_22  and  C_46
REMARK   15  A    between atoms: C_24  and  C_47
REMARK   16  A    between atoms: C_24  and  C_60
REMARK   17  A    between atoms: C_25  and  C_48
REMARK   18  A    between atoms: C_25  and  C_61
REMARK   19  A    between atoms: C_26  and  C_31
REMARK   20  A    between atoms: C_26  and  N_69
REMARK   21  A    between atoms: C_27  and  C_41
REMARK   22  A    between atoms: C_31  and  O_88
REMARK   23  A    between atoms: C_53  and  O_89
REMARK   24  A    between atoms: C_57  and  N_75
REMARK   25  A    between atoms: O_88  and  P_90
REMARK   26  A    between atoms: O_89  and  P_90
REMARK                            x       y       z     vdW  Elec       q    Type
REMARK                         _______ _______ _______ _____ _____    ______ ____
ROOT
ATOM      1 CO   UNL     1      -9.960  -1.837   0.000  0.00  0.00    +0.000 Co
ENDROOT
TORSDOF 0
