REMARK  Name = 
REMARK  8 active torsions:
REMARK  status: ('A' for Active; 'I' for Inactive)
REMARK    1  A    between atoms: C_1  and  C_2
REMARK    2  A    between atoms: C_1  and  C_8
REMARK    3  A    between atoms: C_1  and  C_17
REMARK    4  A    between atoms: C_13  and  C_14
REMARK    5  A    between atoms: C_17  and  C_18
REMARK    6  A    between atoms: C_18  and  N_19
REMARK    7  A    between atoms: N_19  and  C_20
REMARK    8  A    between atoms: N_19  and  C_23
REMARK                            x       y       z     vdW  Elec       q    Type
REMARK                         _______ _______ _______ _____ _____    ______ ____
ROOT
ATOM      1  C   UNL     1       0.000  -0.412   0.000  0.00  0.00    +0.000 C 
ENDROOT
BRANCH   1   2
ATOM      2  C   UNL     1      -0.714  -0.825   0.000  0.00  0.00    +0.000 A 
ATOM      3  C   UNL     1      -0.714  -1.650   0.000  0.00  0.00    +0.000 A 
ATOM      4  O   UNL     1       0.000  -2.062   0.000  0.00  0.00    +0.000 OA
ATOM      5  C   UNL     1      -1.429  -2.062   0.000  0.00  0.00    +0.000 A 
ATOM      6  C   UNL     1      -2.143  -1.650   0.000  0.00  0.00    +0.000 A 
ATOM      7  C   UNL     1      -2.143  -0.825   0.000  0.00  0.00    +0.000 A 
ATOM      8  C   UNL     1      -1.429  -0.412   0.000  0.00  0.00    +0.000 A 
BRANCH   7   9
ATOM      9  C   UNL     1      -2.858  -0.412   0.000  0.00  0.00    +0.000 C 
ATOM     10  O   UNL     1      -3.572  -0.825   0.000  0.00  0.00    +0.000 OA
ENDBRANCH   7   9
ENDBRANCH   1   2
BRANCH   1  11
ATOM     11  C   UNL     1       0.000   0.412   0.000  0.00  0.00    +0.000 A 
ATOM     12  C   UNL     1       0.715   0.825   0.000  0.00  0.00    +0.000 A 
ATOM     13  C   UNL     1       0.715   1.650   0.000  0.00  0.00    +0.000 A 
ATOM     14  C   UNL     1       0.000   2.062   0.000  0.00  0.00    +0.000 A 
ATOM     15  C   UNL     1      -0.714   1.650   0.000  0.00  0.00    +0.000 A 
ATOM     16  C   UNL     1      -0.714   0.825   0.000  0.00  0.00    +0.000 A 
ENDBRANCH   1  11
BRANCH   1  17
ATOM     17  C   UNL     1       0.817  -0.825   0.000  0.00  0.00    +0.000 C 
BRANCH  17  18
ATOM     18  C   UNL     1       1.422  -0.400   0.000  0.00  0.00    +0.000 C 
BRANCH  18  19
ATOM     19  N   UNL     1       2.143  -0.800   0.000  0.00  0.00    +0.000 NA
BRANCH  19  20
ATOM     20  C   UNL     1       2.851  -0.375   0.000  0.00  0.00    +0.000 C 
ATOM     21  C   UNL     1       2.836   0.450   0.000  0.00  0.00    +0.000 C 
ATOM     22  C   UNL     1       3.572  -0.775   0.000  0.00  0.00    +0.000 C 
ENDBRANCH  19  20
BRANCH  19  23
ATOM     23  C   UNL     1       2.158  -1.625   0.000  0.00  0.00    +0.000 C 
ATOM     24  C   UNL     1       2.879  -2.025   0.000  0.00  0.00    +0.000 C 
ATOM     25  C   UNL     1       1.451  -2.050   0.000  0.00  0.00    +0.000 C 
ENDBRANCH  19  23
ENDBRANCH  18  19
ENDBRANCH  17  18
ENDBRANCH   1  17
TORSDOF 8
