REMARK  Name = 
REMARK  2 active torsions:
REMARK  status: ('A' for Active; 'I' for Inactive)
REMARK    1  A    between atoms: C_17  and  C_26
REMARK    2  A    between atoms: C_26  and  C_28
REMARK                            x       y       z     vdW  Elec       q    Type
REMARK                         _______ _______ _______ _____ _____    ______ ____
ROOT
ATOM      1  C   UNL     1      -2.530  -0.743   0.000  0.00  0.00    +0.000 C 
ATOM      2  C   UNL     1      -2.530  -1.568   0.000  0.00  0.00    +0.000 C 
ATOM      3  C   UNL     1      -1.828  -1.980   0.000  0.00  0.00    +0.000 C 
ATOM      4  C   UNL     1      -1.086  -1.568   0.000  0.00  0.00    +0.000 C 
ATOM      5  C   UNL     1      -1.086  -0.743   0.000  0.00  0.00    +0.000 C 
ATOM      6  C   UNL     1      -1.828  -0.330   0.000  0.00  0.00    +0.000 C 
ATOM      7  C   UNL     1      -0.384  -1.980   0.000  0.00  0.00    +0.000 C 
ATOM      8  C   UNL     1       0.317  -1.568   0.000  0.00  0.00    +0.000 C 
ATOM      9  C   UNL     1       0.317  -0.743   0.000  0.00  0.00    +0.000 C 
ATOM     10  C   UNL     1      -0.384  -0.330   0.000  0.00  0.00    +0.000 C 
ATOM     11  C   UNL     1       1.018  -0.330   0.000  0.00  0.00    +0.000 C 
ATOM     12  C   UNL     1       1.018   0.495   0.000  0.00  0.00    +0.000 C 
ATOM     13  C   UNL     1       0.317   0.908   0.000  0.00  0.00    +0.000 C 
ATOM     14  C   UNL     1      -0.384   0.495   0.000  0.00  0.00    +0.000 C 
ATOM     15  C   UNL     1       1.802  -0.578   0.000  0.00  0.00    +0.000 C 
ATOM     16  C   UNL     1       2.297   0.083   0.000  0.00  0.00    +0.000 C 
ATOM     17  C   UNL     1       1.802   0.743   0.000  0.00  0.00    +0.000 C 
ATOM     18  O   UNL     1      -3.231  -1.980   0.000  0.00  0.00    +0.000 OA
ATOM     19  O   UNL     1      -1.086   0.908   0.000  0.00  0.00    +0.000 OA
ATOM     20  C   UNL     1       1.018   1.320   0.000  0.00  0.00    +0.000 C 
ATOM     21  F   UNL     1      -0.384  -1.155   0.000  0.00  0.00    +0.000 F 
ATOM     22  O   UNL     1       2.586   0.949   0.000  0.00  0.00    +0.000 OA
ATOM     23  C   UNL     1      -1.086   0.083   0.000  0.00  0.00    +0.000 C 
ENDROOT
BRANCH  17  24
ATOM     24  C   UNL     1       1.802   1.568   0.000  0.00  0.00    +0.000 C 
ATOM     25  O   UNL     1       1.087   1.980   0.000  0.00  0.00    +0.000 OA
BRANCH  24  26
ATOM     26  C   UNL     1       2.517   1.980   0.000  0.00  0.00    +0.000 C 
ATOM     27  O   UNL     1       3.231   1.568   0.000  0.00  0.00    +0.000 OA
ENDBRANCH  24  26
ENDBRANCH  17  24
TORSDOF 2
