REMARK  Name = 
REMARK  4 active torsions:
REMARK  status: ('A' for Active; 'I' for Inactive)
REMARK    1  A    between atoms: N_5  and  C_8
REMARK    2  A    between atoms: C_9  and  C_27
REMARK    3  A    between atoms: C_15  and  C_18
REMARK    4  A    between atoms: C_21  and  C_25
REMARK                            x       y       z     vdW  Elec       q    Type
REMARK                         _______ _______ _______ _____ _____    ______ ____
ROOT
ATOM      1  C   UNL     1       1.429  -1.650   0.000  0.00  0.00    +0.000 A 
ATOM      2  C   UNL     1       0.715  -1.238   0.000  0.00  0.00    +0.000 A 
ATOM      3  C   UNL     1       0.715  -0.412   0.000  0.00  0.00    +0.000 A 
ATOM      4  N   UNL     1       1.429   0.000   0.000  0.00  0.00    +0.000 NA
ATOM      5  C   UNL     1       2.143  -0.412   0.000  0.00  0.00    +0.000 A 
ATOM      6  C   UNL     1       2.858   0.000   0.000  0.00  0.00    +0.000 A 
ATOM      7  C   UNL     1       3.572  -0.412   0.000  0.00  0.00    +0.000 A 
ATOM      8  C   UNL     1       3.572  -1.238   0.000  0.00  0.00    +0.000 A 
ATOM      9  C   UNL     1       2.858  -1.650   0.000  0.00  0.00    +0.000 A 
ATOM     10  C   UNL     1       2.143  -1.238   0.000  0.00  0.00    +0.000 A 
ENDROOT
BRANCH   2  11
ATOM     11  C   UNL     1       0.000  -1.650   0.000  0.00  0.00    +0.000 A 
ATOM     12  C   UNL     1       0.000  -2.475   0.000  0.00  0.00    +0.000 A 
ATOM     13  C   UNL     1      -0.715  -2.888   0.000  0.00  0.00    +0.000 A 
ATOM     14  F   UNL     1      -0.715  -3.712   0.000  0.00  0.00    +0.000 F 
ATOM     15  C   UNL     1      -1.429  -2.475   0.000  0.00  0.00    +0.000 A 
ATOM     16  C   UNL     1      -1.429  -1.650   0.000  0.00  0.00    +0.000 A 
ATOM     17  F   UNL     1      -2.143  -1.238   0.000  0.00  0.00    +0.000 F 
ATOM     18  C   UNL     1      -0.715  -1.238   0.000  0.00  0.00    +0.000 A 
ENDBRANCH   2  11
BRANCH   1  23
ATOM     19  N   UNL     1       1.429  -4.950   0.000  0.00  0.00    +0.000 NA
ATOM     20  C   UNL     1       1.429  -4.125   0.000  0.00  0.00    +0.000 C 
ATOM     21  C   UNL     1       0.715  -3.712   0.000  0.00  0.00    +0.000 C 
ATOM     22  C   UNL     1       0.715  -2.888   0.000  0.00  0.00    +0.000 C 
ATOM     23  N   UNL     1       1.429  -2.475   0.000  0.00  0.00    +0.000 N 
ATOM     24  C   UNL     1       2.143  -2.888   0.000  0.00  0.00    +0.000 C 
ATOM     25  C   UNL     1       2.143  -3.712   0.000  0.00  0.00    +0.000 C 
ENDBRANCH   1  23
BRANCH   8  26
ATOM     26  C   UNL     1       4.287  -1.650   0.000  0.00  0.00    +0.000 A 
ATOM     27  C   UNL     1       5.001  -1.238   0.000  0.00  0.00    +0.000 A 
ATOM     28  O   UNL     1       5.001  -0.412   0.000  0.00  0.00    +0.000 OA
ATOM     29  C   UNL     1       5.716  -1.650   0.000  0.00  0.00    +0.000 A 
ATOM     30  C   UNL     1       5.716  -2.475   0.000  0.00  0.00    +0.000 A 
ATOM     31  C   UNL     1       5.001  -2.888   0.000  0.00  0.00    +0.000 A 
ATOM     32  C   UNL     1       4.287  -2.475   0.000  0.00  0.00    +0.000 A 
BRANCH  29  33
ATOM     33  C   UNL     1       6.430  -1.238   0.000  0.00  0.00    +0.000 C 
ATOM     34  N   UNL     1       7.145  -0.825   0.000  0.00  0.00    +0.000 NA
ENDBRANCH  29  33
ENDBRANCH   8  26
TORSDOF 4
