REMARK  Name = 
REMARK  1 active torsions:
REMARK  status: ('A' for Active; 'I' for Inactive)
REMARK    1  A    between atoms: C_9  and  C_14
REMARK                            x       y       z     vdW  Elec       q    Type
REMARK                         _______ _______ _______ _____ _____    ______ ____
ROOT
ATOM      1  N   UNL     1      -1.072   0.412   0.000  0.00  0.00    +0.000 NA
ATOM      2  N   UNL     1      -1.072  -1.237   0.000  0.00  0.00    +0.000 NA
ATOM      3  C   UNL     1      -1.786  -0.825   0.000  0.00  0.00    +0.000 A 
ATOM      4  N   UNL     1      -2.501  -1.237   0.000  0.00  0.00    +0.000 NA
ATOM      5  C   UNL     1      -0.357  -0.825   0.000  0.00  0.00    +0.000 A 
ATOM      6  N   UNL     1       0.357  -1.237   0.000  0.00  0.00    +0.000 NA
ATOM      7  C   UNL     1      -1.786   0.000   0.000  0.00  0.00    +0.000 A 
ATOM      8 CL   UNL     1      -2.501   0.412   0.000  0.00  0.00    +0.000 Cl
ATOM      9  C   UNL     1      -0.357   0.000   0.000  0.00  0.00    +0.000 A 
ENDROOT
BRANCH   9  14
ATOM     10  N   UNL     1       1.072   0.000   0.000  0.00  0.00    +0.000 NA
ATOM     11  N   UNL     1       2.501   0.000   0.000  0.00  0.00    +0.000 NA
ATOM     12  C   UNL     1       1.786   0.412   0.000  0.00  0.00    +0.000 C 
ATOM     13  N   UNL     1       1.786   1.237   0.000  0.00  0.00    +0.000 NA
ATOM     14  C   UNL     1       0.357   0.412   0.000  0.00  0.00    +0.000 C 
ATOM     15  O   UNL     1       0.357   1.237   0.000  0.00  0.00    +0.000 OA
ENDBRANCH   9  14
TORSDOF 1
