REMARK  Name = 
REMARK  3 active torsions:
REMARK  status: ('A' for Active; 'I' for Inactive)
REMARK    1  A    between atoms: C_1  and  C_3
REMARK    2  A    between atoms: C_3  and  C_7
REMARK    3  A    between atoms: C_12  and  C_13
REMARK                            x       y       z     vdW  Elec       q    Type
REMARK                         _______ _______ _______ _____ _____    ______ ____
ROOT
ATOM      1  C   UNL     1       0.112   0.456   0.000  0.00  0.00    +0.000 A 
ATOM      2  C   UNL     1       0.526  -0.258   0.000  0.00  0.00    +0.000 A 
ATOM      3  C   UNL     1      -0.713   0.453   0.000  0.00  0.00    +0.000 A 
ATOM      4  C   UNL     1       0.116  -0.973   0.000  0.00  0.00    +0.000 A 
ATOM      5  C   UNL     1      -1.124  -0.262   0.000  0.00  0.00    +0.000 A 
ATOM      6  C   UNL     1      -0.709  -0.975   0.000  0.00  0.00    +0.000 A 
ENDROOT
BRANCH   1   7
ATOM      7  C   UNL     1       0.523   1.171   0.000  0.00  0.00    +0.000 C 
ATOM      8  N   UNL     1      -0.192   1.582   0.000  0.00  0.00    +0.000 NA
ATOM      9  C   UNL     1       0.937   0.458   0.000  0.00  0.00    +0.000 C 
BRANCH   7  10
ATOM     10  C   UNL     1       1.230   1.582   0.000  0.00  0.00    +0.000 C 
ATOM     11  O   UNL     1       1.238   2.404   0.000  0.00  0.00    +0.000 OA
ATOM     12  O   UNL     1       1.945   1.171   0.000  0.00  0.00    +0.000 OA
ENDBRANCH   7  10
ENDBRANCH   1   7
BRANCH   6  13
ATOM     13  C   UNL     1      -1.120  -1.691   0.000  0.00  0.00    +0.000 C 
ATOM     14  O   UNL     1      -1.945  -1.693   0.000  0.00  0.00    +0.000 OA
ATOM     15  O   UNL     1      -0.706  -2.404   0.000  0.00  0.00    +0.000 OA
ENDBRANCH   6  13
TORSDOF 3
