REMARK  Name = 
REMARK  5 active torsions:
REMARK  status: ('A' for Active; 'I' for Inactive)
REMARK    1  A    between atoms: O_2  and  C_3
REMARK    2  A    between atoms: C_5  and  C_9
REMARK    3  A    between atoms: C_12  and  N_13
REMARK    4  A    between atoms: C_14  and  C_16
REMARK    5  A    between atoms: C_17  and  C_21
REMARK                            x       y       z     vdW  Elec       q    Type
REMARK                         _______ _______ _______ _____ _____    ______ ____
ROOT
ATOM      1  C   UNL     1      -0.715   8.416   0.000  0.00  0.00    +0.000 A 
ATOM      2  C   UNL     1       0.000   8.004   0.000  0.00  0.00    +0.000 A 
ATOM      3  C   UNL     1       0.000   7.179   0.000  0.00  0.00    +0.000 A 
ATOM      4  C   UNL     1      -0.715   6.766   0.000  0.00  0.00    +0.000 A 
ATOM      5  C   UNL     1      -1.429   7.179   0.000  0.00  0.00    +0.000 A 
ATOM      6  F   UNL     1      -2.143   6.766   0.000  0.00  0.00    +0.000 F 
ATOM      7  C   UNL     1      -1.429   8.004   0.000  0.00  0.00    +0.000 A 
ENDROOT
BRANCH   1  10
ATOM      8  C   UNL     1       0.000  10.479   0.000  0.00  0.00    +0.000 A 
ATOM      9  C   UNL     1       0.000   9.654   0.000  0.00  0.00    +0.000 A 
ATOM     10  C   UNL     1      -0.715   9.241   0.000  0.00  0.00    +0.000 A 
ATOM     11  C   UNL     1      -1.429   9.654   0.000  0.00  0.00    +0.000 A 
ATOM     12  C   UNL     1      -1.429  10.479   0.000  0.00  0.00    +0.000 A 
ATOM     13  C   UNL     1      -0.715  10.891   0.000  0.00  0.00    +0.000 A 
BRANCH   8  15
ATOM     14  C   UNL     1       0.715  11.716   0.000  0.00  0.00    +0.000 C 
ATOM     15  O   UNL     1       0.715  10.891   0.000  0.00  0.00    +0.000 OA
ENDBRANCH   8  15
ENDBRANCH   1  10
BRANCH   4  16
ATOM     16  N   UNL     1      -0.715   5.941   0.000  0.00  0.00    +0.000 NA
ATOM     17  C   UNL     1       0.000   5.529   0.000  0.00  0.00    +0.000 C 
ATOM     18  O   UNL     1       0.715   5.941   0.000  0.00  0.00    +0.000 OA
BRANCH  17  19
ATOM     19  C   UNL     1       0.000   4.704   0.000  0.00  0.00    +0.000 C 
ATOM     20  C   UNL     1       0.667   4.219   0.000  0.00  0.00    +0.000 C 
ATOM     21  C   UNL     1       0.412   3.434   0.000  0.00  0.00    +0.000 C 
ATOM     22  C   UNL     1      -0.412   3.434   0.000  0.00  0.00    +0.000 C 
ATOM     23  C   UNL     1      -0.667   4.219   0.000  0.00  0.00    +0.000 C 
BRANCH  20  24
ATOM     24  C   UNL     1       1.452   4.474   0.000  0.00  0.00    +0.000 C 
ATOM     25  O   UNL     1       1.624   5.281   0.000  0.00  0.00    +0.000 OA
ATOM     26  O   UNL     1       2.065   3.922   0.000  0.00  0.00    +0.000 OA
ENDBRANCH  20  24
ENDBRANCH  17  19
ENDBRANCH   4  16
TORSDOF 5
