REMARK  Name = 
REMARK  11 active torsions:
REMARK  status: ('A' for Active; 'I' for Inactive)
REMARK    1  A    between atoms: C_1  and  N_2
REMARK    2  A    between atoms: C_1  and  C_7
REMARK    3  A    between atoms: C_7  and  C_42
REMARK    4  A    between atoms: C_9  and  C_12
REMARK    5  A    between atoms: C_12  and  O_13
REMARK    6  A    between atoms: O_13  and  C_14
REMARK    7  A    between atoms: C_17  and  N_20
REMARK    8  A    between atoms: N_23  and  C_26
REMARK    9  A    between atoms: C_29  and  N_32
REMARK   10  A    between atoms: N_35  and  C_38
REMARK   11  A    between atoms: C_38  and  C_39
REMARK                            x       y       z     vdW  Elec       q    Type
REMARK                         _______ _______ _______ _____ _____    ______ ____
ROOT
ATOM      1  C   UNL     1       2.706   0.330   0.000  0.00  0.00    +0.000 A 
ATOM      2  C   UNL     1       2.534  -0.477   0.000  0.00  0.00    +0.000 A 
ATOM      3  C   UNL     1       1.750  -0.732   0.000  0.00  0.00    +0.000 A 
ATOM      4  C   UNL     1       1.137  -0.180   0.000  0.00  0.00    +0.000 A 
ATOM      5  C   UNL     1       1.308   0.627   0.000  0.00  0.00    +0.000 A 
ATOM      6  C   UNL     1       2.093   0.882   0.000  0.00  0.00    +0.000 A 
ENDROOT
BRANCH   4   7
ATOM      7  N   UNL     1       0.352  -0.435   0.000  0.00  0.00    +0.000 N 
ATOM      8  C   UNL     1       0.180  -1.242   0.000  0.00  0.00    +0.000 C 
ATOM      9  C   UNL     1      -0.604  -1.497   0.000  0.00  0.00    +0.000 C 
ATOM     10  N   UNL     1      -1.217  -0.945   0.000  0.00  0.00    +0.000 N 
ATOM     11  C   UNL     1      -1.046  -0.138   0.000  0.00  0.00    +0.000 C 
ATOM     12  C   UNL     1      -0.261   0.117   0.000  0.00  0.00    +0.000 C 
BRANCH  10  13
ATOM     13  C   UNL     1      -2.002  -1.200   0.000  0.00  0.00    +0.000 A 
ATOM     14  C   UNL     1      -2.174  -2.007   0.000  0.00  0.00    +0.000 A 
ATOM     15  C   UNL     1      -2.958  -2.262   0.000  0.00  0.00    +0.000 A 
ATOM     16  C   UNL     1      -3.571  -1.710   0.000  0.00  0.00    +0.000 A 
ATOM     17  C   UNL     1      -3.400  -0.903   0.000  0.00  0.00    +0.000 A 
ATOM     18  C   UNL     1      -2.615  -0.648   0.000  0.00  0.00    +0.000 A 
BRANCH  16  19
ATOM     19  N   UNL     1      -4.356  -1.965   0.000  0.00  0.00    +0.000 N 
ATOM     20  C   UNL     1      -5.023  -1.480   0.000  0.00  0.00    +0.000 A 
ATOM     21  O   UNL     1      -5.023  -0.655   0.000  0.00  0.00    +0.000 OA
ATOM     22  N   UNL     1      -5.691  -1.965   0.000  0.00  0.00    +0.000 N 
ATOM     23  N   UNL     1      -5.436  -2.749   0.000  0.00  0.00    +0.000 NA
ATOM     24  C   UNL     1      -4.611  -2.749   0.000  0.00  0.00    +0.000 A 
BRANCH  22  25
ATOM     25  C   UNL     1      -6.475  -1.710   0.000  0.00  0.00    +0.000 C 
ATOM     26  C   UNL     1      -6.647  -0.903   0.000  0.00  0.00    +0.000 C 
BRANCH  25  27
ATOM     27  C   UNL     1      -7.088  -2.262   0.000  0.00  0.00    +0.000 C 
ATOM     28  C   UNL     1      -7.873  -2.007   0.000  0.00  0.00    +0.000 C 
ENDBRANCH  25  27
ENDBRANCH  22  25
ENDBRANCH  16  19
ENDBRANCH  10  13
ENDBRANCH   4   7
BRANCH   1  29
ATOM     29  O   UNL     1       3.490   0.585   0.000  0.00  0.00    +0.000 OA
BRANCH  29  30
ATOM     30  C   UNL     1       4.103   0.033   0.000  0.00  0.00    +0.000 C 
BRANCH  30  33
ATOM     31  C   UNL     1       6.223   0.288   0.000  0.00  0.00    +0.000 C 
ATOM     32  O   UNL     1       5.556  -0.197   0.000  0.00  0.00    +0.000 OA
ATOM     33  C   UNL     1       4.888   0.288   0.000  0.00  0.00    +0.000 C 
ATOM     34  C   UNL     1       5.143   1.072   0.000  0.00  0.00    +0.000 C 
ATOM     35  O   UNL     1       5.968   1.072   0.000  0.00  0.00    +0.000 OA
BRANCH  31  36
ATOM     36  C   UNL     1       6.635  -0.427   0.000  0.00  0.00    +0.000 A 
ATOM     37  C   UNL     1       7.460  -0.427   0.000  0.00  0.00    +0.000 A 
ATOM     38 CL   UNL     1       7.873   0.288   0.000  0.00  0.00    +0.000 Cl
ATOM     39  C   UNL     1       7.873  -1.141   0.000  0.00  0.00    +0.000 A 
ATOM     40  C   UNL     1       7.460  -1.856   0.000  0.00  0.00    +0.000 A 
ATOM     41  C   UNL     1       6.635  -1.856   0.000  0.00  0.00    +0.000 A 
ATOM     42  C   UNL     1       6.223  -1.141   0.000  0.00  0.00    +0.000 A 
ATOM     43 CL   UNL     1       7.873  -2.570   0.000  0.00  0.00    +0.000 Cl
ENDBRANCH  31  36
BRANCH  31  44
ATOM     44  C   UNL     1       6.977   0.623   0.000  0.00  0.00    +0.000 C 
BRANCH  44  45
ATOM     45  N   UNL     1       7.063   1.444   0.000  0.00  0.00    +0.000 N 
ATOM     46  C   UNL     1       7.777   1.856   0.000  0.00  0.00    +0.000 A 
ATOM     47  N   UNL     1       7.606   2.663   0.000  0.00  0.00    +0.000 NA
ATOM     48  C   UNL     1       6.785   2.749   0.000  0.00  0.00    +0.000 A 
ATOM     49  N   UNL     1       6.450   1.996   0.000  0.00  0.00    +0.000 NA
ENDBRANCH  44  45
ENDBRANCH  31  44
ENDBRANCH  30  33
ENDBRANCH  29  30
ENDBRANCH   1  29
TORSDOF 11
