REMARK  Name = 
REMARK  3 active torsions:
REMARK  status: ('A' for Active; 'I' for Inactive)
REMARK    1  A    between atoms: C_6  and  S_12
REMARK    2  A    between atoms: C_15  and  N_17
REMARK    3  A    between atoms: C_16  and  N_17
REMARK                            x       y       z     vdW  Elec       q    Type
REMARK                         _______ _______ _______ _____ _____    ______ ____
ROOT
ATOM      1  C   UNL     1       1.250  -0.722   0.000  0.00  0.00    +0.000 A 
ATOM      2  C   UNL     1       1.250   0.103   0.000  0.00  0.00    +0.000 A 
ATOM      3  C   UNL     1      -0.179  -0.722   0.000  0.00  0.00    +0.000 A 
ATOM      4  C   UNL     1       0.536  -1.134   0.000  0.00  0.00    +0.000 A 
ATOM      5  C   UNL     1       0.536   0.516   0.000  0.00  0.00    +0.000 A 
ATOM      6  C   UNL     1      -0.179   0.103   0.000  0.00  0.00    +0.000 A 
ATOM      7  O   UNL     1       0.536  -1.959   0.000  0.00  0.00    +0.000 OA
ATOM      8  O   UNL     1       0.536   1.341   0.000  0.00  0.00    +0.000 OA
ENDROOT
BRANCH   6  12
ATOM      9  O   UNL     1      -1.608   0.928   0.000  0.00  0.00    +0.000 OA
ATOM     10  O   UNL     1      -0.481   1.230   0.000  0.00  0.00    +0.000 OA
ATOM     11  O   UNL     1      -1.306  -0.199   0.000  0.00  0.00    +0.000 OA
ATOM     12  S   UNL     1      -0.893   0.516   0.000  0.00  0.00    +0.000 S 
ENDBRANCH   6  12
TORSDOF 1
REMARK  Name = 
REMARK  3 active torsions:
REMARK  status: ('A' for Active; 'I' for Inactive)
REMARK    1  A    between atoms: C_6  and  S_12
REMARK    2  A    between atoms: C_15  and  N_17
REMARK    3  A    between atoms: C_16  and  N_17
REMARK                            x       y       z     vdW  Elec       q    Type
REMARK                         _______ _______ _______ _____ _____    ______ ____
ROOT
ATOM      1  N   UNL     1       4.845   0.143   0.000  0.00  0.00    +0.000 NA
ENDROOT
BRANCH   1   3
ATOM      2  C   UNL     1       3.607  -0.572   0.000  0.00  0.00    +0.000 C 
ATOM      3  C   UNL     1       4.433  -0.572   0.000  0.00  0.00    +0.000 C 
ENDBRANCH   1   3
BRANCH   1   5
ATOM      4  C   UNL     1       6.082   0.857   0.000  0.00  0.00    +0.000 C 
ATOM      5  C   UNL     1       5.670   0.143   0.000  0.00  0.00    +0.000 C 
ENDBRANCH   1   5
TORSDOF 2
