REMARK  Name = 
REMARK  11 active torsions:
REMARK  status: ('A' for Active; 'I' for Inactive)
REMARK    1  A    between atoms: C_1  and  O_2
REMARK    2  A    between atoms: C_1  and  C_3
REMARK    3  A    between atoms: C_1  and  C_12
REMARK    4  A    between atoms: O_2  and  S_16
REMARK    5  A    between atoms: C_3  and  C_4
REMARK    6  A    between atoms: C_4  and  C_5
REMARK    7  A    between atoms: C_5  and  C_6
REMARK    8  A    between atoms: C_5  and  C_10
REMARK    9  A    between atoms: C_6  and  C_7
REMARK   10  A    between atoms: C_7  and  C_8
REMARK   11  A    between atoms: C_12  and  C_13
REMARK                            x       y       z     vdW  Elec       q    Type
REMARK                         _______ _______ _______ _____ _____    ______ ____
ROOT
ATOM      1  C   UNL     1       1.263   0.000   0.000  0.00  0.00    +0.000 C 
ENDROOT
BRANCH   1   2
ATOM      2  C   UNL     1       0.538  -0.418   0.000  0.00  0.00    +0.000 C 
BRANCH   2   3
ATOM      3  C   UNL     1      -0.176  -0.006   0.000  0.00  0.00    +0.000 C 
BRANCH   3   4
ATOM      4  C   UNL     1      -0.886  -0.415   0.000  0.00  0.00    +0.000 C 
BRANCH   4   5
ATOM      5  C   UNL     1      -0.886  -1.255   0.000  0.00  0.00    +0.000 C 
ATOM      6  C   UNL     1      -1.599  -1.667   0.000  0.00  0.00    +0.000 C 
ENDBRANCH   4   5
BRANCH   4   7
ATOM      7  C   UNL     1      -1.597  -0.004   0.000  0.00  0.00    +0.000 C 
BRANCH   7   8
ATOM      8  C   UNL     1      -2.308  -0.415   0.000  0.00  0.00    +0.000 C 
BRANCH   8   9
ATOM      9  C   UNL     1      -3.020  -0.004   0.000  0.00  0.00    +0.000 C 
ATOM     10  C   UNL     1      -3.731  -0.414   0.000  0.00  0.00    +0.000 C 
ENDBRANCH   8   9
ENDBRANCH   7   8
ENDBRANCH   4   7
ENDBRANCH   3   4
ENDBRANCH   2   3
ENDBRANCH   1   2
BRANCH   1  11
ATOM     11  C   UNL     1       1.263   0.837   0.000  0.00  0.00    +0.000 C 
BRANCH  11  12
ATOM     12  C   UNL     1       1.987   1.255   0.000  0.00  0.00    +0.000 C 
ATOM     13  C   UNL     1       2.702   0.842   0.000  0.00  0.00    +0.000 C 
ATOM     14  C   UNL     1       1.988   2.091   0.000  0.00  0.00    +0.000 C 
ENDBRANCH  11  12
ENDBRANCH   1  11
BRANCH   1  15
ATOM     15  O   UNL     1       1.987  -0.418   0.000  0.00  0.00    +0.000 OA
BRANCH  15  16
ATOM     16  S   UNL     1       1.988  -1.255   0.000  0.00  0.00    +0.000 S 
ATOM     17  O   UNL     1       1.988  -2.091   0.000  0.00  0.00    +0.000 OA
ATOM     18  O   UNL     1       2.811  -1.255   0.000  0.00  0.00    +0.000 OA
ATOM     19  O   UNL     1       1.137  -1.255   0.000  0.00  0.00    +0.000 OA
ENDBRANCH  15  16
ENDBRANCH   1  15
TORSDOF 11
REMARK  Name = 
REMARK  11 active torsions:
REMARK  status: ('A' for Active; 'I' for Inactive)
REMARK    1  A    between atoms: C_1  and  O_2
REMARK    2  A    between atoms: C_1  and  C_3
REMARK    3  A    between atoms: C_1  and  C_12
REMARK    4  A    between atoms: O_2  and  S_16
REMARK    5  A    between atoms: C_3  and  C_4
REMARK    6  A    between atoms: C_4  and  C_5
REMARK    7  A    between atoms: C_5  and  C_6
REMARK    8  A    between atoms: C_5  and  C_10
REMARK    9  A    between atoms: C_6  and  C_7
REMARK   10  A    between atoms: C_7  and  C_8
REMARK   11  A    between atoms: C_12  and  C_13
REMARK                            x       y       z     vdW  Elec       q    Type
REMARK                         _______ _______ _______ _____ _____    ______ ____
ROOT
ATOM      1 NA   UNL     1       3.731  -1.276   0.000  0.00  0.00    +0.000 Na
ENDROOT
TORSDOF 0
