REMARK  Name = 
REMARK  2 active torsions:
REMARK  status: ('A' for Active; 'I' for Inactive)
REMARK    1  A    between atoms: PT_6  and  N_9
REMARK    2  A    between atoms: PT_6  and  N_13
REMARK                            x       y       z     vdW  Elec       q    Type
REMARK                         _______ _______ _______ _____ _____    ______ ____
ROOT
ATOM      1  O   UNL     1       0.723  -0.135   0.000  0.00  0.00    +0.000 OA
ATOM      2  O   UNL     1      -0.612  -0.135   0.000  0.00  0.00    +0.000 OA
ATOM      3  C   UNL     1      -0.357  -0.920   0.000  0.00  0.00    +0.000 C 
ATOM      4  C   UNL     1       0.468  -0.920   0.000  0.00  0.00    +0.000 C 
ATOM      5  O   UNL     1      -0.842  -1.587   0.000  0.00  0.00    +0.000 OA
ATOM      6 PT   UNL     1       0.055   0.350   0.000  0.00  0.00    +0.000 Pt
ENDROOT
BRANCH   6   9
ATOM      7  H   UNL     1       0.770   1.587   0.000  0.00  0.00    +0.000 HD
ATOM      8  H   UNL     1       1.484   0.350   0.000  0.00  0.00    +0.000 HD
ATOM      9  N   UNL     1       0.770   0.762   0.000  0.00  0.00    +0.000 N 
ATOM     10  H   UNL     1       1.182   1.477   0.000  0.00  0.00    +0.000 HD
ENDBRANCH   6   9
BRANCH   6  13
ATOM     11  H   UNL     1      -0.659   1.587   0.000  0.00  0.00    +0.000 HD
ATOM     12  H   UNL     1      -1.374   0.350   0.000  0.00  0.00    +0.000 HD
ATOM     13  N   UNL     1      -0.659   0.762   0.000  0.00  0.00    +0.000 N 
ATOM     14  H   UNL     1      -1.484   0.762   0.000  0.00  0.00    +0.000 HD
ENDBRANCH   6  13
TORSDOF 2
