REMARK  Name = 
REMARK  3 active torsions:
REMARK  status: ('A' for Active; 'I' for Inactive)
REMARK    1  A    between atoms: O_8  and  N_9
REMARK    2  A    between atoms: C_28  and  C_32
REMARK    3  A    between atoms: C_38  and  C_41
REMARK                            x       y       z     vdW  Elec       q    Type
REMARK                         _______ _______ _______ _____ _____    ______ ____
ROOT
ATOM      1  O   UNL     1      -2.509  -3.510   0.000  0.00  0.00    +0.000 OA
ATOM      2  O   UNL     1      -1.153  -1.897   0.000  0.00  0.00    +0.000 OA
ATOM      3  O   UNL     1       0.365  -1.034   0.000  0.00  0.00    +0.000 OA
ATOM      4  O   UNL     1      -0.346  -4.744   0.000  0.00  0.00    +0.000 OA
ATOM      5  O   UNL     1      -1.058  -1.024   0.000  0.00  0.00    +0.000 OA
ATOM      6  O   UNL     1       0.365   1.433   0.000  0.00  0.00    +0.000 OA
ATOM      7  O   UNL     1       1.067   1.850   0.000  0.00  0.00    +0.000 OA
ATOM      8  N   UNL     1       3.211   0.617   0.000  0.00  0.00    +0.000 NA
ATOM      9  C   UNL     1      -1.067  -2.685   0.000  0.00  0.00    +0.000 C 
ATOM     10  C   UNL     1      -1.067  -3.510   0.000  0.00  0.00    +0.000 C 
ATOM     11  C   UNL     1      -0.346  -2.267   0.000  0.00  0.00    +0.000 C 
ATOM     12  C   UNL     1      -1.779  -2.267   0.000  0.00  0.00    +0.000 C 
ATOM     13  C   UNL     1      -0.346  -3.928   0.000  0.00  0.00    +0.000 C 
ATOM     14  C   UNL     1      -0.346  -1.442   0.000  0.00  0.00    +0.000 C 
ATOM     15  C   UNL     1       0.365  -2.675   0.000  0.00  0.00    +0.000 C 
ATOM     16  C   UNL     1       0.365  -3.520   0.000  0.00  0.00    +0.000 C 
ATOM     17  C   UNL     1      -2.509  -2.685   0.000  0.00  0.00    +0.000 C 
ATOM     18  C   UNL     1       0.365  -0.209   0.000  0.00  0.00    +0.000 C 
ATOM     19  C   UNL     1      -1.779  -1.442   0.000  0.00  0.00    +0.000 C 
ATOM     20  C   UNL     1       1.067   1.034   0.000  0.00  0.00    +0.000 C 
ATOM     21  C   UNL     1       1.067   0.199   0.000  0.00  0.00    +0.000 C 
ATOM     22  C   UNL     1      -0.346   1.024   0.000  0.00  0.00    +0.000 C 
ATOM     23  C   UNL     1      -0.346   0.199   0.000  0.00  0.00    +0.000 C 
ATOM     24  C   UNL     1       1.067  -3.918   0.000  0.00  0.00    +0.000 C 
ATOM     25  C   UNL     1       1.779   0.617   0.000  0.00  0.00    +0.000 C 
ATOM     26  C   UNL     1      -2.500  -1.034   0.000  0.00  0.00    +0.000 C 
ATOM     27  C   UNL     1       1.779   2.267   0.000  0.00  0.00    +0.000 C 
ATOM     28  C   UNL     1       2.490   1.034   0.000  0.00  0.00    +0.000 C 
ATOM     29  C   UNL     1       2.490   1.850   0.000  0.00  0.00    +0.000 C 
ATOM     30  C   UNL     1      -1.067   1.442   0.000  0.00  0.00    +0.000 C 
ATOM     31  C   UNL     1      -2.500  -0.209   0.000  0.00  0.00    +0.000 C 
ATOM     32  C   UNL     1      -1.779   1.024   0.000  0.00  0.00    +0.000 C 
ATOM     33  C   UNL     1       3.211   2.267   0.000  0.00  0.00    +0.000 C 
ATOM     34  C   UNL     1      -3.211   0.209   0.000  0.00  0.00    +0.000 C 
ATOM     35  C   UNL     1      -2.500   1.442   0.000  0.00  0.00    +0.000 C 
ATOM     36  C   UNL     1      -3.211   1.024   0.000  0.00  0.00    +0.000 C 
ATOM     37  C   UNL     1      -3.913  -0.199   0.000  0.00  0.00    +0.000 C 
ATOM     38  C   UNL     1      -2.500   2.267   0.000  0.00  0.00    +0.000 C 
ENDROOT
BRANCH  27  39
ATOM     39  C   UNL     1       1.779   3.093   0.000  0.00  0.00    +0.000 C 
ATOM     40  C   UNL     1       2.500   3.510   0.000  0.00  0.00    +0.000 C 
ATOM     41  C   UNL     1       1.077   3.501   0.000  0.00  0.00    +0.000 C 
BRANCH  40  42
ATOM     42  C   UNL     1       2.500   4.326   0.000  0.00  0.00    +0.000 C 
ATOM     43  C   UNL     1       1.779   4.744   0.000  0.00  0.00    +0.000 C 
ATOM     44  C   UNL     1       3.211   4.734   0.000  0.00  0.00    +0.000 C 
ENDBRANCH  40  42
ENDBRANCH  27  39
BRANCH   8  45
ATOM     45  O   UNL     1       3.211  -0.218   0.000  0.00  0.00    +0.000 OA
ATOM     46  C   UNL     1       3.913  -0.626   0.000  0.00  0.00    +0.000 C 
ENDBRANCH   8  45
TORSDOF 3
