REMARK  Name = 
REMARK  12 active torsions:
REMARK  status: ('A' for Active; 'I' for Inactive)
REMARK    1  A    between atoms: O_2  and  C_3
REMARK    2  A    between atoms: C_9  and  C_10
REMARK    3  A    between atoms: C_10  and  C_11
REMARK    4  A    between atoms: C_11  and  N_12
REMARK    5  A    between atoms: C_13  and  C_15
REMARK    6  A    between atoms: C_15  and  C_16
REMARK    7  A    between atoms: N_17  and  C_18
REMARK    8  A    between atoms: C_18  and  C_19
REMARK    9  A    between atoms: C_19  and  C_20
REMARK   10  A    between atoms: N_28  and  C_29
REMARK   11  A    between atoms: C_29  and  C_30
REMARK   12  A    between atoms: C_30  and  C_31
REMARK                            x       y       z     vdW  Elec       q    Type
REMARK                         _______ _______ _______ _____ _____    ______ ____
ROOT
ATOM      1  C   UNL     1       0.748  -3.338   0.000  0.00  0.00    +0.000 C 
ATOM      2  N   UNL     1       1.555  -3.166   0.000  0.00  0.00    +0.000 N 
ATOM      3  C   UNL     1       2.107  -3.779   0.000  0.00  0.00    +0.000 C 
ATOM      4  O   UNL     1       2.914  -3.608   0.000  0.00  0.00    +0.000 OA
ATOM      5  C   UNL     1       1.852  -4.564   0.000  0.00  0.00    +0.000 C 
ATOM      6  N   UNL     1       1.045  -4.735   0.000  0.00  0.00    +0.000 N 
ATOM      7  C   UNL     1       0.493  -4.122   0.000  0.00  0.00    +0.000 C 
ATOM      8  O   UNL     1      -0.314  -4.294   0.000  0.00  0.00    +0.000 OA
ENDROOT
BRANCH   1   9
ATOM      9  C   UNL     1       0.196  -2.725   0.000  0.00  0.00    +0.000 C 
BRANCH   9  11
ATOM     10  N   UNL     1      -0.101  -1.327   0.000  0.00  0.00    +0.000 NA
ATOM     11  C   UNL     1       0.451  -1.940   0.000  0.00  0.00    +0.000 C 
ATOM     12  O   UNL     1       1.258  -1.768   0.000  0.00  0.00    +0.000 OA
BRANCH  10  13
ATOM     13  C   UNL     1       0.154  -0.542   0.000  0.00  0.00    +0.000 C 
BRANCH  13  14
ATOM     14  C   UNL     1      -0.398   0.071   0.000  0.00  0.00    +0.000 C 
BRANCH  14  21
ATOM     15  C   UNL     1       2.070   1.110   0.000  0.00  0.00    +0.000 A 
ATOM     16  C   UNL     1       1.356   0.698   0.000  0.00  0.00    +0.000 A 
ATOM     17  C   UNL     1       0.641   1.110   0.000  0.00  0.00    +0.000 A 
ATOM     18  C   UNL     1       0.641   1.935   0.000  0.00  0.00    +0.000 A 
ATOM     19  N   UNL     1      -0.143   2.190   0.000  0.00  0.00    +0.000 NA
ATOM     20  C   UNL     1      -0.628   1.523   0.000  0.00  0.00    +0.000 A 
ATOM     21  C   UNL     1      -0.143   0.856   0.000  0.00  0.00    +0.000 A 
ATOM     22  C   UNL     1       1.356   2.348   0.000  0.00  0.00    +0.000 A 
ATOM     23  C   UNL     1       2.070   1.935   0.000  0.00  0.00    +0.000 A 
BRANCH  15  25
ATOM     24  C   UNL     1       3.499   1.110   0.000  0.00  0.00    +0.000 C 
ATOM     25  O   UNL     1       2.784   0.698   0.000  0.00  0.00    +0.000 OA
ENDBRANCH  15  25
ENDBRANCH  14  21
ENDBRANCH  13  14
ENDBRANCH  10  13
ENDBRANCH   9  11
ENDBRANCH   1   9
BRANCH   6  26
ATOM     26  C   UNL     1       0.790  -5.520   0.000  0.00  0.00    +0.000 C 
BRANCH  26  27
ATOM     27  C   UNL     1       1.342  -6.133   0.000  0.00  0.00    +0.000 C 
BRANCH  27  28
ATOM     28  C   UNL     1       1.087  -6.918   0.000  0.00  0.00    +0.000 A 
ATOM     29  C   UNL     1       1.639  -7.531   0.000  0.00  0.00    +0.000 A 
ATOM     30  C   UNL     1       1.384  -8.315   0.000  0.00  0.00    +0.000 A 
ATOM     31  C   UNL     1       0.577  -8.487   0.000  0.00  0.00    +0.000 A 
ATOM     32 CL   UNL     1       0.322  -9.272   0.000  0.00  0.00    +0.000 Cl
ATOM     33  C   UNL     1       0.025  -7.874   0.000  0.00  0.00    +0.000 A 
ATOM     34  C   UNL     1       0.280  -7.089   0.000  0.00  0.00    +0.000 A 
ATOM     35 CL   UNL     1      -0.272  -6.476   0.000  0.00  0.00    +0.000 Cl
ENDBRANCH  27  28
ENDBRANCH  26  27
ENDBRANCH   6  26
BRANCH   2  36
ATOM     36  C   UNL     1       1.810  -2.381   0.000  0.00  0.00    +0.000 C 
BRANCH  36  37
ATOM     37  C   UNL     1       2.617  -2.210   0.000  0.00  0.00    +0.000 C 
BRANCH  37  38
ATOM     38  C   UNL     1       2.872  -1.425   0.000  0.00  0.00    +0.000 A 
ATOM     39  C   UNL     1       3.656  -1.170   0.000  0.00  0.00    +0.000 A 
ATOM     40  C   UNL     1       3.656  -0.345   0.000  0.00  0.00    +0.000 A 
ATOM     41  C   UNL     1       2.872  -0.090   0.000  0.00  0.00    +0.000 A 
ATOM     42  S   UNL     1       2.387  -0.758   0.000  0.00  0.00    +0.000 S 
ENDBRANCH  37  38
ENDBRANCH  36  37
ENDBRANCH   2  36
TORSDOF 12
