REMARK  Name = 
REMARK  3 active torsions:
REMARK  status: ('A' for Active; 'I' for Inactive)
REMARK    1  A    between atoms: C_9  and  C_10
REMARK    2  A    between atoms: C_10  and  N_11
REMARK    3  A    between atoms: N_11  and  C_12
REMARK                            x       y       z     vdW  Elec       q    Type
REMARK                         _______ _______ _______ _____ _____    ______ ____
ROOT
ATOM      1  N   UNL     1       1.786   1.444   0.000  0.00  0.00    +0.000 NA
ATOM      2  C   UNL     1       1.786   0.619   0.000  0.00  0.00    +0.000 A 
ATOM      3  C   UNL     1       2.501   0.206   0.000  0.00  0.00    +0.000 A 
ATOM      4 BR   UNL     1       3.215   0.619   0.000  0.00  0.00    +0.000 Br
ATOM      5  C   UNL     1       2.501  -0.619   0.000  0.00  0.00    +0.000 A 
ATOM      6  C   UNL     1       1.786  -1.031   0.000  0.00  0.00    +0.000 A 
ATOM      7 BR   UNL     1       1.786  -1.856   0.000  0.00  0.00    +0.000 Br
ATOM      8  C   UNL     1       1.072  -0.619   0.000  0.00  0.00    +0.000 A 
ATOM      9  C   UNL     1       1.072   0.206   0.000  0.00  0.00    +0.000 A 
ENDROOT
BRANCH   9  10
ATOM     10  C   UNL     1       0.357   0.619   0.000  0.00  0.00    +0.000 C 
BRANCH  10  11
ATOM     11  N   UNL     1      -0.357   0.206   0.000  0.00  0.00    +0.000 NA
BRANCH  11  12
ATOM     12  C   UNL     1      -1.072   0.619   0.000  0.00  0.00    +0.000 C 
ATOM     13  C   UNL     1      -1.786   0.206   0.000  0.00  0.00    +0.000 C 
ATOM     14  C   UNL     1      -2.501   0.619   0.000  0.00  0.00    +0.000 C 
ATOM     15  C   UNL     1      -2.501   1.444   0.000  0.00  0.00    +0.000 C 
ATOM     16  O   UNL     1      -3.215   1.856   0.000  0.00  0.00    +0.000 OA
ATOM     17  C   UNL     1      -1.786   1.856   0.000  0.00  0.00    +0.000 C 
ATOM     18  C   UNL     1      -1.072   1.444   0.000  0.00  0.00    +0.000 C 
ENDBRANCH  11  12
ENDBRANCH  10  11
ENDBRANCH   9  10
TORSDOF 3
