REMARK  Name = 
REMARK  0 active torsions:
REMARK  status: ('A' for Active; 'I' for Inactive)
REMARK                            x       y       z     vdW  Elec       q    Type
REMARK                         _______ _______ _______ _____ _____    ______ ____
ROOT
ATOM      1  N   UNL     1      -0.134  -0.630   0.000  0.00  0.00    +0.000 N 
ATOM      2  N   UNL     1      -1.481  -1.563   0.000  0.00  0.00    +0.000 NA
ATOM      3  N   UNL     1       1.175  -0.857   0.000  0.00  0.00    +0.000 NA
ATOM      4  C   UNL     1      -0.848  -0.286   0.000  0.00  0.00    +0.000 C 
ATOM      5  C   UNL     1      -1.537  -0.740   0.000  0.00  0.00    +0.000 C 
ATOM      6  C   UNL     1      -0.060  -1.451   0.000  0.00  0.00    +0.000 C 
ATOM      7  C   UNL     1      -0.738  -1.921   0.000  0.00  0.00    +0.000 C 
ATOM      8  C   UNL     1      -1.024   0.486   0.000  0.00  0.00    +0.000 A 
ATOM      9  C   UNL     1       0.579  -0.286   0.000  0.00  0.00    +0.000 A 
ATOM     10  C   UNL     1      -0.530   1.105   0.000  0.00  0.00    +0.000 A 
ATOM     11  C   UNL     1       0.262   1.105   0.000  0.00  0.00    +0.000 C 
ATOM     12  C   UNL     1       0.755   0.486   0.000  0.00  0.00    +0.000 A 
ATOM     13  C   UNL     1      -2.138  -2.007   0.000  0.00  0.00    +0.000 C 
ATOM     14  C   UNL     1      -1.842   0.596   0.000  0.00  0.00    +0.000 A 
ATOM     15  C   UNL     1      -0.820   1.878   0.000  0.00  0.00    +0.000 A 
ATOM     16  C   UNL     1       1.540   0.741   0.000  0.00  0.00    +0.000 A 
ATOM     17  C   UNL     1      -2.149   1.362   0.000  0.00  0.00    +0.000 A 
ATOM     18  C   UNL     1      -1.635   2.007   0.000  0.00  0.00    +0.000 A 
ATOM     19  C   UNL     1       2.149   0.185   0.000  0.00  0.00    +0.000 A 
ATOM     20  C   UNL     1       1.966  -0.620   0.000  0.00  0.00    +0.000 A 
ENDROOT
TORSDOF 0
