REMARK  Name = 
REMARK  1 active torsions:
REMARK  status: ('A' for Active; 'I' for Inactive)
REMARK    1  A    between atoms: N_7  and  C_11
REMARK                            x       y       z     vdW  Elec       q    Type
REMARK                         _______ _______ _______ _____ _____    ______ ____
ROOT
ATOM      1  C   UNL     1      -0.628  -0.698   0.000  0.00  0.00    +0.000 C 
ATOM      2  C   UNL     1      -0.143  -1.365   0.000  0.00  0.00    +0.000 C 
ATOM      3  C   UNL     1       0.641  -1.110   0.000  0.00  0.00    +0.000 C 
ATOM      4  C   UNL     1       0.641  -0.285   0.000  0.00  0.00    +0.000 C 
ATOM      5  O   UNL     1      -0.143  -0.030   0.000  0.00  0.00    +0.000 OA
ATOM      6  C   UNL     1       1.356   0.127   0.000  0.00  0.00    +0.000 C 
ATOM      7  O   UNL     1       2.070  -0.285   0.000  0.00  0.00    +0.000 OA
ATOM      8  P   UNL     1       2.070  -1.110   0.000  0.00  0.00    +0.000 P 
ATOM      9  O   UNL     1       2.882  -0.967   0.000  0.00  0.00    +0.000 OA
ATOM     10  O   UNL     1       1.356  -1.523   0.000  0.00  0.00    +0.000 OA
ATOM     11  O   UNL     1       2.352  -1.886   0.000  0.00  0.00    +0.000 OA
ATOM     12  O   UNL     1      -0.398  -2.150   0.000  0.00  0.00    +0.000 OA
ENDROOT
BRANCH   1  19
ATOM     13  C   UNL     1      -2.380  -2.724   0.000  0.00  0.00    +0.000 A 
ATOM     14  N   UNL     1      -3.164  -2.469   0.000  0.00  0.00    +0.000 NA
ATOM     15  C   UNL     1      -3.336  -1.663   0.000  0.00  0.00    +0.000 A 
ATOM     16  C   UNL     1      -2.723  -1.110   0.000  0.00  0.00    +0.000 A 
ATOM     17  C   UNL     1      -1.938  -1.365   0.000  0.00  0.00    +0.000 A 
ATOM     18  N   UNL     1      -1.767  -2.172   0.000  0.00  0.00    +0.000 NA
ATOM     19  N   UNL     1      -1.453  -0.698   0.000  0.00  0.00    +0.000 N 
ATOM     20  C   UNL     1      -1.938  -0.030   0.000  0.00  0.00    +0.000 A 
ATOM     21  N   UNL     1      -2.723  -0.285   0.000  0.00  0.00    +0.000 NA
ATOM     22 CL   UNL     1      -1.683   0.754   0.000  0.00  0.00    +0.000 Cl
ATOM     23  N   UNL     1      -4.121  -1.407   0.000  0.00  0.00    +0.000 NA
ENDBRANCH   1  19
TORSDOF 1
