REMARK  Name = 
REMARK  7 active torsions:
REMARK  status: ('A' for Active; 'I' for Inactive)
REMARK    1  A    between atoms: C_2  and  CA_3
REMARK    2  A    between atoms: CA_3  and  CB_4
REMARK    3  A    between atoms: CA_3  and  N_6
REMARK    4  A    between atoms: C_7  and  C_9
REMARK    5  A    between atoms: C_9  and  C_11
REMARK    6  A    between atoms: C_11  and  C_13
REMARK    7  A    between atoms: C_17  and  C_19
REMARK                            x       y       z     vdW  Elec       q    Type
REMARK                         _______ _______ _______ _____ _____    ______ ____
ROOT
ATOM      1  C   UNK A   0       0.617   0.139   0.000  0.00  0.00    +0.000 C 
ATOM      2  C   UNK A   0       0.703   0.959   0.000  0.00  0.00    +0.000 C 
ATOM      3  C   UNK A   0       0.090   1.511   0.000  0.00  0.00    +0.000 C 
ATOM      4  O   UNK A   0       1.510   1.131   0.000  0.00  0.00    +0.000 OA
ATOM      5  C   UNK A   0       1.923   0.416   0.000  0.00  0.00    +0.000 C 
ATOM      6  N   UNK A   0       1.371  -0.197   0.000  0.00  0.00    +0.000 NA
ENDROOT
BRANCH   5   7
ATOM      7  C   UNK A   0       2.743   0.330   0.000  0.00  0.00    +0.000 A 
ATOM      8  C   UNK A   0       3.228   0.997   0.000  0.00  0.00    +0.000 A 
ATOM      9  C   UNK A   0       4.049   0.911   0.000  0.00  0.00    +0.000 A 
ATOM     10  C   UNK A   0       4.384   0.158   0.000  0.00  0.00    +0.000 A 
ATOM     11  C   UNK A   0       3.899  -0.510   0.000  0.00  0.00    +0.000 A 
ATOM     12  C   UNK A   0       3.079  -0.424   0.000  0.00  0.00    +0.000 A 
ATOM     13  O   UNK A   0       2.594  -1.091   0.000  0.00  0.00    +0.000 OA
ENDBRANCH   5   7
BRANCH   1  14
ATOM     14  C   UNK A   0      -0.097  -0.274   0.000  0.00  0.00    +0.000 C 
ATOM     15  O   UNK A   0      -0.097  -1.099   0.000  0.00  0.00    +0.000 OA
BRANCH  14  16
ATOM     16  C   UNK A   0      -0.812   0.139   0.000  0.00  0.00    +0.000 C 
ATOM     17  O   UNK A   0      -0.812   0.964   0.000  0.00  0.00    +0.000 OA
BRANCH  16  19
ATOM     18  N   SER A   1      -2.241   0.139   0.000  0.00  0.00    +0.000 NA
ATOM     19  C   UNK A   0      -1.526  -0.274   0.000  0.00  0.00    +0.000 C 
ATOM     20  O   UNK A   0      -1.526  -1.099   0.000  0.00  0.00    +0.000 OA
BRANCH  18  21
ATOM     21  CA  SER A   1      -2.955  -0.274   0.000  0.00  0.00    +0.000 C 
BRANCH  21  22
ATOM     22  CB  SER A   1      -2.955  -1.099   0.000  0.00  0.00    +0.000 C 
ATOM     23  OG  SER A   1      -3.670  -1.511   0.000  0.00  0.00    +0.000 OA
ENDBRANCH  21  22
BRANCH  21  25
ATOM     24  O   SER A   1      -4.384  -0.274   0.000  0.00  0.00    +0.000 OA
ATOM     25  C   SER A   1      -3.670   0.139   0.000  0.00  0.00    +0.000 C 
ENDBRANCH  21  25
ENDBRANCH  18  21
ENDBRANCH  16  19
ENDBRANCH  14  16
ENDBRANCH   1  14
TORSDOF 7
