REMARK  Name = 
REMARK  6 active torsions:
REMARK  status: ('A' for Active; 'I' for Inactive)
REMARK    1  A    between atoms: C_2  and  N_7
REMARK    2  A    between atoms: C_4  and  C_36
REMARK    3  A    between atoms: C_6  and  N_8
REMARK    4  A    between atoms: C_9  and  C_10
REMARK    5  A    between atoms: C_14  and  N_17
REMARK    6  A    between atoms: C_22  and  C_24
REMARK                            x       y       z     vdW  Elec       q    Type
REMARK                         _______ _______ _______ _____ _____    ______ ____
ROOT
ATOM      1  C   UNL     1       1.429  -0.350   0.000  0.00  0.00    +0.000 A 
ATOM      2  C   UNL     1       2.858  -0.350   0.000  0.00  0.00    +0.000 A 
ATOM      3  C   UNL     1       2.144   0.063   0.000  0.00  0.00    +0.000 A 
ATOM      4  C   UNL     1       1.429  -1.175   0.000  0.00  0.00    +0.000 A 
ATOM      5  C   UNL     1       2.144  -1.587   0.000  0.00  0.00    +0.000 A 
ATOM      6  C   UNL     1       2.858  -1.175   0.000  0.00  0.00    +0.000 A 
ATOM      7  C   UNL     1       3.572  -1.587   0.000  0.00  0.00    +0.000 C 
ENDROOT
BRANCH   5   8
ATOM      8  N   UNL     1       2.144  -2.412   0.000  0.00  0.00    +0.000 NA
ATOM      9  C   UNL     1       1.429  -2.825   0.000  0.00  0.00    +0.000 A 
ATOM     10  N   UNL     1       1.429  -3.650   0.000  0.00  0.00    +0.000 NA
ATOM     11  C   UNL     1       0.715  -4.062   0.000  0.00  0.00    +0.000 A 
ATOM     12  C   UNL     1       0.000  -3.650   0.000  0.00  0.00    +0.000 A 
ATOM     13  C   UNL     1       0.000  -2.825   0.000  0.00  0.00    +0.000 A 
ATOM     14  N   UNL     1       0.715  -2.412   0.000  0.00  0.00    +0.000 NA
BRANCH  13  15
ATOM     15  C   UNL     1      -0.714  -2.412   0.000  0.00  0.00    +0.000 A 
ATOM     16  C   UNL     1      -0.714  -1.587   0.000  0.00  0.00    +0.000 A 
ATOM     17  C   UNL     1      -1.429  -2.825   0.000  0.00  0.00    +0.000 A 
ATOM     18  C   UNL     1      -2.143  -2.412   0.000  0.00  0.00    +0.000 A 
ATOM     19  C   UNL     1      -2.143  -1.587   0.000  0.00  0.00    +0.000 A 
ATOM     20  N   UNL     1      -1.429  -1.175   0.000  0.00  0.00    +0.000 NA
ENDBRANCH  13  15
ENDBRANCH   5   8
BRANCH   1  22
ATOM     21  N   UNL     1       0.000  -0.350   0.000  0.00  0.00    +0.000 NA
ATOM     22  C   UNL     1       0.715   0.063   0.000  0.00  0.00    +0.000 C 
ATOM     23  O   UNL     1       0.715   0.888   0.000  0.00  0.00    +0.000 OA
BRANCH  21  29
ATOM     24  C   UNL     1      -0.714   0.888   0.000  0.00  0.00    +0.000 A 
ATOM     25  C   UNL     1      -1.429   1.300   0.000  0.00  0.00    +0.000 A 
ATOM     26  C   UNL     1      -2.143   0.888   0.000  0.00  0.00    +0.000 A 
ATOM     27  C   UNL     1      -2.143   0.063   0.000  0.00  0.00    +0.000 A 
ATOM     28  C   UNL     1      -1.429  -0.350   0.000  0.00  0.00    +0.000 A 
ATOM     29  C   UNL     1      -0.714   0.063   0.000  0.00  0.00    +0.000 A 
BRANCH  25  30
ATOM     30  N   UNL     1      -1.429   2.125   0.000  0.00  0.00    +0.000 N 
ATOM     31  C   UNL     1      -1.841   3.395   0.000  0.00  0.00    +0.000 A 
ATOM     32  N   UNL     1      -1.016   3.395   0.000  0.00  0.00    +0.000 NA
ATOM     33  C   UNL     1      -0.761   2.610   0.000  0.00  0.00    +0.000 A 
ATOM     34  C   UNL     1      -2.096   2.610   0.000  0.00  0.00    +0.000 A 
ATOM     35  C   UNL     1      -2.326   4.062   0.000  0.00  0.00    +0.000 C 
ENDBRANCH  25  30
BRANCH  27  36
ATOM     36  C   UNL     1      -2.857  -0.350   0.000  0.00  0.00    +0.000 C 
ATOM     37  F   UNL     1      -2.856  -1.180   0.000  0.00  0.00    +0.000 F 
ATOM     38  F   UNL     1      -3.572   0.064   0.000  0.00  0.00    +0.000 F 
ATOM     39  F   UNL     1      -3.572  -0.762   0.000  0.00  0.00    +0.000 F 
ENDBRANCH  27  36
ENDBRANCH  21  29
ENDBRANCH   1  22
TORSDOF 6
