REMARK  Name = 
REMARK  9 active torsions:
REMARK  status: ('A' for Active; 'I' for Inactive)
REMARK    1  A    between atoms: C_2  and  C_3
REMARK    2  A    between atoms: C_3  and  C_6
REMARK    3  A    between atoms: C_6  and  O_8
REMARK    4  A    between atoms: O_8  and  C_9
REMARK    5  A    between atoms: C_15  and  C_20
REMARK    6  A    between atoms: C_20  and  C_21
REMARK    7  A    between atoms: C_21  and  C_22
REMARK    8  A    between atoms: C_24  and  O_29
REMARK    9  A    between atoms: O_29  and  C_30
REMARK                            x       y       z     vdW  Elec       q    Type
REMARK                         _______ _______ _______ _____ _____    ______ ____
ROOT
ATOM      1  C   UNL     1       0.000   0.000   0.000  0.00  0.00    +0.000 C 
ATOM      2  C   UNL     1      -0.715  -0.412   0.000  0.00  0.00    +0.000 C 
ATOM      3  C   UNL     1      -0.715  -1.238   0.000  0.00  0.00    +0.000 C 
ATOM      4  C   UNL     1       0.000  -1.650   0.000  0.00  0.00    +0.000 C 
ATOM      5  C   UNL     1       0.715  -1.238   0.000  0.00  0.00    +0.000 C 
ATOM      6  C   UNL     1       0.715  -0.412   0.000  0.00  0.00    +0.000 C 
ATOM      7  C   UNL     1       1.429   0.000   0.000  0.00  0.00    +0.000 C 
ATOM      8  C   UNL     1       2.143  -0.412   0.000  0.00  0.00    +0.000 C 
ATOM      9  C   UNL     1       2.143  -1.238   0.000  0.00  0.00    +0.000 C 
ATOM     10  C   UNL     1       1.429  -1.650   0.000  0.00  0.00    +0.000 C 
ATOM     11  C   UNL     1       2.858   0.000   0.000  0.00  0.00    +0.000 C 
ATOM     12  C   UNL     1      -1.429  -1.650   0.000  0.00  0.00    +0.000 C 
ENDROOT
BRANCH   1  13
ATOM     13  O   UNL     1       0.000   0.825   0.000  0.00  0.00    +0.000 OA
BRANCH  13  14
ATOM     14  C   UNL     1      -0.715   1.238   0.000  0.00  0.00    +0.000 C 
ATOM     15  O   UNL     1      -0.715   2.062   0.000  0.00  0.00    +0.000 OA
BRANCH  14  16
ATOM     16  C   UNL     1      -1.429   0.825   0.000  0.00  0.00    +0.000 C 
ATOM     17  C   UNL     1      -1.841   1.540   0.000  0.00  0.00    +0.000 C 
ATOM     18  C   UNL     1      -2.143   0.412   0.000  0.00  0.00    +0.000 C 
BRANCH  16  20
ATOM     19  C   UNL     1      -1.429  -0.604   0.000  0.00  0.00    +0.000 C 
ATOM     20  C   UNL     1      -1.016   0.111   0.000  0.00  0.00    +0.000 C 
ENDBRANCH  16  20
ENDBRANCH  14  16
ENDBRANCH  13  14
ENDBRANCH   1  13
BRANCH   7  21
ATOM     21  C   UNL     1       1.429   0.825   0.000  0.00  0.00    +0.000 C 
BRANCH  21  22
ATOM     22  C   UNL     1       0.715   1.238   0.000  0.00  0.00    +0.000 C 
BRANCH  22  23
ATOM     23  C   UNL     1       0.715   2.062   0.000  0.00  0.00    +0.000 C 
ATOM     24  C   UNL     1       0.000   2.475   0.000  0.00  0.00    +0.000 C 
ATOM     25  C   UNL     1       0.000   3.300   0.000  0.00  0.00    +0.000 C 
ATOM     26  C   UNL     1       0.715   3.712   0.000  0.00  0.00    +0.000 C 
ATOM     27  C   UNL     1       1.429   3.300   0.000  0.00  0.00    +0.000 C 
ATOM     28  O   UNL     1       2.143   3.712   0.000  0.00  0.00    +0.000 OA
ATOM     29  O   UNL     1       1.429   2.475   0.000  0.00  0.00    +0.000 OA
BRANCH  25  30
ATOM     30  O   UNL     1      -0.715   3.712   0.000  0.00  0.00    +0.000 OA
BRANCH  30  31
ATOM     31  C   UNL     1      -0.715   4.537   0.000  0.00  0.00    +0.000 C 
ATOM     32  O   UNL     1      -1.429   4.950   0.000  0.00  0.00    +0.000 OA
ATOM     33  C   UNL     1       0.000   4.950   0.000  0.00  0.00    +0.000 C 
ENDBRANCH  30  31
ENDBRANCH  25  30
ENDBRANCH  22  23
ENDBRANCH  21  22
ENDBRANCH   7  21
TORSDOF 9
