REMARK  Name = 
REMARK  5 active torsions:
REMARK  status: ('A' for Active; 'I' for Inactive)
REMARK    1  A    between atoms: C_3  and  C_8
REMARK    2  A    between atoms: C_8  and  C_13
REMARK    3  A    between atoms: N_10  and  C_14
REMARK    4  A    between atoms: C_14  and  C_17
REMARK    5  A    between atoms: C_24  and  C_26
REMARK                            x       y       z     vdW  Elec       q    Type
REMARK                         _______ _______ _______ _____ _____    ______ ____
ROOT
ATOM      1  C   UNL     1       2.808   0.164   0.000  0.00  0.00    +0.000 A 
ATOM      2  C   UNL     1       2.808   0.966   0.000  0.00  0.00    +0.000 A 
ATOM      3  C   UNL     1       2.097  -0.259   0.000  0.00  0.00    +0.000 A 
ATOM      4  C   UNL     1       3.512  -0.248   0.000  0.00  0.00    +0.000 A 
ATOM      5  C   UNL     1       2.086   1.389   0.000  0.00  0.00    +0.000 A 
ATOM      6  C   UNL     1       3.526   1.389   0.000  0.00  0.00    +0.000 A 
ATOM      7  N   UNL     1       1.378   0.153   0.000  0.00  0.00    +0.000 NA
ATOM      8  C   UNL     1       4.248   0.164   0.000  0.00  0.00    +0.000 A 
ATOM      9  N   UNL     1       1.378   0.981   0.000  0.00  0.00    +0.000 N 
ATOM     10  O   UNL     1       2.086   2.210   0.000  0.00  0.00    +0.000 OA
ATOM     11  C   UNL     1       4.248   0.996   0.000  0.00  0.00    +0.000 A 
ENDROOT
BRANCH   3  12
ATOM     12  C   UNL     1       2.097  -1.068   0.000  0.00  0.00    +0.000 C 
BRANCH  12  13
ATOM     13  C   UNL     1       1.378  -1.488   0.000  0.00  0.00    +0.000 C 
ATOM     14  O   UNL     1       0.671  -1.068   0.000  0.00  0.00    +0.000 OA
ATOM     15  O   UNL     1       1.378  -2.228   0.000  0.00  0.00    +0.000 OA
ENDBRANCH  12  13
ENDBRANCH   3  12
BRANCH   9  16
ATOM     16  C   UNL     1       0.656   1.382   0.000  0.00  0.00    +0.000 C 
BRANCH  16  17
ATOM     17  C   UNL     1      -0.018   1.382   0.000  0.00  0.00    +0.000 A 
ATOM     18  N   UNL     1      -0.460   0.729   0.000  0.00  0.00    +0.000 NA
ATOM     19  S   UNL     1      -0.460   2.053   0.000  0.00  0.00    +0.000 S 
ATOM     20  C   UNL     1      -1.247   0.996   0.000  0.00  0.00    +0.000 A 
ATOM     21  C   UNL     1      -1.247   1.805   0.000  0.00  0.00    +0.000 A 
ATOM     22  C   UNL     1      -1.951   0.598   0.000  0.00  0.00    +0.000 A 
ATOM     23  C   UNL     1      -1.951   2.228   0.000  0.00  0.00    +0.000 A 
ATOM     24  C   UNL     1      -2.680   1.021   0.000  0.00  0.00    +0.000 A 
ATOM     25  C   UNL     1      -2.680   1.805   0.000  0.00  0.00    +0.000 A 
BRANCH  24  26
ATOM     26  C   UNL     1      -3.421   0.598   0.000  0.00  0.00    +0.000 C 
ATOM     27  F   UNL     1      -3.771   1.382   0.000  0.00  0.00    +0.000 F 
ATOM     28  F   UNL     1      -4.248   0.365   0.000  0.00  0.00    +0.000 F 
ATOM     29  F   UNL     1      -3.231  -0.204   0.000  0.00  0.00    +0.000 F 
ENDBRANCH  24  26
ENDBRANCH  16  17
ENDBRANCH   9  16
TORSDOF 5
