REMARK  Name = 
REMARK  4 active torsions:
REMARK  status: ('A' for Active; 'I' for Inactive)
REMARK    1  A    between atoms: C_3  and  C_12
REMARK    2  A    between atoms: P_8  and  O_20
REMARK    3  A    between atoms: C_12  and  C_19
REMARK    4  A    between atoms: C_19  and  O_20
REMARK                            x       y       z     vdW  Elec       q    Type
REMARK                         _______ _______ _______ _____ _____    ______ ____
ROOT
ATOM      1  C   UNL     1       0.321   0.118   0.000  0.00  0.00    +0.000 C 
ATOM      2  C   UNL     1      -1.821  -1.097   0.000  0.00  0.00    +0.000 C 
ATOM      3  C   UNL     1       1.112   0.364   0.000  0.00  0.00    +0.000 C 
ATOM      4  C   UNL     1      -0.403  -1.102   0.000  0.00  0.00    +0.000 C 
ATOM      5  C   UNL     1       0.316  -0.697   0.000  0.00  0.00    +0.000 C 
ATOM      6  C   UNL     1      -1.112  -0.692   0.000  0.00  0.00    +0.000 C 
ATOM      7  C   UNL     1      -1.821  -1.927   0.000  0.00  0.00    +0.000 C 
ATOM      8  C   UNL     1      -0.388   0.547   0.000  0.00  0.00    +0.000 C 
ATOM      9  C   UNL     1      -1.102   0.133   0.000  0.00  0.00    +0.000 C 
ATOM     10  C   UNL     1      -2.535  -0.692   0.000  0.00  0.00    +0.000 C 
ATOM     11  C   UNL     1      -2.535  -2.333   0.000  0.00  0.00    +0.000 C 
ATOM     12  C   UNL     1       1.589  -0.301   0.000  0.00  0.00    +0.000 C 
ATOM     13  C   UNL     1       1.097  -0.967   0.000  0.00  0.00    +0.000 C 
ATOM     14  C   UNL     1      -0.403  -1.927   0.000  0.00  0.00    +0.000 C 
ATOM     15  C   UNL     1      -3.254  -1.097   0.000  0.00  0.00    +0.000 C 
ATOM     16  C   UNL     1      -3.254  -1.927   0.000  0.00  0.00    +0.000 C 
ATOM     17  C   UNL     1      -1.112  -2.342   0.000  0.00  0.00    +0.000 C 
ATOM     18  O   UNL     1      -3.963  -2.333   0.000  0.00  0.00    +0.000 OA
ATOM     19  O   UNL     1       1.826   0.784   0.000  0.00  0.00    +0.000 OA
ATOM     20  C   UNL     1       0.316   0.943   0.000  0.00  0.00    +0.000 C 
ATOM     21  O   UNL     1      -1.821   0.552   0.000  0.00  0.00    +0.000 OA
ATOM     22  C   UNL     1      -1.826  -0.277   0.000  0.00  0.00    +0.000 C 
ENDROOT
BRANCH   3  23
ATOM     23  C   UNL     1       1.102   1.189   0.000  0.00  0.00    +0.000 C 
ATOM     24  O   UNL     1       0.388   1.604   0.000  0.00  0.00    +0.000 OA
BRANCH  23  25
ATOM     25  C   UNL     1       1.812   1.619   0.000  0.00  0.00    +0.000 C 
BRANCH  25  26
ATOM     26  O   UNL     1       2.535   1.204   0.000  0.00  0.00    +0.000 OA
BRANCH  26  27
ATOM     27  P   UNL     1       3.244   1.623   0.000  0.00  0.00    +0.000 P 
ATOM     28  O   UNL     1       3.963   1.213   0.000  0.00  0.00    +0.000 OA
ATOM     29  O   UNL     1       3.650   2.342   0.000  0.00  0.00    +0.000 OA
ATOM     30  O   UNL     1       2.825   2.342   0.000  0.00  0.00    +0.000 OA
ENDBRANCH  26  27
ENDBRANCH  25  26
ENDBRANCH  23  25
ENDBRANCH   3  23
TORSDOF 4
