REMARK  Name = 
REMARK  3 active torsions:
REMARK  status: ('A' for Active; 'I' for Inactive)
REMARK    1  A    between atoms: O_1  and  C_5
REMARK    2  A    between atoms: O_1  and  C_12
REMARK    3  A    between atoms: C_6  and  C_11
REMARK                            x       y       z     vdW  Elec       q    Type
REMARK                         _______ _______ _______ _____ _____    ______ ____
ROOT
ATOM      1  C   UNL     1       0.357  -0.206   0.000  0.00  0.00    +0.000 A 
ATOM      2  C   UNL     1       1.072   0.206   0.000  0.00  0.00    +0.000 A 
ATOM      3  C   UNL     1       0.357  -1.031   0.000  0.00  0.00    +0.000 A 
ATOM      4  C   UNL     1       1.786  -0.206   0.000  0.00  0.00    +0.000 A 
ATOM      5  C   UNL     1       1.072  -1.444   0.000  0.00  0.00    +0.000 A 
ATOM      6  C   UNL     1       1.786  -1.031   0.000  0.00  0.00    +0.000 A 
ENDROOT
BRANCH   2   9
ATOM      7  O   UNL     1       1.786   1.444   0.000  0.00  0.00    +0.000 OA
ATOM      8  O   UNL     1       0.357   1.444   0.000  0.00  0.00    +0.000 OA
ATOM      9  C   UNL     1       1.072   1.031   0.000  0.00  0.00    +0.000 C 
ENDBRANCH   2   9
BRANCH   1  10
ATOM     10  O   UNL     1      -0.357   0.206   0.000  0.00  0.00    +0.000 OA
BRANCH  10  12
ATOM     11  O   UNL     1      -1.072  -1.031   0.000  0.00  0.00    +0.000 OA
ATOM     12  C   UNL     1      -1.072  -0.206   0.000  0.00  0.00    +0.000 C 
ATOM     13  C   UNL     1      -1.786   0.206   0.000  0.00  0.00    +0.000 C 
ENDBRANCH  10  12
ENDBRANCH   1  10
TORSDOF 3
