REMARK  Name = 
REMARK  15 active torsions:
REMARK  status: ('A' for Active; 'I' for Inactive)
REMARK    1  A    between atoms: C_9  and  C_13
REMARK    2  A    between atoms: C_9  and  C_14
REMARK    3  A    between atoms: C_12  and  C_15
REMARK    4  A    between atoms: C_12  and  C_21
REMARK    5  A    between atoms: C_13  and  C_28
REMARK    6  A    between atoms: C_14  and  N_30
REMARK    7  A    between atoms: C_15  and  N_30
REMARK    8  A    between atoms: C_19  and  C_28
REMARK    9  A    between atoms: C_20  and  C_28
REMARK   10  A    between atoms: C_22  and  C_28
REMARK   11  A    between atoms: C_23  and  O_31
REMARK   12  A    between atoms: C_24  and  O_32
REMARK   13  A    between atoms: C_25  and  O_33
REMARK   14  A    between atoms: C_26  and  O_34
REMARK   15  A    between atoms: C_27  and  O_35
REMARK                            x       y       z     vdW  Elec       q    Type
REMARK                         _______ _______ _______ _____ _____    ______ ____
ROOT
ATOM      1  C   UNL     1       5.716  -4.950   0.000  0.00  0.00    +0.000 C 
ENDROOT
BRANCH   1   4
ATOM      2  C   UNL     1       7.145  -4.950   0.000  0.00  0.00    +0.000 A 
ATOM      3  C   UNL     1       6.430  -6.188   0.000  0.00  0.00    +0.000 A 
ATOM      4  C   UNL     1       6.430  -5.362   0.000  0.00  0.00    +0.000 A 
ATOM      5  C   UNL     1       7.859  -5.362   0.000  0.00  0.00    +0.000 A 
ATOM      6  C   UNL     1       7.145  -6.600   0.000  0.00  0.00    +0.000 A 
ATOM      7  C   UNL     1       7.859  -6.188   0.000  0.00  0.00    +0.000 A 
BRANCH   5   9
ATOM      8  C   UNL     1       9.288  -5.362   0.000  0.00  0.00    +0.000 C 
ATOM      9  O   UNL     1       8.574  -4.950   0.000  0.00  0.00    +0.000 OA
ENDBRANCH   5   9
BRANCH   6  11
ATOM     10  C   UNL     1       7.859  -7.838   0.000  0.00  0.00    +0.000 C 
ATOM     11  O   UNL     1       7.145  -7.425   0.000  0.00  0.00    +0.000 OA
ENDBRANCH   6  11
BRANCH   7  13
ATOM     12  C   UNL     1       9.288  -6.188   0.000  0.00  0.00    +0.000 C 
ATOM     13  O   UNL     1       8.574  -6.600   0.000  0.00  0.00    +0.000 OA
ENDBRANCH   7  13
ENDBRANCH   1   4
BRANCH   1  16
ATOM     14  C   UNL     1       5.716  -3.521   0.000  0.00  0.00    +0.000 C 
ATOM     15  C   UNL     1       6.953  -4.236   0.000  0.00  0.00    +0.000 C 
ATOM     16  C   UNL     1       6.128  -4.236   0.000  0.00  0.00    +0.000 C 
ENDBRANCH   1  16
BRANCH   1  17
ATOM     17  C   UNL     1       5.303  -5.665   0.000  0.00  0.00    +0.000 C 
ATOM     18  N   UNL     1       4.891  -6.379   0.000  0.00  0.00    +0.000 NA
ENDBRANCH   1  17
BRANCH   1  19
ATOM     19  C   UNL     1       5.001  -4.537   0.000  0.00  0.00    +0.000 C 
BRANCH  19  20
ATOM     20  C   UNL     1       4.287  -4.950   0.000  0.00  0.00    +0.000 C 
BRANCH  20  21
ATOM     21  C   UNL     1       3.572  -4.537   0.000  0.00  0.00    +0.000 C 
BRANCH  21  23
ATOM     22  C   UNL     1       2.858  -5.775   0.000  0.00  0.00    +0.000 C 
ATOM     23  N   UNL     1       2.858  -4.950   0.000  0.00  0.00    +0.000 NA
BRANCH  23  24
ATOM     24  C   UNL     1       2.143  -4.537   0.000  0.00  0.00    +0.000 C 
BRANCH  24  25
ATOM     25  C   UNL     1       1.429  -4.950   0.000  0.00  0.00    +0.000 C 
BRANCH  25  29
ATOM     26  C   UNL     1       0.715  -3.712   0.000  0.00  0.00    +0.000 A 
ATOM     27  C   UNL     1       0.000  -3.300   0.000  0.00  0.00    +0.000 A 
ATOM     28  C   UNL     1       0.000  -4.950   0.000  0.00  0.00    +0.000 A 
ATOM     29  C   UNL     1       0.715  -4.537   0.000  0.00  0.00    +0.000 A 
ATOM     30  C   UNL     1      -0.715  -3.712   0.000  0.00  0.00    +0.000 A 
ATOM     31  C   UNL     1      -0.715  -4.537   0.000  0.00  0.00    +0.000 A 
BRANCH  31  33
ATOM     32  C   UNL     1      -2.143  -4.537   0.000  0.00  0.00    +0.000 C 
ATOM     33  O   UNL     1      -1.429  -4.950   0.000  0.00  0.00    +0.000 OA
ENDBRANCH  31  33
BRANCH  30  35
ATOM     34  C   UNL     1      -2.143  -3.712   0.000  0.00  0.00    +0.000 C 
ATOM     35  O   UNL     1      -1.429  -3.300   0.000  0.00  0.00    +0.000 OA
ENDBRANCH  30  35
ENDBRANCH  25  29
ENDBRANCH  24  25
ENDBRANCH  23  24
ENDBRANCH  21  23
ENDBRANCH  20  21
ENDBRANCH  19  20
ENDBRANCH   1  19
TORSDOF 15
