REMARK  Name = 
REMARK  4 active torsions:
REMARK  status: ('A' for Active; 'I' for Inactive)
REMARK    1  A    between atoms: C_9  and  C_16
REMARK    2  A    between atoms: C_9  and  N_23
REMARK    3  A    between atoms: C_15  and  N_24
REMARK    4  A    between atoms: C_17  and  C_20
REMARK                            x       y       z     vdW  Elec       q    Type
REMARK                         _______ _______ _______ _____ _____    ______ ____
ROOT
ATOM      1  C   UNL     1       1.570   1.794   0.000  0.00  0.00    +0.000 C 
ATOM      2  C   UNL     1       4.423  -0.328   0.000  0.00  0.00    +0.000 A 
ATOM      3  C   UNL     1       3.697   1.153   0.000  0.00  0.00    +0.000 A 
ATOM      4  C   UNL     1       1.729   0.985   0.000  0.00  0.00    +0.000 C 
ATOM      5  C   UNL     1       3.600  -0.272   0.000  0.00  0.00    +0.000 A 
ATOM      6  C   UNL     1       4.883   0.356   0.000  0.00  0.00    +0.000 A 
ATOM      7  C   UNL     1       3.237   0.469   0.000  0.00  0.00    +0.000 A 
ATOM      8  C   UNL     1       4.520   1.097   0.000  0.00  0.00    +0.000 A 
ATOM      9  C   UNL     1       2.317  -0.901   0.000  0.00  0.00    +0.000 A 
ATOM     10  C   UNL     1       3.140  -0.957   0.000  0.00  0.00    +0.000 A 
ATOM     11  C   UNL     1       1.954  -0.160   0.000  0.00  0.00    +0.000 A 
ATOM     12  F   UNL     1       5.706   0.300   0.000  0.00  0.00    +0.000 F 
ATOM     13  N   UNL     1       2.414   0.525   0.000  0.00  0.00    +0.000 N 
ATOM     14  O   UNL     1       3.503  -1.698   0.000  0.00  0.00    +0.000 OA
ATOM     15  S   UNL     1       1.269   0.300   0.000  0.00  0.00    +0.000 S 
ENDROOT
BRANCH   8  21
ATOM     16  C   UNL     1       5.078   3.208   0.000  0.00  0.00    +0.000 C 
ATOM     17  C   UNL     1       6.264   2.411   0.000  0.00  0.00    +0.000 C 
ATOM     18  C   UNL     1       4.617   2.523   0.000  0.00  0.00    +0.000 C 
ATOM     19  C   UNL     1       5.803   1.726   0.000  0.00  0.00    +0.000 C 
ATOM     20  N   UNL     1       5.901   3.151   0.000  0.00  0.00    +0.000 NA
ATOM     21  N   UNL     1       4.980   1.782   0.000  0.00  0.00    +0.000 N 
BRANCH  20  22
ATOM     22  C   UNL     1       6.361   3.836   0.000  0.00  0.00    +0.000 C 
BRANCH  22  25
ATOM     23  C   UNL     1       4.593   4.145   0.000  0.00  0.00    +0.000 C 
ATOM     24  C   UNL     1       5.185   4.719   0.000  0.00  0.00    +0.000 A 
ATOM     25  C   UNL     1       5.998   4.577   0.000  0.00  0.00    +0.000 A 
ATOM     26  C   UNL     1       5.810   5.899   0.000  0.00  0.00    +0.000 A 
ATOM     27  O   UNL     1       5.952   6.711   0.000  0.00  0.00    +0.000 OA
ATOM     28  O   UNL     1       5.069   5.536   0.000  0.00  0.00    +0.000 OA
ATOM     29  O   UNL     1       6.384   5.306   0.000  0.00  0.00    +0.000 OA
ENDBRANCH  22  25
ENDBRANCH  20  22
ENDBRANCH   8  21
BRANCH   9  30
ATOM     30  C   UNL     1       1.857  -1.586   0.000  0.00  0.00    +0.000 C 
ATOM     31  O   UNL     1       1.033  -1.529   0.000  0.00  0.00    +0.000 OA
ATOM     32  O   UNL     1       2.219  -2.326   0.000  0.00  0.00    +0.000 OA
ENDBRANCH   9  30
TORSDOF 4
