REMARK  Name = 
REMARK  7 active torsions:
REMARK  status: ('A' for Active; 'I' for Inactive)
REMARK    1  A    between atoms: C_3  and  C_16
REMARK    2  A    between atoms: C_8  and  C_9
REMARK    3  A    between atoms: C_10  and  C_11
REMARK    4  A    between atoms: C_16  and  N_20
REMARK    5  A    between atoms: C_21  and  C_23
REMARK    6  A    between atoms: C_29  and  C_30
REMARK    7  A    between atoms: C_35  and  C_38
REMARK                            x       y       z     vdW  Elec       q    Type
REMARK                         _______ _______ _______ _____ _____    ______ ____
ROOT
ATOM      1  N   UNL     1       3.499   1.110   0.000  0.00  0.00    +0.000 NA
ATOM      2  C   UNL     1       2.784   0.698   0.000  0.00  0.00    +0.000 C 
ATOM      3  O   UNL     1       2.784  -0.127   0.000  0.00  0.00    +0.000 OA
ENDROOT
BRANCH   2   4
ATOM      4  C   UNL     1       2.070   1.110   0.000  0.00  0.00    +0.000 A 
ATOM      5  C   UNL     1       1.356   0.698   0.000  0.00  0.00    +0.000 A 
ATOM      6  C   UNL     1       0.641   1.110   0.000  0.00  0.00    +0.000 A 
ATOM      7  C   UNL     1       0.641   1.935   0.000  0.00  0.00    +0.000 A 
ATOM      8  C   UNL     1       1.356   2.348   0.000  0.00  0.00    +0.000 A 
ATOM      9  C   UNL     1       2.070   1.935   0.000  0.00  0.00    +0.000 A 
ATOM     10  C   UNL     1      -0.143   2.190   0.000  0.00  0.00    +0.000 A 
ATOM     11  C   UNL     1      -0.628   1.523   0.000  0.00  0.00    +0.000 A 
ATOM     12  N   UNL     1      -0.143   0.856   0.000  0.00  0.00    +0.000 N 
ATOM     13  C   UNL     1      -0.398   0.071   0.000  0.00  0.00    +0.000 C 
BRANCH  11  14
ATOM     14  C   UNL     1      -1.453   1.523   0.000  0.00  0.00    +0.000 A 
ATOM     15  N   UNL     1      -1.866   0.808   0.000  0.00  0.00    +0.000 NA
ATOM     16  C   UNL     1      -2.691   0.808   0.000  0.00  0.00    +0.000 A 
ATOM     17  C   UNL     1      -3.103   1.523   0.000  0.00  0.00    +0.000 A 
ATOM     18 BR   UNL     1      -3.928   1.523   0.000  0.00  0.00    +0.000 Br
ATOM     19  C   UNL     1      -2.691   2.237   0.000  0.00  0.00    +0.000 A 
ATOM     20  N   UNL     1      -1.866   2.237   0.000  0.00  0.00    +0.000 NA
ENDBRANCH  11  14
BRANCH  10  21
ATOM     21  C   UNL     1      -0.398   2.975   0.000  0.00  0.00    +0.000 C 
ATOM     22  C   UNL     1      -1.183   3.230   0.000  0.00  0.00    +0.000 C 
ATOM     23  C   UNL     1      -1.183   4.055   0.000  0.00  0.00    +0.000 C 
ATOM     24  C   UNL     1      -0.398   4.310   0.000  0.00  0.00    +0.000 C 
ATOM     25  C   UNL     1       0.086   3.642   0.000  0.00  0.00    +0.000 C 
ENDBRANCH  10  21
ENDBRANCH   2   4
BRANCH   1  26
ATOM     26  C   UNL     1       4.213   0.698   0.000  0.00  0.00    +0.000 C 
ATOM     27  C   UNL     1       3.801  -0.017   0.000  0.00  0.00    +0.000 C 
ATOM     28  C   UNL     1       4.515  -0.429   0.000  0.00  0.00    +0.000 C 
ATOM     29  C   UNL     1       4.928   0.285   0.000  0.00  0.00    +0.000 C 
BRANCH  26  32
ATOM     30  C   UNL     1       5.998   0.886   0.000  0.00  0.00    +0.000 C 
ATOM     31  N   UNL     1       5.446   1.499   0.000  0.00  0.00    +0.000 N 
ATOM     32  C   UNL     1       4.626   1.412   0.000  0.00  0.00    +0.000 A 
ATOM     33  N   UNL     1       4.290   2.166   0.000  0.00  0.00    +0.000 NA
ATOM     34  C   UNL     1       4.904   2.718   0.000  0.00  0.00    +0.000 A 
ATOM     35  C   UNL     1       5.618   2.306   0.000  0.00  0.00    +0.000 A 
ATOM     36  C   UNL     1       6.332   2.718   0.000  0.00  0.00    +0.000 A 
ATOM     37  C   UNL     1       6.332   3.543   0.000  0.00  0.00    +0.000 A 
ATOM     38  C   UNL     1       5.618   3.956   0.000  0.00  0.00    +0.000 A 
ATOM     39  C   UNL     1       4.904   3.543   0.000  0.00  0.00    +0.000 A 
BRANCH  37  40
ATOM     40  C   UNL     1       7.047   3.956   0.000  0.00  0.00    +0.000 C 
ATOM     41  C   UNL     1       7.761   3.543   0.000  0.00  0.00    +0.000 C 
BRANCH  41  42
ATOM     42  C   UNL     1       8.476   3.956   0.000  0.00  0.00    +0.000 C 
ATOM     43  O   UNL     1       9.190   3.543   0.000  0.00  0.00    +0.000 OA
ATOM     44  O   UNL     1       8.476   4.781   0.000  0.00  0.00    +0.000 OA
ENDBRANCH  41  42
ENDBRANCH  37  40
ENDBRANCH  26  32
ENDBRANCH   1  26
TORSDOF 7
