REMARK  Name = 
REMARK  0 active torsions:
REMARK  status: ('A' for Active; 'I' for Inactive)
REMARK                            x       y       z     vdW  Elec       q    Type
REMARK                         _______ _______ _______ _____ _____    ______ ____
ROOT
ATOM      1  O   UNL     1      -0.710  -0.224   0.000  0.00  0.00    +0.000 OA
ATOM      2  O   UNL     1       0.710  -0.164   0.000  0.00  0.00    +0.000 OA
ATOM      3  N   UNL     1      -0.016   0.224   0.000  0.00  0.00    +0.000 NA
ENDROOT
TORSDOF 0
