REMARK  Name = 
REMARK  4 active torsions:
REMARK  status: ('A' for Active; 'I' for Inactive)
REMARK    1  A    between atoms: C_6  and  O_14
REMARK    2  A    between atoms: O_14  and  C_21
REMARK    3  A    between atoms: C_15  and  C_22
REMARK    4  A    between atoms: C_21  and  C_24
REMARK                            x       y       z     vdW  Elec       q    Type
REMARK                         _______ _______ _______ _____ _____    ______ ____
ROOT
ATOM      1  C   UNL     1       0.331   0.459   0.000  0.00  0.00    +0.000 C 
ATOM      2  C   UNL     1      -0.411   0.099   0.000  0.00  0.00    +0.000 C 
ATOM      3  C   UNL     1       1.075   0.102   0.000  0.00  0.00    +0.000 C 
ATOM      4  C   UNL     1       0.845   1.103   0.000  0.00  0.00    +0.000 C 
ATOM      5  C   UNL     1       0.220   1.277   0.000  0.00  0.00    +0.000 C 
ATOM      6  C   UNL     1      -0.981   0.696   0.000  0.00  0.00    +0.000 C 
ATOM      7  C   UNL     1      -0.594  -0.705   0.000  0.00  0.00    +0.000 C 
ATOM      8  O   UNL     1      -1.206  -0.120   0.000  0.00  0.00    +0.000 OA
ATOM      9  C   UNL     1       1.259  -0.704   0.000  0.00  0.00    +0.000 C 
ATOM     10  O   UNL     1       1.720   0.616   0.000  0.00  0.00    +0.000 OA
ATOM     11  C   UNL     1       1.671   1.105   0.000  0.00  0.00    +0.000 C 
ATOM     12  C   UNL     1       0.486   1.848   0.000  0.00  0.00    +0.000 C 
ATOM     13  C   UNL     1      -0.591   1.422   0.000  0.00  0.00    +0.000 C 
ATOM     14  C   UNL     1      -0.080  -1.348   0.000  0.00  0.00    +0.000 C 
ATOM     15  O   UNL     1      -1.400  -0.889   0.000  0.00  0.00    +0.000 OA
ATOM     16  C   UNL     1       2.002  -0.344   0.000  0.00  0.00    +0.000 C 
ATOM     17  C   UNL     1       0.745  -1.348   0.000  0.00  0.00    +0.000 C 
ATOM     18  C   UNL     1       2.184   0.460   0.000  0.00  0.00    +0.000 C 
ATOM     19  C   UNL     1      -0.950   2.166   0.000  0.00  0.00    +0.000 C 
ATOM     20  C   UNL     1       2.789  -0.100   0.000  0.00  0.00    +0.000 C 
ATOM     21  C   UNL     1       3.450   0.398   0.000  0.00  0.00    +0.000 C 
ATOM     22  C   UNL     1       3.169  -0.835   0.000  0.00  0.00    +0.000 C 
ENDROOT
BRANCH  14  23
ATOM     23  C   UNL     1      -0.437  -2.092   0.000  0.00  0.00    +0.000 C 
ATOM     24  O   UNL     1       0.029  -2.774   0.000  0.00  0.00    +0.000 OA
ENDBRANCH  14  23
BRANCH   6  25
ATOM     25  O   UNL     1      -1.799   0.584   0.000  0.00  0.00    +0.000 OA
BRANCH  25  26
ATOM     26  C   UNL     1      -2.184   1.316   0.000  0.00  0.00    +0.000 C 
ATOM     27  O   UNL     1      -1.743   2.012   0.000  0.00  0.00    +0.000 OA
BRANCH  26  28
ATOM     28  C   UNL     1      -3.008   1.348   0.000  0.00  0.00    +0.000 C 
ATOM     29  C   UNL     1      -3.391   2.077   0.000  0.00  0.00    +0.000 C 
ATOM     30  C   UNL     1      -3.450   0.650   0.000  0.00  0.00    +0.000 C 
ATOM     31  C   UNL     1      -2.952   2.774   0.000  0.00  0.00    +0.000 C 
ENDBRANCH  26  28
ENDBRANCH  25  26
ENDBRANCH   6  25
TORSDOF 4
