REMARK  Name = 
REMARK  11 active torsions:
REMARK  status: ('A' for Active; 'I' for Inactive)
REMARK    1  A    between atoms: C_1  and  C_2
REMARK    2  A    between atoms: C_1  and  C_7
REMARK    3  A    between atoms: C_2  and  S_3
REMARK    4  A    between atoms: C_7  and  C_8
REMARK    5  A    between atoms: C_8  and  S_9
REMARK    6  A    between atoms: S_9  and  S_10
REMARK    7  A    between atoms: S_10  and  C_11
REMARK    8  A    between atoms: C_11  and  C_12
REMARK    9  A    between atoms: C_12  and  C_13
REMARK   10  A    between atoms: C_13  and  C_14
REMARK   11  A    between atoms: C_14  and  S_15
REMARK                            x       y       z     vdW  Elec       q    Type
REMARK                         _______ _______ _______ _____ _____    ______ ____
ROOT
ATOM      1  S   UNL     1       3.189   1.841   0.000  0.00  0.00    +0.000 S 
ENDROOT
BRANCH   1   2
ATOM      2  C   UNL     1       2.475   1.429   0.000  0.00  0.00    +0.000 C 
BRANCH   2   3
ATOM      3  C   UNL     1       1.760   1.841   0.000  0.00  0.00    +0.000 C 
ATOM      4  N   UNL     1       1.760   2.666   0.000  0.00  0.00    +0.000 NA
BRANCH   3   5
ATOM      5  C   UNL     1       1.046   1.429   0.000  0.00  0.00    +0.000 C 
BRANCH   5   6
ATOM      6  C   UNL     1       0.332   1.841   0.000  0.00  0.00    +0.000 C 
BRANCH   6   7
ATOM      7  S   UNL     1      -0.383   1.429   0.000  0.00  0.00    +0.000 S 
ATOM      8  O   UNL     1      -1.097   1.016   0.000  0.00  0.00    +0.000 OA
ATOM      9  O   UNL     1       0.030   0.715   0.000  0.00  0.00    +0.000 OA
ATOM     10  O   UNL     1      -0.795   2.143   0.000  0.00  0.00    +0.000 OA
ENDBRANCH   6   7
ENDBRANCH   5   6
ENDBRANCH   3   5
ENDBRANCH   2   3
ENDBRANCH   1   2
BRANCH   1  11
ATOM     11  S   UNL     1       3.904   1.429   0.000  0.00  0.00    +0.000 S 
BRANCH  11  12
ATOM     12  C   UNL     1       4.618   1.841   0.000  0.00  0.00    +0.000 C 
BRANCH  12  13
ATOM     13  C   UNL     1       5.333   1.429   0.000  0.00  0.00    +0.000 C 
ATOM     14  N   UNL     1       5.333   0.604   0.000  0.00  0.00    +0.000 NA
BRANCH  13  15
ATOM     15  C   UNL     1       6.047   1.841   0.000  0.00  0.00    +0.000 C 
BRANCH  15  16
ATOM     16  C   UNL     1       6.762   1.429   0.000  0.00  0.00    +0.000 C 
BRANCH  16  17
ATOM     17  S   UNL     1       7.476   1.841   0.000  0.00  0.00    +0.000 S 
ATOM     18  O   UNL     1       8.191   2.254   0.000  0.00  0.00    +0.000 OA
ATOM     19  O   UNL     1       7.889   1.127   0.000  0.00  0.00    +0.000 OA
ATOM     20  O   UNL     1       7.064   2.556   0.000  0.00  0.00    +0.000 OA
ENDBRANCH  16  17
ENDBRANCH  15  16
ENDBRANCH  13  15
ENDBRANCH  12  13
ENDBRANCH  11  12
ENDBRANCH   1  11
TORSDOF 11
