REMARK  Name = 
REMARK  2 active torsions:
REMARK  status: ('A' for Active; 'I' for Inactive)
REMARK    1  A    between atoms: C_10  and  C_12
REMARK    2  A    between atoms: C_10  and  N_18
REMARK                            x       y       z     vdW  Elec       q    Type
REMARK                         _______ _______ _______ _____ _____    ______ ____
ROOT
ATOM      1  C   UNL     1      -0.171   1.523   0.000  0.00  0.00    +0.000 C 
ATOM      2  C   UNL     1       3.352   1.110   0.000  0.00  0.00    +0.000 A 
ATOM      3  C   UNL     1       3.352   1.935   0.000  0.00  0.00    +0.000 A 
ATOM      4  C   UNL     1       2.638   0.698   0.000  0.00  0.00    +0.000 A 
ATOM      5  C   UNL     1       2.638   2.348   0.000  0.00  0.00    +0.000 A 
ATOM      6  C   UNL     1       0.654   1.523   0.000  0.00  0.00    +0.000 A 
ATOM      7  C   UNL     1       1.923   1.110   0.000  0.00  0.00    +0.000 A 
ATOM      8  C   UNL     1       1.923   1.935   0.000  0.00  0.00    +0.000 A 
ATOM      9  N   UNL     1       1.139   0.856   0.000  0.00  0.00    +0.000 NA
ATOM     10  N   UNL     1       1.139   2.190   0.000  0.00  0.00    +0.000 N 
ENDROOT
BRANCH  10  11
ATOM     11  C   UNL     1       0.884   2.975   0.000  0.00  0.00    +0.000 C 
BRANCH  11  16
ATOM     12  C   UNL     1      -0.178   3.931   0.000  0.00  0.00    +0.000 A 
ATOM     13  C   UNL     1      -0.475   2.533   0.000  0.00  0.00    +0.000 A 
ATOM     14  C   UNL     1      -0.985   4.103   0.000  0.00  0.00    +0.000 A 
ATOM     15  C   UNL     1      -1.282   2.705   0.000  0.00  0.00    +0.000 A 
ATOM     16  C   UNL     1       0.077   3.147   0.000  0.00  0.00    +0.000 A 
ATOM     17  C   UNL     1      -1.537   3.490   0.000  0.00  0.00    +0.000 A 
ATOM     18 CL   UNL     1      -2.344   3.661   0.000  0.00  0.00    +0.000 Cl
ENDBRANCH  11  16
ENDBRANCH  10  11
TORSDOF 2
