REMARK  Name = 
REMARK  4 active torsions:
REMARK  status: ('A' for Active; 'I' for Inactive)
REMARK    1  A    between atoms: C_9  and  C_15
REMARK    2  A    between atoms: C_10  and  N_18
REMARK    3  A    between atoms: C_13  and  N_17
REMARK    4  A    between atoms: C_14  and  C_15
REMARK                            x       y       z     vdW  Elec       q    Type
REMARK                         _______ _______ _______ _____ _____    ______ ____
ROOT
ATOM      1  C   UNL     1      -1.429  -0.412   0.000  0.00  0.00    +0.000 A 
ATOM      2  C   UNL     1      -0.714  -0.825   0.000  0.00  0.00    +0.000 A 
ATOM      3  C   UNL     1      -0.714   0.825   0.000  0.00  0.00    +0.000 A 
ATOM      4  C   UNL     1       1.429   0.412   0.000  0.00  0.00    +0.000 C 
ATOM      5  C   UNL     1      -1.429   0.412   0.000  0.00  0.00    +0.000 A 
ATOM      6  C   UNL     1       0.000   0.412   0.000  0.00  0.00    +0.000 A 
ATOM      7  C   UNL     1       0.000  -0.412   0.000  0.00  0.00    +0.000 A 
ATOM      8  C   UNL     1       0.714   0.825   0.000  0.00  0.00    +0.000 C 
ATOM      9  C   UNL     1       1.429  -0.412   0.000  0.00  0.00    +0.000 C 
ATOM     10  N   UNL     1       0.714  -0.825   0.000  0.00  0.00    +0.000 NA
ENDROOT
BRANCH   9  13
ATOM     11  C   UNL     1       2.556  -0.111   0.000  0.00  0.00    +0.000 C 
ATOM     12  C   UNL     1       1.731  -1.539   0.000  0.00  0.00    +0.000 C 
ATOM     13  C   UNL     1       2.143  -0.825   0.000  0.00  0.00    +0.000 C 
BRANCH  13  14
ATOM     14  C   UNL     1       2.858  -1.238   0.000  0.00  0.00    +0.000 C 
ATOM     15  O   UNL     1       2.858  -2.062   0.000  0.00  0.00    +0.000 OA
ENDBRANCH  13  14
ENDBRANCH   9  13
BRANCH   8  18
ATOM     16  C   UNL     1       0.000   2.062   0.000  0.00  0.00    +0.000 C 
ATOM     17  C   UNL     1       1.429   2.062   0.000  0.00  0.00    +0.000 C 
ATOM     18  N   UNL     1       0.714   1.650   0.000  0.00  0.00    +0.000 NA
ENDBRANCH   8  18
BRANCH   5  19
ATOM     19  N   UNL     1      -2.143   0.825   0.000  0.00  0.00    +0.000 N 
ATOM     20  O   UNL     1      -2.858   0.412   0.000  0.00  0.00    +0.000 OA
ATOM     21  O   UNL     1      -2.143   1.650   0.000  0.00  0.00    +0.000 OA
ENDBRANCH   5  19
TORSDOF 4
