REMARK  Name = 
REMARK  10 active torsions:
REMARK  status: ('A' for Active; 'I' for Inactive)
REMARK    1  A    between atoms: C_5  and  C_39
REMARK    2  A    between atoms: C_8  and  C_9
REMARK    3  A    between atoms: C_8  and  C_10
REMARK    4  A    between atoms: C_9  and  O_36
REMARK    5  A    between atoms: C_11  and  O_33
REMARK    6  A    between atoms: C_19  and  C_42
REMARK    7  A    between atoms: C_20  and  O_58
REMARK    8  A    between atoms: C_21  and  C_29
REMARK    9  A    between atoms: C_42  and  O_45
REMARK   10  A    between atoms: O_58  and  C_59
REMARK                            x       y       z     vdW  Elec       q    Type
REMARK                         _______ _______ _______ _____ _____    ______ ____
ROOT
ATOM      1  C   UNL     1      -0.736  -1.010   0.000  0.00  0.00    +0.000 A 
ATOM      2  C   UNL     1      -0.731  -1.833   0.000  0.00  0.00    +0.000 A 
ATOM      3  C   UNL     1      -0.016  -2.238   0.000  0.00  0.00    +0.000 A 
ATOM      4  C   UNL     1      -0.032  -0.593   0.000  0.00  0.00    +0.000 A 
ATOM      5  C   UNL     1       0.683  -0.994   0.000  0.00  0.00    +0.000 A 
ATOM      6  C   UNL     1       0.696  -1.817   0.000  0.00  0.00    +0.000 A 
ATOM      7  N   UNL     1       1.482  -2.059   0.000  0.00  0.00    +0.000 N 
ATOM      8  C   UNL     1       1.462  -0.728   0.000  0.00  0.00    +0.000 C 
ATOM      9  C   UNL     1       1.954  -1.388   0.000  0.00  0.00    +0.000 C 
ATOM     10  C   UNL     1       2.768  -1.292   0.000  0.00  0.00    +0.000 C 
ATOM     11  C   UNL     1       3.096  -0.537   0.000  0.00  0.00    +0.000 C 
ATOM     12  C   UNL     1       2.604   0.121   0.000  0.00  0.00    +0.000 C 
ATOM     13  C   UNL     1       2.934   0.874   0.000  0.00  0.00    +0.000 C 
ATOM     14  C   UNL     1       2.446   1.540   0.000  0.00  0.00    +0.000 C 
ATOM     15  C   UNL     1       1.624   1.449   0.000  0.00  0.00    +0.000 C 
ATOM     16  C   UNL     1       1.788   0.027   0.000  0.00  0.00    +0.000 C 
ATOM     17  N   UNL     1       1.291   0.691   0.000  0.00  0.00    +0.000 NA
ATOM     18  C   UNL     1       0.506   0.423   0.000  0.00  0.00    +0.000 C 
ATOM     19  C   UNL     1       0.518  -0.406   0.000  0.00  0.00    +0.000 C 
ATOM     20  C   UNL     1       1.750  -2.840   0.000  0.00  0.00    +0.000 C 
ATOM     21  O   UNL     1       2.764  -2.112   0.000  0.00  0.00    +0.000 OA
ENDROOT
BRANCH   1  29
ATOM     22  N   UNL     1      -1.435   1.831   0.000  0.00  0.00    +0.000 NA
ATOM     23  C   UNL     1      -1.432   1.005   0.000  0.00  0.00    +0.000 C 
ATOM     24  C   UNL     1      -0.720   0.597   0.000  0.00  0.00    +0.000 C 
ATOM     25  C   UNL     1      -0.005   1.010   0.000  0.00  0.00    +0.000 C 
ATOM     26  C   UNL     1      -0.008   1.837   0.000  0.00  0.00    +0.000 C 
ATOM     27  C   UNL     1      -0.726   2.249   0.000  0.00  0.00    +0.000 C 
ATOM     28  C   UNL     1      -0.718  -0.228   0.000  0.00  0.00    +0.000 C 
ATOM     29  C   UNL     1      -1.451  -0.606   0.000  0.00  0.00    +0.000 C 
ATOM     30  C   UNL     1      -4.985   1.534   0.000  0.00  0.00    +0.000 A 
ATOM     31  C   UNL     1      -5.239   0.746   0.000  0.00  0.00    +0.000 A 
ATOM     32  C   UNL     1      -4.686   0.134   0.000  0.00  0.00    +0.000 A 
ATOM     33  C   UNL     1      -4.181   1.708   0.000  0.00  0.00    +0.000 A 
ATOM     34  C   UNL     1      -3.625   1.099   0.000  0.00  0.00    +0.000 A 
ATOM     35  C   UNL     1      -3.880   0.308   0.000  0.00  0.00    +0.000 A 
ATOM     36  N   UNL     1      -3.206  -0.178   0.000  0.00  0.00    +0.000 NA
ATOM     37  C   UNL     1      -2.535   0.312   0.000  0.00  0.00    +0.000 A 
ATOM     38  C   UNL     1      -2.794   1.102   0.000  0.00  0.00    +0.000 A 
ATOM     39  C   UNL     1      -2.409   1.829   0.000  0.00  0.00    +0.000 C 
BRANCH  29  40
ATOM     40  C   UNL     1      -2.075  -1.149   0.000  0.00  0.00    +0.000 C 
ATOM     41  O   UNL     1      -1.910  -1.956   0.000  0.00  0.00    +0.000 OA
BRANCH  40  42
ATOM     42  O   UNL     1      -2.857  -0.885   0.000  0.00  0.00    +0.000 OA
ATOM     43  C   UNL     1      -3.476  -1.430   0.000  0.00  0.00    +0.000 C 
ENDBRANCH  40  42
ENDBRANCH  29  40
BRANCH  26  44
ATOM     44  C   UNL     1       0.705   2.251   0.000  0.00  0.00    +0.000 C 
ATOM     45  C   UNL     1       0.703   3.076   0.000  0.00  0.00    +0.000 C 
ENDBRANCH  26  44
ENDBRANCH   1  29
BRANCH  12  46
ATOM     46  C   UNL     1       3.396   0.342   0.000  0.00  0.00    +0.000 C 
ATOM     47  C   UNL     1       3.600   1.141   0.000  0.00  0.00    +0.000 C 
ENDBRANCH  12  46
BRANCH   2  48
ATOM     48  O   UNL     1      -1.442  -2.251   0.000  0.00  0.00    +0.000 OA
ATOM     49  C   UNL     1      -1.436  -3.076   0.000  0.00  0.00    +0.000 C 
ENDBRANCH   2  48
BRANCH  10  50
ATOM     50  C   UNL     1       3.483  -1.704   0.000  0.00  0.00    +0.000 C 
ATOM     51  O   UNL     1       3.484  -2.529   0.000  0.00  0.00    +0.000 OA
BRANCH  50  52
ATOM     52  O   UNL     1       4.197  -1.291   0.000  0.00  0.00    +0.000 OA
ATOM     53  C   UNL     1       4.912  -1.703   0.000  0.00  0.00    +0.000 C 
ENDBRANCH  50  52
ENDBRANCH  10  50
BRANCH  11  54
ATOM     54  O   UNL     1       3.811  -0.950   0.000  0.00  0.00    +0.000 OA
BRANCH  54  55
ATOM     55  C   UNL     1       4.525  -0.537   0.000  0.00  0.00    +0.000 C 
ATOM     56  C   UNL     1       5.239  -0.950   0.000  0.00  0.00    +0.000 C 
ATOM     57  O   UNL     1       4.525   0.288   0.000  0.00  0.00    +0.000 OA
ENDBRANCH  54  55
ENDBRANCH  11  54
TORSDOF 10
