REMARK  Name = 
REMARK  6 active torsions:
REMARK  status: ('A' for Active; 'I' for Inactive)
REMARK    1  A    between atoms: C_5  and  C_6
REMARK    2  A    between atoms: C_5  and  N_18
REMARK    3  A    between atoms: C_6  and  N_22
REMARK    4  A    between atoms: C_8  and  C_13
REMARK    5  A    between atoms: C_8  and  N_18
REMARK    6  A    between atoms: C_10  and  C_13
REMARK                            x       y       z     vdW  Elec       q    Type
REMARK                         _______ _______ _______ _____ _____    ______ ____
ROOT
ATOM      1  C   UNL     1      -1.420  -0.381   0.000  0.00  0.00    +0.000 C 
ENDROOT
BRANCH   1  12
ATOM      2  C   UNL     1      -4.799   0.751   0.000  0.00  0.00    +0.000 C 
ATOM      3  C   UNL     1      -4.205  -2.044   0.000  0.00  0.00    +0.000 C 
ATOM      4  C   UNL     1      -2.221   0.853   0.000  0.00  0.00    +0.000 A 
ATOM      5  C   UNL     1      -2.888  -0.304   0.000  0.00  0.00    +0.000 A 
ATOM      6  C   UNL     1      -3.440   0.309   0.000  0.00  0.00    +0.000 A 
ATOM      7  C   UNL     1      -3.143  -1.088   0.000  0.00  0.00    +0.000 A 
ATOM      8  C   UNL     1      -4.502  -0.647   0.000  0.00  0.00    +0.000 A 
ATOM      9  N   UNL     1      -3.028   1.024   0.000  0.00  0.00    +0.000 NA
ATOM     10  N   UNL     1      -4.247   0.138   0.000  0.00  0.00    +0.000 N 
ATOM     11  N   UNL     1      -3.950  -1.260   0.000  0.00  0.00    +0.000 N 
ATOM     12  N   UNL     1      -2.135   0.032   0.000  0.00  0.00    +0.000 N 
ATOM     13  O   UNL     1      -2.591  -1.701   0.000  0.00  0.00    +0.000 OA
ATOM     14  O   UNL     1      -5.309  -0.818   0.000  0.00  0.00    +0.000 OA
ENDBRANCH   1  12
BRANCH   1  15
ATOM     15  C   UNL     1      -0.706   0.032   0.000  0.00  0.00    +0.000 C 
BRANCH  15  16
ATOM     16  N   UNL     1       0.009  -0.381   0.000  0.00  0.00    +0.000 NA
BRANCH  16  17
ATOM     17  C   UNL     1       0.723   0.032   0.000  0.00  0.00    +0.000 C 
BRANCH  17  18
ATOM     18  C   UNL     1       1.438  -0.381   0.000  0.00  0.00    +0.000 C 
ATOM     19  O   UNL     1       1.438  -1.206   0.000  0.00  0.00    +0.000 OA
BRANCH  18  23
ATOM     20  C   UNL     1       2.867  -0.381   0.000  0.00  0.00    +0.000 A 
ATOM     21  C   UNL     1       3.581   0.032   0.000  0.00  0.00    +0.000 A 
ATOM     22  C   UNL     1       2.152   0.857   0.000  0.00  0.00    +0.000 A 
ATOM     23  C   UNL     1       2.152   0.032   0.000  0.00  0.00    +0.000 A 
ATOM     24  C   UNL     1       3.581   0.857   0.000  0.00  0.00    +0.000 A 
ATOM     25  C   UNL     1       2.867   1.270   0.000  0.00  0.00    +0.000 A 
ATOM     26  O   UNL     1       4.296   1.270   0.000  0.00  0.00    +0.000 OA
ATOM     27  O   UNL     1       2.867   2.095   0.000  0.00  0.00    +0.000 OA
ENDBRANCH  18  23
ENDBRANCH  17  18
ENDBRANCH  16  17
ENDBRANCH  15  16
ENDBRANCH   1  15
TORSDOF 6
