REMARK  Name = 
REMARK  7 active torsions:
REMARK  status: ('A' for Active; 'I' for Inactive)
REMARK    1  A    between atoms: C_5  and  C_21
REMARK    2  A    between atoms: C_6  and  C_9
REMARK    3  A    between atoms: C_16  and  C_17
REMARK    4  A    between atoms: C_18  and  C_19
REMARK    5  A    between atoms: C_19  and  C_29
REMARK    6  A    between atoms: C_19  and  C_30
REMARK    7  A    between atoms: C_20  and  C_21
REMARK                            x       y       z     vdW  Elec       q    Type
REMARK                         _______ _______ _______ _____ _____    ______ ____
ROOT
ATOM      1  C   UNL     1      -1.296   1.625   0.000  0.00  0.00    +0.000 C 
ATOM      2  C   UNL     1      -1.296   0.792   0.000  0.00  0.00    +0.000 C 
ATOM      3  C   UNL     1      -0.528   1.884   0.000  0.00  0.00    +0.000 C 
ATOM      4  C   UNL     1      -2.011   0.388   0.000  0.00  0.00    +0.000 C 
ATOM      5  C   UNL     1      -2.011  -0.437   0.000  0.00  0.00    +0.000 C 
ATOM      6  C   UNL     1      -0.532   0.558   0.000  0.00  0.00    +0.000 C 
ATOM      7  C   UNL     1      -0.042   1.225   0.000  0.00  0.00    +0.000 C 
ATOM      8  C   UNL     1      -2.011   2.037   0.000  0.00  0.00    +0.000 C 
ATOM      9  C   UNL     1      -1.219   2.442   0.000  0.00  0.00    +0.000 C 
ATOM     10  C   UNL     1      -2.727   0.792   0.000  0.00  0.00    +0.000 C 
ATOM     11  C   UNL     1      -2.727   1.625   0.000  0.00  0.00    +0.000 C 
ENDROOT
BRANCH   5  14
ATOM     12  C   UNL     1      -2.727  -1.682   0.000  0.00  0.00    +0.000 C 
ATOM     13  C   UNL     1      -2.011  -2.094   0.000  0.00  0.00    +0.000 C 
ATOM     14  C   UNL     1      -2.727  -0.849   0.000  0.00  0.00    +0.000 C 
ATOM     15  C   UNL     1      -2.011  -2.919   0.000  0.00  0.00    +0.000 C 
ATOM     16  C   UNL     1      -2.727  -3.335   0.000  0.00  0.00    +0.000 C 
ATOM     17  C   UNL     1      -3.442  -2.094   0.000  0.00  0.00    +0.000 C 
ATOM     18  C   UNL     1      -3.442  -2.911   0.000  0.00  0.00    +0.000 C 
ATOM     19  C   UNL     1      -1.344  -1.674   0.000  0.00  0.00    +0.000 C 
ATOM     20  O   UNL     1      -1.304  -3.335   0.000  0.00  0.00    +0.000 OA
ATOM     21  O   UNL     1      -4.166  -3.331   0.000  0.00  0.00    +0.000 OA
ENDBRANCH   5  14
BRANCH   3  22
ATOM     22  C   UNL     1      -0.277   2.672   0.000  0.00  0.00    +0.000 C 
ATOM     23  C   UNL     1      -0.774   3.335   0.000  0.00  0.00    +0.000 C 
BRANCH  22  25
ATOM     24  C   UNL     1       0.843   1.940   0.000  0.00  0.00    +0.000 C 
ATOM     25  C   UNL     1       0.548   2.704   0.000  0.00  0.00    +0.000 C 
BRANCH  24  26
ATOM     26  C   UNL     1       1.639   2.013   0.000  0.00  0.00    +0.000 C 
ATOM     27  C   UNL     1       2.052   1.338   0.000  0.00  0.00    +0.000 C 
BRANCH  27  28
ATOM     28  C   UNL     1       2.913   1.395   0.000  0.00  0.00    +0.000 C 
ATOM     29  O   UNL     1       3.693   1.916   0.000  0.00  0.00    +0.000 OA
BRANCH  28  30
ATOM     30  C   UNL     1       3.365   0.716   0.000  0.00  0.00    +0.000 C 
ATOM     31  C   UNL     1       4.166   0.910   0.000  0.00  0.00    +0.000 C 
ENDBRANCH  28  30
BRANCH  28  32
ATOM     32  C   UNL     1       3.002   2.187   0.000  0.00  0.00    +0.000 C 
ATOM     33  C   UNL     1       2.415   2.777   0.000  0.00  0.00    +0.000 C 
ENDBRANCH  28  32
ENDBRANCH  27  28
ENDBRANCH  24  26
ENDBRANCH  22  25
ENDBRANCH   3  22
TORSDOF 7
