REMARK  Name = 
REMARK  4 active torsions:
REMARK  status: ('A' for Active; 'I' for Inactive)
REMARK    1  A    between atoms: N_2  and  C_4
REMARK    2  A    between atoms: C_4  and  C_5
REMARK    3  A    between atoms: C_5  and  N_6
REMARK    4  A    between atoms: C_8  and  C_16
REMARK                            x       y       z     vdW  Elec       q    Type
REMARK                         _______ _______ _______ _____ _____    ______ ____
ROOT
ATOM      1  C   UNL     1       4.385  -0.471   0.000  0.00  0.00    +0.000 C 
ATOM      2  O   UNL     1       4.351  -1.295   0.000  0.00  0.00    +0.000 OA
ATOM      3  N   UNL     1       3.688  -0.029   0.000  0.00  0.00    +0.000 N 
ATOM      4  C   UNL     1       2.957  -0.412   0.000  0.00  0.00    +0.000 C 
ATOM      5  C   UNL     1       2.261   0.030   0.000  0.00  0.00    +0.000 C 
ATOM      6  C   UNL     1       2.295   0.854   0.000  0.00  0.00    +0.000 C 
ATOM      7  C   UNL     1       3.026   1.237   0.000  0.00  0.00    +0.000 C 
ATOM      8  C   UNL     1       3.723   0.795   0.000  0.00  0.00    +0.000 C 
ATOM      9  C   UNL     1       1.528   0.550   0.000  0.00  0.00    +0.000 A 
ATOM     10  C   UNL     1       1.241  -0.223   0.000  0.00  0.00    +0.000 A 
ATOM     11  C   UNL     1       0.427  -0.361   0.000  0.00  0.00    +0.000 A 
ATOM     12  C   UNL     1      -0.099   0.275   0.000  0.00  0.00    +0.000 A 
ATOM     13  C   UNL     1       0.188   1.048   0.000  0.00  0.00    +0.000 A 
ATOM     14  C   UNL     1       1.002   1.186   0.000  0.00  0.00    +0.000 A 
ATOM     15  C   UNL     1       1.444   1.883   0.000  0.00  0.00    +0.000 C 
ATOM     16  O   UNL     1       2.243   1.678   0.000  0.00  0.00    +0.000 OA
ENDROOT
BRANCH   1  19
ATOM     17  N   UNL     1       6.050   0.865   0.000  0.00  0.00    +0.000 N 
ATOM     18  C   UNL     1       5.236   0.728   0.000  0.00  0.00    +0.000 A 
ATOM     19  C   UNL     1       5.116  -0.089   0.000  0.00  0.00    +0.000 A 
ATOM     20  C   UNL     1       5.855  -0.455   0.000  0.00  0.00    +0.000 A 
ATOM     21  C   UNL     1       6.432   0.134   0.000  0.00  0.00    +0.000 A 
ATOM     22  C   UNL     1       7.231  -0.070   0.000  0.00  0.00    +0.000 A 
ATOM     23  C   UNL     1       7.453  -0.865   0.000  0.00  0.00    +0.000 A 
ATOM     24  C   UNL     1       6.876  -1.455   0.000  0.00  0.00    +0.000 A 
ATOM     25  C   UNL     1       6.077  -1.250   0.000  0.00  0.00    +0.000 A 
ATOM     26 CL   UNL     1       8.252  -1.070   0.000  0.00  0.00    +0.000 Cl
BRANCH  17  27
ATOM     27  C   UNL     1       6.416   1.605   0.000  0.00  0.00    +0.000 C 
BRANCH  27  28
ATOM     28  C   UNL     1       7.240   1.657   0.000  0.00  0.00    +0.000 C 
BRANCH  28  30
ATOM     29  C   UNL     1       8.430   2.448   0.000  0.00  0.00    +0.000 C 
ATOM     30  N   UNL     1       7.606   2.396   0.000  0.00  0.00    +0.000 NA
ATOM     31  C   UNL     1       7.149   3.083   0.000  0.00  0.00    +0.000 C 
ENDBRANCH  28  30
ENDBRANCH  27  28
ENDBRANCH  17  27
ENDBRANCH   1  19
TORSDOF 4
