REMARK  Name = 
REMARK  3 active torsions:
REMARK  status: ('A' for Active; 'I' for Inactive)
REMARK    1  A    between atoms: C_5  and  N_8
REMARK    2  A    between atoms: N_14  and  C_22
REMARK    3  A    between atoms: C_16  and  C_19
REMARK                            x       y       z     vdW  Elec       q    Type
REMARK                         _______ _______ _______ _____ _____    ______ ____
ROOT
ATOM      1  C   UNL     1       0.000  -1.650   0.000  0.00  0.00    +0.000 A 
ATOM      2  C   UNL     1       0.715  -1.238   0.000  0.00  0.00    +0.000 A 
ATOM      3  C   UNL     1       0.715  -0.412   0.000  0.00  0.00    +0.000 A 
ATOM      4  C   UNL     1       0.000   0.000   0.000  0.00  0.00    +0.000 A 
ATOM      5  C   UNL     1      -0.715  -0.412   0.000  0.00  0.00    +0.000 A 
ATOM      6  C   UNL     1      -0.715  -1.238   0.000  0.00  0.00    +0.000 A 
ATOM      7  F   UNL     1      -1.429  -1.650   0.000  0.00  0.00    +0.000 F 
ATOM      8 CL   UNL     1       0.000   0.825   0.000  0.00  0.00    +0.000 Cl
ATOM      9  N   UNL     1       1.429   0.000   0.000  0.00  0.00    +0.000 N 
ATOM     10  C   UNL     1       2.143  -0.412   0.000  0.00  0.00    +0.000 A 
ATOM     11  C   UNL     1       2.143  -1.238   0.000  0.00  0.00    +0.000 A 
ATOM     12  C   UNL     1       1.429  -1.650   0.000  0.00  0.00    +0.000 A 
ATOM     13  O   UNL     1       1.429  -2.475   0.000  0.00  0.00    +0.000 OA
ENDROOT
BRANCH   9  14
ATOM     14  C   UNL     1       1.429   0.825   0.000  0.00  0.00    +0.000 A 
ATOM     15  C   UNL     1       2.143   1.238   0.000  0.00  0.00    +0.000 A 
ATOM     16  C   UNL     1       2.143   2.062   0.000  0.00  0.00    +0.000 A 
ATOM     17  C   UNL     1       1.429   2.475   0.000  0.00  0.00    +0.000 A 
ATOM     18  C   UNL     1       0.715   2.062   0.000  0.00  0.00    +0.000 A 
ATOM     19  N   UNL     1       0.715   1.238   0.000  0.00  0.00    +0.000 NA
ATOM     20  N   UNL     1       0.000   2.475   0.000  0.00  0.00    +0.000 NA
ATOM     21  F   UNL     1       1.429   3.300   0.000  0.00  0.00    +0.000 F 
ATOM     22  F   UNL     1       2.858   0.825   0.000  0.00  0.00    +0.000 F 
ENDBRANCH   9  14
BRANCH   5  23
ATOM     23  N   UNL     1      -1.429   0.000   0.000  0.00  0.00    +0.000 N 
ATOM     24  C   UNL     1      -2.226  -0.213   0.000  0.00  0.00    +0.000 C 
ATOM     25  C   UNL     1      -2.439   0.583   0.000  0.00  0.00    +0.000 C 
ATOM     26  C   UNL     1      -1.643   0.797   0.000  0.00  0.00    +0.000 C 
ATOM     27  O   UNL     1      -3.154   0.996   0.000  0.00  0.00    +0.000 OA
ENDBRANCH   5  23
BRANCH  11  28
ATOM     28  C   UNL     1       2.858  -1.650   0.000  0.00  0.00    +0.000 C 
ATOM     29  O   UNL     1       2.858  -2.475   0.000  0.00  0.00    +0.000 OA
ATOM     30  O   UNL     1       3.572  -1.238   0.000  0.00  0.00    +0.000 OA
ENDBRANCH  11  28
TORSDOF 3
