REMARK  Name = 
REMARK  10 active torsions:
REMARK  status: ('A' for Active; 'I' for Inactive)
REMARK    1  A    between atoms: C_1  and  S_2
REMARK    2  A    between atoms: C_1  and  C_7
REMARK    3  A    between atoms: S_2  and  C_3
REMARK    4  A    between atoms: C_3  and  C_4
REMARK    5  A    between atoms: C_4  and  N_5
REMARK    6  A    between atoms: N_5  and  C_6
REMARK    7  A    between atoms: C_6  and  N_20
REMARK    8  A    between atoms: C_9  and  C_12
REMARK    9  A    between atoms: C_12  and  N_14
REMARK   10  A    between atoms: C_13  and  N_17
REMARK                            x       y       z     vdW  Elec       q    Type
REMARK                         _______ _______ _______ _____ _____    ______ ____
ROOT
ATOM      1  S   UNL     1      -0.579  -1.206   0.000  0.00  0.00    +0.000 S 
ENDROOT
BRANCH   1   2
ATOM      2  C   UNL     1       0.125  -1.619   0.000  0.00  0.00    +0.000 C 
BRANCH   2   3
ATOM      3  C   UNL     1       0.828  -1.206   0.000  0.00  0.00    +0.000 C 
BRANCH   3   4
ATOM      4  N   UNL     1       1.574  -1.619   0.000  0.00  0.00    +0.000 NA
BRANCH   4   5
ATOM      5  C   UNL     1       2.278  -1.206   0.000  0.00  0.00    +0.000 C 
ATOM      6  C   UNL     1       3.023  -1.619   0.000  0.00  0.00    +0.000 C 
BRANCH   6   7
ATOM      7  N   UNL     1       3.733  -1.194   0.000  0.00  0.00    +0.000 N 
ATOM      8  O   UNL     1       3.720  -0.366   0.000  0.00  0.00    +0.000 OA
ATOM      9  O   UNL     1       4.447  -1.590   0.000  0.00  0.00    +0.000 OA
ENDBRANCH   6   7
BRANCH   5  10
ATOM     10  N   UNL     1       2.309  -0.388   0.000  0.00  0.00    +0.000 NA
ATOM     11  C   UNL     1       1.595   0.062   0.000  0.00  0.00    +0.000 C 
ENDBRANCH   5  10
ENDBRANCH   4   5
ENDBRANCH   3   4
ENDBRANCH   2   3
ENDBRANCH   1   2
BRANCH   1  12
ATOM     12  C   UNL     1      -1.325  -1.619   0.000  0.00  0.00    +0.000 C 
BRANCH  12  13
ATOM     13  C   UNL     1      -2.029  -1.206   0.000  0.00  0.00    +0.000 A 
ATOM     14  N   UNL     1      -2.029  -0.377   0.000  0.00  0.00    +0.000 NA
ATOM     15  C   UNL     1      -2.815  -0.129   0.000  0.00  0.00    +0.000 A 
ATOM     16  S   UNL     1      -3.312  -0.791   0.000  0.00  0.00    +0.000 S 
ATOM     17  C   UNL     1      -2.815  -1.454   0.000  0.00  0.00    +0.000 A 
BRANCH  15  18
ATOM     18  C   UNL     1      -3.064   0.658   0.000  0.00  0.00    +0.000 C 
BRANCH  18  19
ATOM     19  N   UNL     1      -3.872   0.837   0.000  0.00  0.00    +0.000 NA
ATOM     20  C   UNL     1      -4.447   0.209   0.000  0.00  0.00    +0.000 C 
ATOM     21  C   UNL     1      -4.120   1.619   0.000  0.00  0.00    +0.000 C 
ENDBRANCH  18  19
ENDBRANCH  15  18
ENDBRANCH  12  13
ENDBRANCH   1  12
TORSDOF 10
