REMARK  Name = 
REMARK  4 active torsions:
REMARK  status: ('A' for Active; 'I' for Inactive)
REMARK    1  A    between atoms: C_1  and  C_7
REMARK    2  A    between atoms: C_7  and  C_8
REMARK    3  A    between atoms: C_8  and  N_11
REMARK    4  A    between atoms: C_8  and  B_16
REMARK                            x       y       z     vdW  Elec       q    Type
REMARK                         _______ _______ _______ _____ _____    ______ ____
ROOT
ATOM      1  C   UNL     1      -0.356   0.982   0.000  0.00  0.00    +0.000 C 
ENDROOT
BRANCH   1   4
ATOM      2  C   UNL     1       1.788   0.569   0.000  0.00  0.00    +0.000 C 
ATOM      3  C   UNL     1       1.074   0.982   0.000  0.00  0.00    +0.000 C 
ATOM      4  N   UNL     1       0.358   0.569   0.000  0.00  0.00    +0.000 N 
ATOM      5  O   UNL     1       1.074   1.641   0.000  0.00  0.00    +0.000 OA
ATOM      6  H   UNL     1       0.358   0.019   0.000  0.00  0.00    +0.000 HD
ENDBRANCH   1   4
BRANCH   1  10
ATOM      7  O   UNL     1      -1.207   1.851   0.000  0.00  0.00    +0.000 OA
ATOM      8  O   UNL     1       0.032   2.566   0.000  0.00  0.00    +0.000 OA
ATOM      9  O   UNL     1       0.359   2.220   0.000  0.00  0.00    +0.000 OA
ATOM     10  B   UNL     1      -0.356   1.807   0.000  0.00  0.00    +0.000 B 
ENDBRANCH   1  10
BRANCH   1  11
ATOM     11  C   UNL     1      -1.071   0.570   0.000  0.00  0.00    +0.000 C 
BRANCH  11  12
ATOM     12  C   UNL     1      -1.072  -0.256   0.000  0.00  0.00    +0.000 A 
ATOM     13  C   UNL     1      -0.358  -0.669   0.000  0.00  0.00    +0.000 A 
ATOM     14  C   UNL     1      -0.359  -1.494   0.000  0.00  0.00    +0.000 A 
ATOM     15  C   UNL     1      -1.075  -1.905   0.000  0.00  0.00    +0.000 A 
ATOM     16  C   UNL     1      -1.788  -1.492   0.000  0.00  0.00    +0.000 A 
ATOM     17  C   UNL     1      -1.787  -0.667   0.000  0.00  0.00    +0.000 A 
ATOM     18 CL   UNL     1      -1.075  -2.566   0.000  0.00  0.00    +0.000 Cl
ENDBRANCH  11  12
ENDBRANCH   1  11
TORSDOF 4
