REMARK  Name = 
REMARK  2 active torsions:
REMARK  status: ('A' for Active; 'I' for Inactive)
REMARK    1  A    between atoms: C_5  and  N_8
REMARK    2  A    between atoms: C_10  and  C_14
REMARK                            x       y       z     vdW  Elec       q    Type
REMARK                         _______ _______ _______ _____ _____    ______ ____
ROOT
ATOM      1  N   UNL     1      -0.176   0.586   0.000  0.00  0.00    +0.000 N 
ATOM      2  C   UNL     1       0.603   0.338   0.000  0.00  0.00    +0.000 C 
ATOM      3  C   UNL     1       1.081   1.003   0.000  0.00  0.00    +0.000 C 
ATOM      4  O   UNL     1       0.597   1.663   0.000  0.00  0.00    +0.000 OA
ATOM      5  C   UNL     1      -0.181   1.407   0.000  0.00  0.00    +0.000 C 
ATOM      6  O   UNL     1      -0.861   1.895   0.000  0.00  0.00    +0.000 OA
ENDROOT
BRANCH   1  11
ATOM      7  C   UNL     1      -2.331   0.167   0.000  0.00  0.00    +0.000 A 
ATOM      8  C   UNL     1      -2.331  -0.658   0.000  0.00  0.00    +0.000 A 
ATOM      9  C   UNL     1      -1.617  -1.070   0.000  0.00  0.00    +0.000 A 
ATOM     10  C   UNL     1      -0.902  -0.658   0.000  0.00  0.00    +0.000 A 
ATOM     11  C   UNL     1      -0.902   0.167   0.000  0.00  0.00    +0.000 A 
ATOM     12  C   UNL     1      -1.617   0.580   0.000  0.00  0.00    +0.000 A 
ATOM     13  C   UNL     1      -1.617  -1.895   0.000  0.00  0.00    +0.000 C 
ENDBRANCH   1  11
BRANCH   3  14
ATOM     14  C   UNL     1       1.920   1.007   0.000  0.00  0.00    +0.000 C 
ATOM     15  O   UNL     1       2.331   0.302   0.000  0.00  0.00    +0.000 OA
ENDBRANCH   3  14
TORSDOF 2
