REMARK  Name = 
REMARK  2 active torsions:
REMARK  status: ('A' for Active; 'I' for Inactive)
REMARK    1  A    between atoms: C_10  and  C_11
REMARK    2  A    between atoms: C_11  and  C_13
REMARK                            x       y       z     vdW  Elec       q    Type
REMARK                         _______ _______ _______ _____ _____    ______ ____
ROOT
ATOM      1 NA   UNL     1      -1.574  -1.385   0.000  0.00  0.00    +0.000 Na
ENDROOT
TORSDOF 0
REMARK  Name = 
REMARK  2 active torsions:
REMARK  status: ('A' for Active; 'I' for Inactive)
REMARK    1  A    between atoms: C_10  and  C_11
REMARK    2  A    between atoms: C_11  and  C_13
REMARK                            x       y       z     vdW  Elec       q    Type
REMARK                         _______ _______ _______ _____ _____    ______ ____
ROOT
ATOM      1  O   UNL     1       0.679   0.633   0.000  0.00  0.00    +0.000 OA
ATOM      2  O   UNL     1      -0.218  -1.304   0.000  0.00  0.00    +0.000 OA
ATOM      3  O   UNL     1       1.577  -1.304   0.000  0.00  0.00    +0.000 OA
ATOM      4  C   UNL     1       1.347   0.148   0.000  0.00  0.00    +0.000 C 
ATOM      5  O   UNL     1       2.132   0.403   0.000  0.00  0.00    +0.000 OA
ATOM      6  C   UNL     1       1.092  -0.637   0.000  0.00  0.00    +0.000 C 
ATOM      7  C   UNL     1       0.267  -0.637   0.000  0.00  0.00    +0.000 C 
ATOM      8  C   UNL     1       0.012   0.148   0.000  0.00  0.00    +0.000 C 
ENDROOT
BRANCH   8   9
ATOM      9  C   UNL     1      -0.703   0.560   0.000  0.00  0.00    +0.000 C 
ATOM     10  O   UNL     1      -0.703   1.385   0.000  0.00  0.00    +0.000 OA
BRANCH   9  12
ATOM     11  O   UNL     1      -2.132   0.560   0.000  0.00  0.00    +0.000 OA
ATOM     12  C   UNL     1      -1.417   0.148   0.000  0.00  0.00    +0.000 C 
ENDBRANCH   9  12
ENDBRANCH   8   9
TORSDOF 2
