REMARK  Name = 
REMARK  5 active torsions:
REMARK  status: ('A' for Active; 'I' for Inactive)
REMARK    1  A    between atoms: C_3  and  C_14
REMARK    2  A    between atoms: C_4  and  C_7
REMARK    3  A    between atoms: C_14  and  O_15
REMARK    4  A    between atoms: O_15  and  C_16
REMARK    5  A    between atoms: C_19  and  C_22
REMARK                            x       y       z     vdW  Elec       q    Type
REMARK                         _______ _______ _______ _____ _____    ______ ____
ROOT
ATOM      1  C   UNL     1       8.017  -1.705   0.000  0.00  0.00    +0.000 A 
ATOM      2  C   UNL     1       8.189  -0.898   0.000  0.00  0.00    +0.000 A 
ATOM      3  C   UNL     1       8.973  -0.643   0.000  0.00  0.00    +0.000 A 
ATOM      4  C   UNL     1       9.586  -1.195   0.000  0.00  0.00    +0.000 A 
ATOM      5  C   UNL     1       9.415  -2.002   0.000  0.00  0.00    +0.000 A 
ATOM      6  N   UNL     1       8.630  -2.257   0.000  0.00  0.00    +0.000 NA
ENDROOT
BRANCH   4   7
ATOM      7  C   UNL     1      10.371  -0.940   0.000  0.00  0.00    +0.000 C 
ATOM      8  O   UNL     1      10.543  -0.133   0.000  0.00  0.00    +0.000 OA
ATOM      9  N   UNL     1      10.984  -1.492   0.000  0.00  0.00    +0.000 N 
ATOM     10  C   UNL     1      11.769  -1.237   0.000  0.00  0.00    +0.000 C 
ATOM     11  C   UNL     1      12.382  -1.789   0.000  0.00  0.00    +0.000 C 
ATOM     12  S   UNL     1      12.210  -2.596   0.000  0.00  0.00    +0.000 S 
ATOM     13  O   UNL     1      13.035  -2.625   0.000  0.00  0.00    +0.000 OA
ATOM     14  O   UNL     1      12.325  -3.413   0.000  0.00  0.00    +0.000 OA
ATOM     15  C   UNL     1      11.426  -2.851   0.000  0.00  0.00    +0.000 C 
ATOM     16  C   UNL     1      10.813  -2.299   0.000  0.00  0.00    +0.000 C 
ENDBRANCH   4   7
BRANCH   1  17
ATOM     17  O   UNL     1       7.233  -1.960   0.000  0.00  0.00    +0.000 OA
BRANCH  17  18
ATOM     18  C   UNL     1       7.061  -2.767   0.000  0.00  0.00    +0.000 C 
BRANCH  18  21
ATOM     19  C   UNL     1       5.609  -1.712   0.000  0.00  0.00    +0.000 C 
ATOM     20  C   UNL     1       5.609  -2.537   0.000  0.00  0.00    +0.000 A 
ATOM     21  C   UNL     1       6.277  -3.022   0.000  0.00  0.00    +0.000 A 
ATOM     22  C   UNL     1       6.022  -3.806   0.000  0.00  0.00    +0.000 A 
ATOM     23  N   UNL     1       5.197  -3.806   0.000  0.00  0.00    +0.000 NA
ATOM     24  O   UNL     1       4.942  -3.022   0.000  0.00  0.00    +0.000 OA
BRANCH  22  25
ATOM     25  C   UNL     1       6.506  -4.474   0.000  0.00  0.00    +0.000 A 
ATOM     26  C   UNL     1       7.327  -4.387   0.000  0.00  0.00    +0.000 A 
ATOM     27  C   UNL     1       7.812  -5.055   0.000  0.00  0.00    +0.000 A 
ATOM     28  C   UNL     1       7.476  -5.809   0.000  0.00  0.00    +0.000 A 
ATOM     29  C   UNL     1       6.656  -5.895   0.000  0.00  0.00    +0.000 A 
ATOM     30  C   UNL     1       6.171  -5.227   0.000  0.00  0.00    +0.000 A 
ATOM     31  F   UNL     1       7.961  -6.476   0.000  0.00  0.00    +0.000 F 
ENDBRANCH  22  25
ENDBRANCH  18  21
ENDBRANCH  17  18
ENDBRANCH   1  17
TORSDOF 5
