REMARK  Name = 
REMARK  9 active torsions:
REMARK  status: ('A' for Active; 'I' for Inactive)
REMARK    1  A    between atoms: C_3  and  C_7
REMARK    2  A    between atoms: C_7  and  C_8
REMARK    3  A    between atoms: C_8  and  C_9
REMARK    4  A    between atoms: C_8  and  N_12
REMARK    5  A    between atoms: C_13  and  C_19
REMARK    6  A    between atoms: C_25  and  C_26
REMARK    7  A    between atoms: C_26  and  C_28
REMARK    8  A    between atoms: C_26  and  N_29
REMARK    9  A    between atoms: C_30  and  C_31
REMARK                            x       y       z     vdW  Elec       q    Type
REMARK                         _______ _______ _______ _____ _____    ______ ____
ROOT
ATOM      1  N   UNL     1      -1.201  -0.582   0.000  0.00  0.00    +0.000 N 
ATOM      2  C   UNL     1      -1.613  -1.297   0.000  0.00  0.00    +0.000 C 
ATOM      3  C   UNL     1      -1.061  -1.910   0.000  0.00  0.00    +0.000 C 
ATOM      4  C   UNL     1      -0.307  -1.574   0.000  0.00  0.00    +0.000 C 
ATOM      5  C   UNL     1      -0.394  -0.754   0.000  0.00  0.00    +0.000 C 
ATOM      6  C   UNL     1      -0.407  -2.293   0.000  0.00  0.00    +0.000 C 
ATOM      7  C   UNL     1      -0.578  -3.100   0.000  0.00  0.00    +0.000 C 
ATOM      8  C   UNL     1       0.333  -2.576   0.000  0.00  0.00    +0.000 C 
ATOM      9  C   UNL     1      -1.536   0.171   0.000  0.00  0.00    +0.000 C 
ATOM     10  O   UNL     1      -1.051   0.839   0.000  0.00  0.00    +0.000 OA
ENDROOT
BRANCH   5  12
ATOM     11  N   UNL     1       1.033  -0.679   0.000  0.00  0.00    +0.000 NA
ATOM     12  C   UNL     1       0.298  -0.305   0.000  0.00  0.00    +0.000 C 
ATOM     13  O   UNL     1       0.255   0.519   0.000  0.00  0.00    +0.000 OA
BRANCH  11  14
ATOM     14  C   UNL     1       1.725  -0.230   0.000  0.00  0.00    +0.000 C 
BRANCH  14  15
ATOM     15  C   UNL     1       2.479  -0.565   0.000  0.00  0.00    +0.000 C 
ATOM     16  N   UNL     1       3.232  -0.901   0.000  0.00  0.00    +0.000 NA
ENDBRANCH  14  15
BRANCH  14  17
ATOM     17  C   UNL     1       1.725   0.595   0.000  0.00  0.00    +0.000 C 
BRANCH  17  20
ATOM     18  N   UNL     1       3.177   2.160   0.000  0.00  0.00    +0.000 NA
ATOM     19  C   UNL     1       2.393   1.905   0.000  0.00  0.00    +0.000 C 
ATOM     20  C   UNL     1       2.393   1.080   0.000  0.00  0.00    +0.000 C 
ATOM     21  C   UNL     1       3.177   0.825   0.000  0.00  0.00    +0.000 C 
ATOM     22  C   UNL     1       3.662   1.492   0.000  0.00  0.00    +0.000 C 
ATOM     23  O   UNL     1       1.725   2.390   0.000  0.00  0.00    +0.000 OA
ENDBRANCH  17  20
ENDBRANCH  14  17
ENDBRANCH  11  14
ENDBRANCH   5  12
BRANCH   9  24
ATOM     24  C   UNL     1      -2.357   0.258   0.000  0.00  0.00    +0.000 C 
BRANCH  24  25
ATOM     25  C   UNL     1      -2.842  -0.410   0.000  0.00  0.00    +0.000 C 
ATOM     26  C   UNL     1      -3.662  -0.324   0.000  0.00  0.00    +0.000 C 
ATOM     27  C   UNL     1      -2.506  -1.163   0.000  0.00  0.00    +0.000 C 
ATOM     28  C   UNL     1      -3.326  -1.077   0.000  0.00  0.00    +0.000 C 
ENDBRANCH  24  25
BRANCH  24  29
ATOM     29  N   UNL     1      -2.692   1.011   0.000  0.00  0.00    +0.000 NA
ATOM     30  C   UNL     1      -2.207   1.679   0.000  0.00  0.00    +0.000 C 
ATOM     31  O   UNL     1      -1.387   1.592   0.000  0.00  0.00    +0.000 OA
BRANCH  30  32
ATOM     32  C   UNL     1      -2.543   2.432   0.000  0.00  0.00    +0.000 C 
ATOM     33  F   UNL     1      -3.363   2.518   0.000  0.00  0.00    +0.000 F 
ATOM     34  F   UNL     1      -2.058   3.100   0.000  0.00  0.00    +0.000 F 
ATOM     35  F   UNL     1      -2.861   3.083   0.000  0.00  0.00    +0.000 F 
ENDBRANCH  30  32
ENDBRANCH  24  29
ENDBRANCH   9  24
TORSDOF 9
