REMARK  Name = 
REMARK  11 active torsions:
REMARK  status: ('A' for Active; 'I' for Inactive)
REMARK    1  A    between atoms: N_1  and  C_8
REMARK    2  A    between atoms: N_3  and  C_23
REMARK    3  A    between atoms: C_4  and  C_41
REMARK    4  A    between atoms: C_7  and  C_32
REMARK    5  A    between atoms: C_8  and  C_9
REMARK    6  A    between atoms: C_11  and  C_42
REMARK    7  A    between atoms: O_16  and  C_17
REMARK    8  A    between atoms: O_16  and  C_41
REMARK    9  A    between atoms: C_23  and  C_24
REMARK   10  A    between atoms: C_32  and  O_33
REMARK   11  A    between atoms: O_33  and  C_34
REMARK                            x       y       z     vdW  Elec       q    Type
REMARK                         _______ _______ _______ _____ _____    ______ ____
ROOT
ATOM      1  N   UNL     1       1.082   0.383   0.000  0.00  0.00    +0.000 NA
ATOM      2  S   UNL     1       0.400  -0.082   0.000  0.00  0.00    +0.000 S 
ATOM      3  N   UNL     1      -0.388   0.162   0.000  0.00  0.00    +0.000 NA
ATOM      4  C   UNL     1      -0.690   0.930   0.000  0.00  0.00    +0.000 C 
ATOM      5  C   UNL     1      -0.277   1.644   0.000  0.00  0.00    +0.000 C 
ATOM      6  C   UNL     1       0.539   1.767   0.000  0.00  0.00    +0.000 C 
ATOM      7  C   UNL     1       1.143   1.206   0.000  0.00  0.00    +0.000 C 
ATOM      8  O   UNL     1       0.880  -0.752   0.000  0.00  0.00    +0.000 OA
ATOM      9  O   UNL     1      -0.742   2.326   0.000  0.00  0.00    +0.000 OA
ATOM     10  O   UNL     1       0.782   2.555   0.000  0.00  0.00    +0.000 OA
ATOM     11  O   UNL     1       0.139  -0.864   0.000  0.00  0.00    +0.000 OA
ENDROOT
BRANCH   1  12
ATOM     12  C   UNL     1       1.796  -0.029   0.000  0.00  0.00    +0.000 C 
BRANCH  12  13
ATOM     13  C   UNL     1       1.796  -0.854   0.000  0.00  0.00    +0.000 A 
ATOM     14  C   UNL     1       2.511  -1.267   0.000  0.00  0.00    +0.000 A 
ATOM     15  C   UNL     1       2.511  -2.092   0.000  0.00  0.00    +0.000 A 
ATOM     16  C   UNL     1       1.796  -2.504   0.000  0.00  0.00    +0.000 A 
ATOM     17  C   UNL     1       1.082  -2.092   0.000  0.00  0.00    +0.000 A 
ATOM     18  C   UNL     1       1.082  -1.267   0.000  0.00  0.00    +0.000 A 
BRANCH  15  19
ATOM     19  C   UNL     1       3.225  -2.504   0.000  0.00  0.00    +0.000 C 
ATOM     20  O   UNL     1       3.940  -2.092   0.000  0.00  0.00    +0.000 OA
ATOM     21  N   UNL     1       3.225  -3.329   0.000  0.00  0.00    +0.000 NA
ATOM     22  C   UNL     1       3.940  -3.742   0.000  0.00  0.00    +0.000 C 
ENDBRANCH  15  19
ENDBRANCH  12  13
ENDBRANCH   1  12
BRANCH   3  23
ATOM     23  C   UNL     1      -0.949  -0.443   0.000  0.00  0.00    +0.000 C 
BRANCH  23  24
ATOM     24  C   UNL     1      -1.754  -0.260   0.000  0.00  0.00    +0.000 A 
ATOM     25  C   UNL     1      -2.315  -0.864   0.000  0.00  0.00    +0.000 A 
ATOM     26  C   UNL     1      -3.119  -0.681   0.000  0.00  0.00    +0.000 A 
ATOM     27  C   UNL     1      -3.362   0.108   0.000  0.00  0.00    +0.000 A 
ATOM     28  C   UNL     1      -2.801   0.712   0.000  0.00  0.00    +0.000 A 
ATOM     29  C   UNL     1      -1.997   0.529   0.000  0.00  0.00    +0.000 A 
ENDBRANCH  23  24
ENDBRANCH   3  23
BRANCH   4  30
ATOM     30  C   UNL     1      -1.512   0.991   0.000  0.00  0.00    +0.000 C 
BRANCH  30  31
ATOM     31  O   UNL     1      -1.870   1.734   0.000  0.00  0.00    +0.000 OA
BRANCH  31  32
ATOM     32  C   UNL     1      -2.693   1.796   0.000  0.00  0.00    +0.000 A 
ATOM     33  C   UNL     1      -3.158   1.115   0.000  0.00  0.00    +0.000 A 
ATOM     34  C   UNL     1      -3.980   1.176   0.000  0.00  0.00    +0.000 A 
ATOM     35  C   UNL     1      -4.338   1.919   0.000  0.00  0.00    +0.000 A 
ATOM     36  C   UNL     1      -3.874   2.601   0.000  0.00  0.00    +0.000 A 
ATOM     37  C   UNL     1      -3.051   2.539   0.000  0.00  0.00    +0.000 A 
ENDBRANCH  31  32
ENDBRANCH  30  31
ENDBRANCH   4  30
BRANCH   7  38
ATOM     38  C   UNL     1       1.911   1.507   0.000  0.00  0.00    +0.000 C 
BRANCH  38  39
ATOM     39  O   UNL     1       2.034   2.323   0.000  0.00  0.00    +0.000 OA
BRANCH  39  40
ATOM     40  C   UNL     1       2.802   2.624   0.000  0.00  0.00    +0.000 A 
ATOM     41  C   UNL     1       2.925   3.440   0.000  0.00  0.00    +0.000 A 
ATOM     42  C   UNL     1       3.693   3.742   0.000  0.00  0.00    +0.000 A 
ATOM     43  C   UNL     1       4.338   3.227   0.000  0.00  0.00    +0.000 A 
ATOM     44  C   UNL     1       4.215   2.412   0.000  0.00  0.00    +0.000 A 
ATOM     45  C   UNL     1       3.447   2.110   0.000  0.00  0.00    +0.000 A 
ENDBRANCH  39  40
ENDBRANCH  38  39
ENDBRANCH   7  38
TORSDOF 11
