REMARK  Name = 
REMARK  6 active torsions:
REMARK  status: ('A' for Active; 'I' for Inactive)
REMARK    1  A    between atoms: C_2  and  C_3
REMARK    2  A    between atoms: C_3  and  C_25
REMARK    3  A    between atoms: C_4  and  C_5
REMARK    4  A    between atoms: C_4  and  C_16
REMARK    5  A    between atoms: C_8  and  C_11
REMARK    6  A    between atoms: C_12  and  C_13
REMARK                            x       y       z     vdW  Elec       q    Type
REMARK                         _______ _______ _______ _____ _____    ______ ____
ROOT
ATOM      1  C   UNL     1       4.781   1.935   0.000  0.00  0.00    +0.000 C 
ATOM      2  C   UNL     1       4.067   2.348   0.000  0.00  0.00    +0.000 C 
ENDROOT
BRANCH   2   3
ATOM      3  C   UNL     1       3.352   1.935   0.000  0.00  0.00    +0.000 A 
ATOM      4  C   UNL     1       3.352   1.110   0.000  0.00  0.00    +0.000 A 
ATOM      5  C   UNL     1       2.638   0.698   0.000  0.00  0.00    +0.000 A 
ATOM      6  C   UNL     1       1.923   1.110   0.000  0.00  0.00    +0.000 A 
ATOM      7  C   UNL     1       1.923   1.935   0.000  0.00  0.00    +0.000 A 
ATOM      8  C   UNL     1       2.638   2.348   0.000  0.00  0.00    +0.000 A 
ATOM      9  C   UNL     1       1.139   2.190   0.000  0.00  0.00    +0.000 A 
ATOM     10  N   UNL     1       0.654   1.523   0.000  0.00  0.00    +0.000 NA
ATOM     11  N   UNL     1       1.139   0.856   0.000  0.00  0.00    +0.000 NA
ENDBRANCH   2   3
BRANCH   1  12
ATOM     12  C   UNL     1       5.496   2.348   0.000  0.00  0.00    +0.000 A 
ATOM     13  C   UNL     1       5.496   3.173   0.000  0.00  0.00    +0.000 A 
ATOM     14  C   UNL     1       6.210   3.585   0.000  0.00  0.00    +0.000 A 
ATOM     15  C   UNL     1       6.925   3.173   0.000  0.00  0.00    +0.000 A 
ATOM     16  C   UNL     1       6.925   2.348   0.000  0.00  0.00    +0.000 A 
ATOM     17  C   UNL     1       6.210   1.935   0.000  0.00  0.00    +0.000 A 
ATOM     18 CL   UNL     1       6.210   1.110   0.000  0.00  0.00    +0.000 Cl
ATOM     19  F   UNL     1       7.639   3.585   0.000  0.00  0.00    +0.000 F 
ENDBRANCH   1  12
BRANCH   2  20
ATOM     20  C   UNL     1       4.067   3.173   0.000  0.00  0.00    +0.000 A 
ATOM     21  C   UNL     1       3.352   3.585   0.000  0.00  0.00    +0.000 A 
ATOM     22  C   UNL     1       3.352   4.410   0.000  0.00  0.00    +0.000 A 
ATOM     23  C   UNL     1       4.067   4.823   0.000  0.00  0.00    +0.000 A 
ATOM     24  C   UNL     1       4.781   4.410   0.000  0.00  0.00    +0.000 A 
ATOM     25  C   UNL     1       4.781   3.585   0.000  0.00  0.00    +0.000 A 
BRANCH  23  26
ATOM     26  C   UNL     1       4.067   5.648   0.000  0.00  0.00    +0.000 C 
ATOM     27  C   UNL     1       4.781   6.060   0.000  0.00  0.00    +0.000 C 
BRANCH  27  28
ATOM     28  C   UNL     1       4.781   6.885   0.000  0.00  0.00    +0.000 C 
ATOM     29  O   UNL     1       5.496   7.298   0.000  0.00  0.00    +0.000 OA
ATOM     30  O   UNL     1       4.067   7.298   0.000  0.00  0.00    +0.000 OA
ENDBRANCH  27  28
ENDBRANCH  23  26
ENDBRANCH   2  20
BRANCH   1  32
ATOM     31  C   UNL     1       5.496   0.698   0.000  0.00  0.00    +0.000 C 
ATOM     32  C   UNL     1       4.781   1.110   0.000  0.00  0.00    +0.000 C 
ENDBRANCH   1  32
TORSDOF 6
