REMARK  Name = 
REMARK  11 active torsions:
REMARK  status: ('A' for Active; 'I' for Inactive)
REMARK    1  A    between atoms: AS_2  and  S_4
REMARK    2  A    between atoms: S_4  and  C_5
REMARK    3  A    between atoms: C_5  and  C_6
REMARK    4  A    between atoms: C_6  and  C_7
REMARK    5  A    between atoms: C_6  and  N_14
REMARK    6  A    between atoms: N_9  and  CA_10
REMARK    7  A    between atoms: CA_10  and  C_11
REMARK    8  A    between atoms: C_15  and  C_17
REMARK    9  A    between atoms: C_17  and  C_18
REMARK   10  A    between atoms: C_18  and  C_19
REMARK   11  A    between atoms: C_19  and  C_20
REMARK                            x       y       z     vdW  Elec       q    Type
REMARK                         _______ _______ _______ _____ _____    ______ ____
ROOT
ATOM      1  C   UNK A   1       9.045   3.572   0.000  0.00  0.00    +0.000 C 
ENDROOT
BRANCH   1   2
ATOM      2  N   UNK A   1       9.760   3.985   0.000  0.00  0.00    +0.000 NA
ATOM      3  C   UNK A   1      10.474   3.572   0.000  0.00  0.00    +0.000 C 
ATOM      4  O   UNK A   1      10.474   2.747   0.000  0.00  0.00    +0.000 OA
BRANCH   3   5
ATOM      5  C   UNK A   1      11.189   3.985   0.000  0.00  0.00    +0.000 C 
BRANCH   5   6
ATOM      6  C   UNK A   1      11.903   3.572   0.000  0.00  0.00    +0.000 C 
BRANCH   6   7
ATOM      7  C   UNK A   1      12.618   3.985   0.000  0.00  0.00    +0.000 C 
ATOM      8  N   UNK A   1      12.618   4.810   0.000  0.00  0.00    +0.000 NA
BRANCH   7   9
ATOM      9  C   UNK A   1      13.332   3.572   0.000  0.00  0.00    +0.000 C 
ATOM     10  O   UNK A   1      14.047   3.985   0.000  0.00  0.00    +0.000 OA
ATOM     11  O   UNK A   1      13.332   2.747   0.000  0.00  0.00    +0.000 OA
ENDBRANCH   7   9
ENDBRANCH   6   7
ENDBRANCH   5   6
ENDBRANCH   3   5
ENDBRANCH   1   2
BRANCH   1  12
ATOM     12  C   UNK A   1       8.331   3.985   0.000  0.00  0.00    +0.000 C 
ATOM     13  O   UNK A   1       8.331   4.810   0.000  0.00  0.00    +0.000 OA
ATOM     14  N   GLY A   2       7.616   3.572   0.000  0.00  0.00    +0.000 NA
BRANCH  14  15
ATOM     15  CA  GLY A   2       6.902   3.985   0.000  0.00  0.00    +0.000 C 
BRANCH  15  16
ATOM     16  C   GLY A   2       6.188   3.572   0.000  0.00  0.00    +0.000 C 
ATOM     17  O   GLY A   2       5.473   3.985   0.000  0.00  0.00    +0.000 OA
ATOM     18  OXT GLY A   2       6.188   2.747   0.000  0.00  0.00    +0.000 OA
ENDBRANCH  15  16
ENDBRANCH  14  15
ENDBRANCH   1  12
BRANCH   1  19
ATOM     19  C   UNK A   1       9.045   2.747   0.000  0.00  0.00    +0.000 C 
BRANCH  19  20
ATOM     20  S   UNK A   1       9.760   2.335   0.000  0.00  0.00    +0.000 S 
BRANCH  20  22
ATOM     21  C   UNK A   1      10.474   1.097   0.000  0.00  0.00    +0.000 C 
ATOM     22 AS   UNK A   1       9.760   1.510   0.000  0.00  0.00    +0.000 As
ATOM     23  C   UNK A   1       9.045   1.097   0.000  0.00  0.00    +0.000 C 
ENDBRANCH  20  22
ENDBRANCH  19  20
ENDBRANCH   1  19
TORSDOF 11
