REMARK  Name = 
REMARK  15 active torsions:
REMARK  status: ('A' for Active; 'I' for Inactive)
REMARK    1  A    between atoms: C_3  and  C_5
REMARK    2  A    between atoms: C_5  and  C_6
REMARK    3  A    between atoms: C_6  and  C_7
REMARK    4  A    between atoms: C_7  and  C_8
REMARK    5  A    between atoms: C_8  and  C_9
REMARK    6  A    between atoms: C_9  and  C_10
REMARK    7  A    between atoms: C_10  and  C_11
REMARK    8  A    between atoms: N_13  and  C_14
REMARK    9  A    between atoms: C_17  and  C_18
REMARK   10  A    between atoms: C_18  and  N_19
REMARK   11  A    between atoms: N_19  and  C_20
REMARK   12  A    between atoms: C_20  and  C_21
REMARK   13  A    between atoms: C_20  and  C_29
REMARK   14  A    between atoms: C_21  and  O_23
REMARK   15  A    between atoms: O_23  and  C_24
REMARK                            x       y       z     vdW  Elec       q    Type
REMARK                         _______ _______ _______ _____ _____    ______ ____
ROOT
ATOM      1  C   UNL     1       0.000  -8.250   0.000  0.00  0.00    +0.000 A 
ATOM      2  C   UNL     1       0.715  -7.838   0.000  0.00  0.00    +0.000 A 
ATOM      3  C   UNL     1       1.429  -8.250   0.000  0.00  0.00    +0.000 A 
ATOM      4  C   UNL     1       1.429  -9.075   0.000  0.00  0.00    +0.000 A 
ATOM      5  C   UNL     1       0.715  -9.488   0.000  0.00  0.00    +0.000 A 
ATOM      6  C   UNL     1       0.000  -9.075   0.000  0.00  0.00    +0.000 A 
ENDROOT
BRANCH   1   9
ATOM      7  C   UNL     1      -1.429  -8.250   0.000  0.00  0.00    +0.000 C 
ATOM      8  O   UNL     1      -1.429  -9.075   0.000  0.00  0.00    +0.000 OA
ATOM      9  N   UNL     1      -0.715  -7.838   0.000  0.00  0.00    +0.000 NA
BRANCH   7  10
ATOM     10  C   UNL     1      -2.143  -7.838   0.000  0.00  0.00    +0.000 C 
BRANCH  10  11
ATOM     11  C   UNL     1      -2.858  -8.250   0.000  0.00  0.00    +0.000 C 
BRANCH  11  12
ATOM     12  C   UNL     1      -3.572  -7.838   0.000  0.00  0.00    +0.000 C 
BRANCH  12  13
ATOM     13  C   UNL     1      -4.287  -8.250   0.000  0.00  0.00    +0.000 C 
BRANCH  13  14
ATOM     14  C   UNL     1      -5.001  -7.838   0.000  0.00  0.00    +0.000 C 
BRANCH  14  15
ATOM     15  C   UNL     1      -5.716  -8.250   0.000  0.00  0.00    +0.000 C 
BRANCH  15  18
ATOM     16  O   UNL     1      -7.859  -7.838   0.000  0.00  0.00    +0.000 OA
ATOM     17  N   UNL     1      -7.145  -8.250   0.000  0.00  0.00    +0.000 NA
ATOM     18  C   UNL     1      -6.430  -7.838   0.000  0.00  0.00    +0.000 C 
ATOM     19  O   UNL     1      -6.430  -7.013   0.000  0.00  0.00    +0.000 OA
ENDBRANCH  15  18
ENDBRANCH  14  15
ENDBRANCH  13  14
ENDBRANCH  12  13
ENDBRANCH  11  12
ENDBRANCH  10  11
ENDBRANCH   7  10
ENDBRANCH   1   9
BRANCH   4  20
ATOM     20  C   UNL     1       2.143  -9.488   0.000  0.00  0.00    +0.000 C 
BRANCH  20  21
ATOM     21  N   UNL     1       2.143 -10.312   0.000  0.00  0.00    +0.000 NA
BRANCH  21  22
ATOM     22  C   UNL     1       2.858 -10.725   0.000  0.00  0.00    +0.000 C 
BRANCH  22  23
ATOM     23  C   UNL     1       3.572 -10.312   0.000  0.00  0.00    +0.000 A 
ATOM     24  C   UNL     1       3.572  -9.488   0.000  0.00  0.00    +0.000 A 
ATOM     25  C   UNL     1       4.287  -9.075   0.000  0.00  0.00    +0.000 A 
ATOM     26  C   UNL     1       5.001  -9.488   0.000  0.00  0.00    +0.000 A 
ATOM     27  C   UNL     1       5.001 -10.312   0.000  0.00  0.00    +0.000 A 
ATOM     28  C   UNL     1       4.287 -10.725   0.000  0.00  0.00    +0.000 A 
ENDBRANCH  22  23
BRANCH  22  29
ATOM     29  C   UNL     1       2.858 -11.550   0.000  0.00  0.00    +0.000 C 
ATOM     30  O   UNL     1       2.143 -11.963   0.000  0.00  0.00    +0.000 OA
BRANCH  29  31
ATOM     31  O   UNL     1       3.572 -11.963   0.000  0.00  0.00    +0.000 OA
BRANCH  31  32
ATOM     32  C   UNL     1       3.572 -12.787   0.000  0.00  0.00    +0.000 C 
ATOM     33  C   UNL     1       4.240 -13.272   0.000  0.00  0.00    +0.000 C 
ATOM     34  C   UNL     1       3.985 -14.057   0.000  0.00  0.00    +0.000 C 
ATOM     35  C   UNL     1       3.160 -14.057   0.000  0.00  0.00    +0.000 C 
ATOM     36  C   UNL     1       2.905 -13.272   0.000  0.00  0.00    +0.000 C 
ENDBRANCH  31  32
ENDBRANCH  29  31
ENDBRANCH  22  29
ENDBRANCH  21  22
ENDBRANCH  20  21
ENDBRANCH   4  20
TORSDOF 15
