REMARK  Name = 
REMARK  3 active torsions:
REMARK  status: ('A' for Active; 'I' for Inactive)
REMARK    1  A    between atoms: C_5  and  N_9
REMARK    2  A    between atoms: C_6  and  C_14
REMARK    3  A    between atoms: C_8  and  N_9
REMARK                            x       y       z     vdW  Elec       q    Type
REMARK                         _______ _______ _______ _____ _____    ______ ____
ROOT
ATOM      1  C   UNL     1      -1.073   1.645   0.000  0.00  0.00    +0.000 A 
ATOM      2  C   UNL     1      -1.787   1.232   0.000  0.00  0.00    +0.000 A 
ATOM      3  C   UNL     1      -1.787   0.407   0.000  0.00  0.00    +0.000 A 
ATOM      4  N   UNL     1      -1.073  -0.005   0.000  0.00  0.00    +0.000 NA
ATOM      5  C   UNL     1      -0.358   0.407   0.000  0.00  0.00    +0.000 A 
ATOM      6  C   UNL     1      -0.358   1.232   0.000  0.00  0.00    +0.000 A 
ENDROOT
BRANCH   6   7
ATOM      7  C   UNL     1       0.356   1.645   0.000  0.00  0.00    +0.000 C 
ATOM      8  O   UNL     1       0.356   2.481   0.000  0.00  0.00    +0.000 OA
ATOM      9  O   UNL     1       1.060   1.238   0.000  0.00  0.00    +0.000 OA
ENDBRANCH   6   7
BRANCH   5  10
ATOM     10  N   UNL     1       0.356  -0.005   0.000  0.00  0.00    +0.000 NA
BRANCH  10  12
ATOM     11  C   UNL     1      -0.358  -1.242   0.000  0.00  0.00    +0.000 A 
ATOM     12  C   UNL     1       0.356  -0.830   0.000  0.00  0.00    +0.000 A 
ATOM     13  C   UNL     1      -0.358  -2.067   0.000  0.00  0.00    +0.000 A 
ATOM     14  C   UNL     1       0.356  -2.480   0.000  0.00  0.00    +0.000 A 
ATOM     15  C   UNL     1       1.070  -2.067   0.000  0.00  0.00    +0.000 A 
ATOM     16  C   UNL     1       1.071  -1.242   0.000  0.00  0.00    +0.000 A 
ATOM     17  C   UNL     1       1.785  -0.830   0.000  0.00  0.00    +0.000 C 
ATOM     18 CL   UNL     1       1.787  -2.481   0.000  0.00  0.00    +0.000 Cl
ENDBRANCH  10  12
ENDBRANCH   5  10
TORSDOF 3
