REMARK  Name = 
REMARK  3 active torsions:
REMARK  status: ('A' for Active; 'I' for Inactive)
REMARK    1  A    between atoms: N_2  and  C_4
REMARK    2  A    between atoms: C_7  and  C_9
REMARK    3  A    between atoms: N_10  and  N_11
REMARK                            x       y       z     vdW  Elec       q    Type
REMARK                         _______ _______ _______ _____ _____    ______ ____
ROOT
ATOM      1  C   UNL     1       1.866  -0.257   0.000  0.00  0.00    +0.000 A 
ATOM      2  C   UNL     1       1.611  -1.042   0.000  0.00  0.00    +0.000 A 
ATOM      3  C   UNL     1       0.786  -1.042   0.000  0.00  0.00    +0.000 A 
ATOM      4  C   UNL     1       0.531  -0.257   0.000  0.00  0.00    +0.000 A 
ATOM      5  O   UNL     1       1.198   0.228   0.000  0.00  0.00    +0.000 OA
ENDROOT
BRANCH   1   7
ATOM      6  O   UNL     1       3.264  -0.554   0.000  0.00  0.00    +0.000 OA
ATOM      7  N   UNL     1       2.650  -0.002   0.000  0.00  0.00    +0.000 N 
ATOM      8  O   UNL     1       2.822   0.805   0.000  0.00  0.00    +0.000 OA
ENDBRANCH   1   7
BRANCH   4   9
ATOM      9  C   UNL     1      -0.254  -0.002   0.000  0.00  0.00    +0.000 C 
ATOM     10  N   UNL     1      -0.867  -0.554   0.000  0.00  0.00    +0.000 NA
BRANCH  10  11
ATOM     11  N   UNL     1      -1.651  -0.299   0.000  0.00  0.00    +0.000 N 
ATOM     12  C   UNL     1      -2.319  -0.784   0.000  0.00  0.00    +0.000 C 
ATOM     13  C   UNL     1      -2.986  -0.299   0.000  0.00  0.00    +0.000 C 
ATOM     14  O   UNL     1      -2.731   0.485   0.000  0.00  0.00    +0.000 OA
ATOM     15  C   UNL     1      -1.906   0.485   0.000  0.00  0.00    +0.000 C 
ATOM     16  O   UNL     1      -1.421   1.153   0.000  0.00  0.00    +0.000 OA
ENDBRANCH  10  11
ENDBRANCH   4   9
TORSDOF 3
