REMARK  Name = 
REMARK  18 active torsions:
REMARK  status: ('A' for Active; 'I' for Inactive)
REMARK    1  A    between atoms: C_3  and  C_5
REMARK    2  A    between atoms: C_7  and  O_11
REMARK    3  A    between atoms: O_11  and  C_14
REMARK    4  A    between atoms: C_12  and  C_16
REMARK    5  A    between atoms: C_13  and  C_17
REMARK    6  A    between atoms: C_14  and  C_18
REMARK    7  A    between atoms: C_18  and  C_23
REMARK    8  A    between atoms: C_18  and  C_24
REMARK    9  A    between atoms: C_23  and  C_30
REMARK   10  A    between atoms: C_30  and  C_34
REMARK   11  A    between atoms: C_32  and  O_35
REMARK   12  A    between atoms: C_33  and  O_36
REMARK   13  A    between atoms: O_35  and  C_38
REMARK   14  A    between atoms: C_38  and  C_40
REMARK   15  A    between atoms: C_40  and  C_41
REMARK   16  A    between atoms: C_40  and  C_42
REMARK   17  A    between atoms: C_41  and  C_43
REMARK   18  A    between atoms: C_43  and  C_45
REMARK                            x       y       z     vdW  Elec       q    Type
REMARK                         _______ _______ _______ _____ _____    ______ ____
ROOT
ATOM      1  C   UNL     1      -1.071  -1.032   0.000  0.00  0.00    +0.000 A 
ATOM      2  N   UNL     1      -1.071  -0.207   0.000  0.00  0.00    +0.000 NA
ATOM      3  N   UNL     1      -1.785  -1.443   0.000  0.00  0.00    +0.000 NA
ATOM      4  C   UNL     1      -1.785   0.207   0.000  0.00  0.00    +0.000 A 
ATOM      5  C   UNL     1      -2.502  -1.032   0.000  0.00  0.00    +0.000 A 
ATOM      6  N   UNL     1      -2.502  -0.207   0.000  0.00  0.00    +0.000 NA
ENDROOT
BRANCH   1   9
ATOM      7  O   UNL     1       0.356  -0.207   0.000  0.00  0.00    +0.000 OA
ATOM      8  C   UNL     1       0.356  -1.032   0.000  0.00  0.00    +0.000 A 
ATOM      9  C   UNL     1      -0.356  -1.443   0.000  0.00  0.00    +0.000 A 
ATOM     10  C   UNL     1       1.073  -1.443   0.000  0.00  0.00    +0.000 A 
ATOM     11  C   UNL     1      -0.356  -2.268   0.000  0.00  0.00    +0.000 A 
ATOM     12  C   UNL     1       1.073  -2.268   0.000  0.00  0.00    +0.000 A 
ATOM     13  C   UNL     1       0.356  -2.682   0.000  0.00  0.00    +0.000 A 
BRANCH  12  14
ATOM     14  O   UNL     1       1.787  -2.682   0.000  0.00  0.00    +0.000 OA
BRANCH  14  15
ATOM     15  C   UNL     1       2.502  -2.268   0.000  0.00  0.00    +0.000 C 
BRANCH  15  16
ATOM     16  C   UNL     1       3.216  -2.682   0.000  0.00  0.00    +0.000 C 
BRANCH  16  17
ATOM     17  C   UNL     1       3.216  -3.507   0.000  0.00  0.00    +0.000 C 
ATOM     18  C   UNL     1       3.930  -3.918   0.000  0.00  0.00    +0.000 C 
ENDBRANCH  16  17
BRANCH  16  19
ATOM     19  C   UNL     1       3.930  -2.268   0.000  0.00  0.00    +0.000 C 
BRANCH  19  20
ATOM     20  C   UNL     1       4.645  -2.682   0.000  0.00  0.00    +0.000 C 
BRANCH  20  21
ATOM     21  C   UNL     1       5.359  -2.268   0.000  0.00  0.00    +0.000 C 
ATOM     22  C   UNL     1       6.074  -2.682   0.000  0.00  0.00    +0.000 C 
ENDBRANCH  20  21
ENDBRANCH  19  20
ENDBRANCH  16  19
ENDBRANCH  15  16
ENDBRANCH  14  15
ENDBRANCH  12  14
ENDBRANCH   1   9
BRANCH   4  23
ATOM     23  C   UNL     1      -1.785   1.032   0.000  0.00  0.00    +0.000 A 
ATOM     24  C   UNL     1      -2.498   1.443   0.000  0.00  0.00    +0.000 A 
ATOM     25  C   UNL     1      -1.069   1.443   0.000  0.00  0.00    +0.000 A 
ATOM     26  O   UNL     1      -3.212   1.032   0.000  0.00  0.00    +0.000 OA
ATOM     27  C   UNL     1      -2.498   2.268   0.000  0.00  0.00    +0.000 A 
ATOM     28  C   UNL     1      -1.069   2.268   0.000  0.00  0.00    +0.000 A 
ATOM     29  C   UNL     1      -1.785   2.682   0.000  0.00  0.00    +0.000 A 
BRANCH  29  30
ATOM     30  O   UNL     1      -1.785   3.507   0.000  0.00  0.00    +0.000 OA
BRANCH  30  31
ATOM     31  C   UNL     1      -1.071   3.918   0.000  0.00  0.00    +0.000 C 
BRANCH  31  32
ATOM     32  C   UNL     1      -0.356   3.507   0.000  0.00  0.00    +0.000 C 
BRANCH  32  33
ATOM     33  C   UNL     1      -0.356   2.682   0.000  0.00  0.00    +0.000 C 
ATOM     34  C   UNL     1       0.358   2.268   0.000  0.00  0.00    +0.000 C 
ENDBRANCH  32  33
BRANCH  32  35
ATOM     35  C   UNL     1       0.358   3.918   0.000  0.00  0.00    +0.000 C 
BRANCH  35  36
ATOM     36  C   UNL     1       1.073   3.507   0.000  0.00  0.00    +0.000 C 
BRANCH  36  37
ATOM     37  C   UNL     1       1.787   3.918   0.000  0.00  0.00    +0.000 C 
ATOM     38  C   UNL     1       2.502   3.507   0.000  0.00  0.00    +0.000 C 
ENDBRANCH  36  37
ENDBRANCH  35  36
ENDBRANCH  32  35
ENDBRANCH  31  32
ENDBRANCH  30  31
ENDBRANCH  29  30
ENDBRANCH   4  23
BRANCH   5  39
ATOM     39  C   UNL     1      -3.216  -1.443   0.000  0.00  0.00    +0.000 A 
ATOM     40  C   UNL     1      -3.216  -2.268   0.000  0.00  0.00    +0.000 A 
ATOM     41  C   UNL     1      -3.928  -1.032   0.000  0.00  0.00    +0.000 A 
ATOM     42  C   UNL     1      -3.928  -2.682   0.000  0.00  0.00    +0.000 A 
ATOM     43  C   UNL     1      -4.645  -1.443   0.000  0.00  0.00    +0.000 A 
ATOM     44  C   UNL     1      -4.645  -2.268   0.000  0.00  0.00    +0.000 A 
BRANCH  44  45
ATOM     45  O   UNL     1      -5.359  -2.682   0.000  0.00  0.00    +0.000 OA
ATOM     46  C   UNL     1      -6.074  -2.268   0.000  0.00  0.00    +0.000 C 
ENDBRANCH  44  45
ENDBRANCH   5  39
TORSDOF 18
