REMARK  Name = 
REMARK  3 active torsions:
REMARK  status: ('A' for Active; 'I' for Inactive)
REMARK    1  A    between atoms: C_14  and  N_16
REMARK    2  A    between atoms: N_21  and  C_22
REMARK    3  A    between atoms: C_30  and  N_33
REMARK                            x       y       z     vdW  Elec       q    Type
REMARK                         _______ _______ _______ _____ _____    ______ ____
ROOT
ATOM      1  N   UNL     1       2.830  -3.125   0.000  0.00  0.00    +0.000 N 
ATOM      2  C   UNL     1       2.418  -2.410   0.000  0.00  0.00    +0.000 A 
ATOM      3  N   UNL     1       2.970  -1.797   0.000  0.00  0.00    +0.000 NA
ATOM      4  C   UNL     1       3.723  -2.133   0.000  0.00  0.00    +0.000 A 
ATOM      5  N   UNL     1       3.637  -2.953   0.000  0.00  0.00    +0.000 NA
ATOM      6  N   UNL     1       4.438  -1.720   0.000  0.00  0.00    +0.000 NA
ATOM      7  N   UNL     1       1.597  -2.324   0.000  0.00  0.00    +0.000 NA
ENDROOT
BRANCH   1  21
ATOM      8  C   UNL     1       1.407  -7.819   0.000  0.00  0.00    +0.000 A 
ATOM      9  C   UNL     1       2.166  -7.495   0.000  0.00  0.00    +0.000 A 
ATOM     10  C   UNL     1       2.264  -6.676   0.000  0.00  0.00    +0.000 A 
ATOM     11  C   UNL     1       1.604  -6.181   0.000  0.00  0.00    +0.000 A 
ATOM     12  C   UNL     1       0.845  -6.505   0.000  0.00  0.00    +0.000 A 
ATOM     13  C   UNL     1       0.747  -7.324   0.000  0.00  0.00    +0.000 A 
ATOM     14  C   UNL     1       0.119  -6.114   0.000  0.00  0.00    +0.000 C 
ATOM     15  C   UNL     1      -0.029  -5.303   0.000  0.00  0.00    +0.000 C 
ATOM     16  C   UNL     1       0.514  -4.681   0.000  0.00  0.00    +0.000 C 
ATOM     17  C   UNL     1       1.339  -4.718   0.000  0.00  0.00    +0.000 A 
ATOM     18  C   UNL     1       1.823  -5.386   0.000  0.00  0.00    +0.000 A 
ATOM     19  N   UNL     1       2.644  -5.300   0.000  0.00  0.00    +0.000 NA
ATOM     20  N   UNL     1       2.979  -4.546   0.000  0.00  0.00    +0.000 NA
ATOM     21  C   UNL     1       2.494  -3.878   0.000  0.00  0.00    +0.000 A 
ATOM     22  C   UNL     1       1.674  -3.965   0.000  0.00  0.00    +0.000 A 
ENDBRANCH   1  21
BRANCH   6  23
ATOM     23  C   UNL     1       5.152  -2.133   0.000  0.00  0.00    +0.000 A 
ATOM     24  C   UNL     1       5.152  -2.958   0.000  0.00  0.00    +0.000 A 
ATOM     25  C   UNL     1       5.867  -3.370   0.000  0.00  0.00    +0.000 A 
ATOM     26  C   UNL     1       6.581  -2.958   0.000  0.00  0.00    +0.000 A 
ATOM     27  C   UNL     1       6.581  -2.133   0.000  0.00  0.00    +0.000 A 
ATOM     28  C   UNL     1       5.867  -1.720   0.000  0.00  0.00    +0.000 A 
ATOM     29  C   UNL     1       7.226  -1.618   0.000  0.00  0.00    +0.000 C 
ATOM     30  C   UNL     1       8.030  -1.802   0.000  0.00  0.00    +0.000 C 
ATOM     31  C   UNL     1       8.388  -2.545   0.000  0.00  0.00    +0.000 C 
ATOM     32  C   UNL     1       8.030  -3.289   0.000  0.00  0.00    +0.000 C 
ATOM     33  C   UNL     1       7.226  -3.472   0.000  0.00  0.00    +0.000 C 
BRANCH  31  34
ATOM     34  N   UNL     1       9.213  -2.545   0.000  0.00  0.00    +0.000 NA
ATOM     35  C   UNL     1       9.698  -1.878   0.000  0.00  0.00    +0.000 C 
ATOM     36  C   UNL     1      10.483  -2.133   0.000  0.00  0.00    +0.000 C 
ATOM     37  C   UNL     1      10.483  -2.958   0.000  0.00  0.00    +0.000 C 
ATOM     38  C   UNL     1       9.698  -3.213   0.000  0.00  0.00    +0.000 C 
ENDBRANCH  31  34
ENDBRANCH   6  23
TORSDOF 3
