REMARK  Name = 
REMARK  3 active torsions:
REMARK  status: ('A' for Active; 'I' for Inactive)
REMARK    1  A    between atoms: C_2  and  C_3
REMARK    2  A    between atoms: C_2  and  C_5
REMARK    3  A    between atoms: C_5  and  N_6
REMARK                            x       y       z     vdW  Elec       q    Type
REMARK                         _______ _______ _______ _____ _____    ______ ____
ROOT
ATOM      1  N   UNL     1       0.568   1.114   0.000  0.00  0.00    +0.000 N 
ATOM      2  C   UNL     1       1.235   0.629   0.000  0.00  0.00    +0.000 A 
ATOM      3  C   UNL     1       0.980  -0.155   0.000  0.00  0.00    +0.000 A 
ATOM      4  N   UNL     1       0.155  -0.155   0.000  0.00  0.00    +0.000 NA
ATOM      5  C   UNL     1      -0.100   0.629   0.000  0.00  0.00    +0.000 A 
ATOM      6  N   UNL     1      -0.884   0.884   0.000  0.00  0.00    +0.000 N 
ATOM      7  O   UNL     1      -1.497   0.332   0.000  0.00  0.00    +0.000 OA
ATOM      8  O   UNL     1      -1.056   1.691   0.000  0.00  0.00    +0.000 OA
ENDROOT
BRANCH   1   9
ATOM      9  C   UNL     1       0.568   1.939   0.000  0.00  0.00    +0.000 C 
BRANCH   9  11
ATOM     10  O   UNL     1       1.997   1.939   0.000  0.00  0.00    +0.000 OA
ATOM     11  C   UNL     1       1.282   2.352   0.000  0.00  0.00    +0.000 C 
BRANCH  11  12
ATOM     12  C   UNL     1       1.282   3.177   0.000  0.00  0.00    +0.000 C 
ATOM     13  F   UNL     1       1.997   3.589   0.000  0.00  0.00    +0.000 F 
ENDBRANCH  11  12
ENDBRANCH   9  11
ENDBRANCH   1   9
TORSDOF 3
