REMARK  Name = 
REMARK  16 active torsions:
REMARK  status: ('A' for Active; 'I' for Inactive)
REMARK    1  A    between atoms: C_4  and  O_57
REMARK    2  A    between atoms: C_11  and  O_50
REMARK    3  A    between atoms: C_13  and  O_39
REMARK    4  A    between atoms: C_19  and  O_20
REMARK    5  A    between atoms: O_20  and  C_21
REMARK    6  A    between atoms: C_21  and  C_23
REMARK    7  A    between atoms: C_23  and  C_24
REMARK    8  A    between atoms: C_24  and  C_25
REMARK    9  A    between atoms: C_24  and  N_29
REMARK   10  A    between atoms: C_30  and  O_32
REMARK   11  A    between atoms: O_32  and  C_33
REMARK   12  A    between atoms: O_39  and  C_40
REMARK   13  A    between atoms: C_40  and  C_42
REMARK   14  A    between atoms: O_50  and  C_51
REMARK   15  A    between atoms: C_51  and  O_53
REMARK   16  A    between atoms: O_57  and  C_58
REMARK                            x       y       z     vdW  Elec       q    Type
REMARK                         _______ _______ _______ _____ _____    ______ ____
ROOT
ATOM      1  C   UNL     1      -1.000  -0.158   0.000  0.00  0.00    +0.000 C 
ATOM      2  C   UNL     1      -0.290   0.262   0.000  0.00  0.00    +0.000 C 
ATOM      3  C   UNL     1       0.458  -0.206   0.000  0.00  0.00    +0.000 C 
ATOM      4  C   UNL     1       1.020  -0.880   0.000  0.00  0.00    +0.000 C 
ATOM      5  C   UNL     1       1.866  -1.036   0.000  0.00  0.00    +0.000 C 
ATOM      6  O   UNL     1       2.053  -1.840   0.000  0.00  0.00    +0.000 OA
ATOM      7  C   UNL     1       2.537  -0.537   0.000  0.00  0.00    +0.000 C 
ATOM      8  C   UNL     1       3.201  -1.028   0.000  0.00  0.00    +0.000 C 
ATOM      9  C   UNL     1       3.957  -0.698   0.000  0.00  0.00    +0.000 C 
ATOM     10  C   UNL     1       4.050   0.122   0.000  0.00  0.00    +0.000 C 
ATOM     11  C   UNL     1       3.386   0.612   0.000  0.00  0.00    +0.000 C 
ATOM     12  C   UNL     1       2.630   0.282   0.000  0.00  0.00    +0.000 C 
ATOM     13  C   UNL     1       2.071   0.947   0.000  0.00  0.00    +0.000 C 
ATOM     14  C   UNL     1       1.206   1.094   0.000  0.00  0.00    +0.000 C 
ATOM     15  C   UNL     1       0.876   0.418   0.000  0.00  0.00    +0.000 C 
ATOM     16  C   UNL     1       1.694   0.303   0.000  0.00  0.00    +0.000 C 
ATOM     17  C   UNL     1       1.386  -0.231   0.000  0.00  0.00    +0.000 C 
ATOM     18  C   UNL     1       0.425   1.506   0.000  0.00  0.00    +0.000 C 
ATOM     19  C   UNL     1      -0.339   1.117   0.000  0.00  0.00    +0.000 C 
ATOM     20  O   UNL     1       1.470   1.875   0.000  0.00  0.00    +0.000 OA
ATOM     21  C   UNL     1       3.877   1.275   0.000  0.00  0.00    +0.000 C 
ATOM     22  O   UNL     1       4.540   0.785   0.000  0.00  0.00    +0.000 OA
ATOM     23  O   UNL     1       3.108  -1.847   0.000  0.00  0.00    +0.000 OA
ATOM     24  C   UNL     1       2.538  -1.362   0.000  0.00  0.00    +0.000 C 
ENDROOT
BRANCH  19  25
ATOM     25  O   UNL     1      -1.054   1.529   0.000  0.00  0.00    +0.000 OA
BRANCH  25  26
ATOM     26  C   UNL     1      -1.768   1.115   0.000  0.00  0.00    +0.000 C 
ATOM     27  O   UNL     1      -1.766   0.290   0.000  0.00  0.00    +0.000 OA
BRANCH  26  28
ATOM     28  C   UNL     1      -2.483   1.527   0.000  0.00  0.00    +0.000 C 
ATOM     29  O   UNL     1      -2.484   2.352   0.000  0.00  0.00    +0.000 OA
BRANCH  28  30
ATOM     30  C   UNL     1      -3.196   1.113   0.000  0.00  0.00    +0.000 C 
BRANCH  30  31
ATOM     31  C   UNL     1      -3.195   0.288   0.000  0.00  0.00    +0.000 C 
ATOM     32  C   UNL     1      -4.020   0.287   0.000  0.00  0.00    +0.000 C 
ATOM     33  C   UNL     1      -2.370   0.289   0.000  0.00  0.00    +0.000 C 
ATOM     34  C   UNL     1      -3.194  -0.537   0.000  0.00  0.00    +0.000 C 
ENDBRANCH  30  31
BRANCH  30  35
ATOM     35  N   UNL     1      -3.912   1.525   0.000  0.00  0.00    +0.000 NA
ATOM     36  C   UNL     1      -4.625   1.111   0.000  0.00  0.00    +0.000 C 
ATOM     37  O   UNL     1      -4.624   0.286   0.000  0.00  0.00    +0.000 OA
BRANCH  36  38
ATOM     38  O   UNL     1      -5.340   1.522   0.000  0.00  0.00    +0.000 OA
BRANCH  38  39
ATOM     39  C   UNL     1      -6.054   1.109   0.000  0.00  0.00    +0.000 C 
ATOM     40  C   UNL     1      -6.768   0.695   0.000  0.00  0.00    +0.000 C 
ATOM     41  C   UNL     1      -5.641   0.395   0.000  0.00  0.00    +0.000 C 
ATOM     42  C   UNL     1      -6.468   1.823   0.000  0.00  0.00    +0.000 C 
ENDBRANCH  38  39
ENDBRANCH  36  38
ENDBRANCH  30  35
ENDBRANCH  28  30
ENDBRANCH  26  28
ENDBRANCH  25  26
ENDBRANCH  19  25
BRANCH  13  43
ATOM     43  O   UNL     1       2.481   1.663   0.000  0.00  0.00    +0.000 OA
BRANCH  43  44
ATOM     44  C   UNL     1       2.065   2.376   0.000  0.00  0.00    +0.000 C 
ATOM     45  O   UNL     1       1.240   2.373   0.000  0.00  0.00    +0.000 OA
BRANCH  44  46
ATOM     46  C   UNL     1       2.475   3.092   0.000  0.00  0.00    +0.000 A 
ATOM     47  C   UNL     1       2.059   3.805   0.000  0.00  0.00    +0.000 A 
ATOM     48  C   UNL     1       2.469   4.521   0.000  0.00  0.00    +0.000 A 
ATOM     49  C   UNL     1       3.294   4.524   0.000  0.00  0.00    +0.000 A 
ATOM     50  C   UNL     1       3.709   3.811   0.000  0.00  0.00    +0.000 A 
ATOM     51  C   UNL     1       3.300   3.095   0.000  0.00  0.00    +0.000 A 
ENDBRANCH  44  46
ENDBRANCH  43  44
ENDBRANCH  13  43
BRANCH   4  52
ATOM     52  O   UNL     1       0.603  -1.592   0.000  0.00  0.00    +0.000 OA
BRANCH  52  53
ATOM     53  C   UNL     1       1.012  -2.309   0.000  0.00  0.00    +0.000 C 
ATOM     54  O   UNL     1       1.837  -2.314   0.000  0.00  0.00    +0.000 OA
ATOM     55  C   UNL     1       0.595  -3.021   0.000  0.00  0.00    +0.000 C 
ENDBRANCH  52  53
ENDBRANCH   4  52
BRANCH  11  56
ATOM     56  O   UNL     1       2.872   1.257   0.000  0.00  0.00    +0.000 OA
BRANCH  56  57
ATOM     57  C   UNL     1       3.174   2.025   0.000  0.00  0.00    +0.000 C 
ATOM     58  O   UNL     1       2.660   2.670   0.000  0.00  0.00    +0.000 OA
BRANCH  57  59
ATOM     59  O   UNL     1       3.990   2.147   0.000  0.00  0.00    +0.000 OA
ATOM     60  C   UNL     1       4.292   2.915   0.000  0.00  0.00    +0.000 C 
ENDBRANCH  57  59
ENDBRANCH  56  57
ENDBRANCH  11  56
TORSDOF 16
