REMARK  Name = 
REMARK  8 active torsions:
REMARK  status: ('A' for Active; 'I' for Inactive)
REMARK    1  A    between atoms: C_2  and  C_3
REMARK    2  A    between atoms: C_3  and  C_5
REMARK    3  A    between atoms: C_5  and  C_17
REMARK    4  A    between atoms: N_8  and  C_11
REMARK    5  A    between atoms: C_11  and  C_12
REMARK    6  A    between atoms: C_12  and  O_13
REMARK    7  A    between atoms: O_13  and  C_14
REMARK    8  A    between atoms: C_14  and  C_15
REMARK                            x       y       z     vdW  Elec       q    Type
REMARK                         _______ _______ _______ _____ _____    ______ ____
ROOT
ATOM      1  C   UNL     1       0.162  -4.371   0.000  0.00  0.00    +0.000 C 
ATOM      2  C   UNL     1       0.162  -3.546   0.000  0.00  0.00    +0.000 C 
ATOM      3  C   UNL     1       0.876  -3.134   0.000  0.00  0.00    +0.000 C 
ATOM      4  N   UNL     1       1.591  -3.546   0.000  0.00  0.00    +0.000 NA
ATOM      5  C   UNL     1       1.591  -4.371   0.000  0.00  0.00    +0.000 C 
ATOM      6  C   UNL     1       0.876  -4.784   0.000  0.00  0.00    +0.000 C 
ENDROOT
BRANCH   1   7
ATOM      7  C   UNL     1      -0.650  -4.228   0.000  0.00  0.00    +0.000 A 
ATOM      8  C   UNL     1      -1.181  -4.860   0.000  0.00  0.00    +0.000 A 
ATOM      9  C   UNL     1      -1.993  -4.716   0.000  0.00  0.00    +0.000 A 
ATOM     10  C   UNL     1      -2.275  -3.941   0.000  0.00  0.00    +0.000 A 
ATOM     11  C   UNL     1      -1.745  -3.309   0.000  0.00  0.00    +0.000 A 
ATOM     12  C   UNL     1      -0.933  -3.453   0.000  0.00  0.00    +0.000 A 
ENDBRANCH   1   7
BRANCH   1  13
ATOM     13  C   UNL     1      -0.120  -5.146   0.000  0.00  0.00    +0.000 C 
ATOM     14  O   UNL     1      -0.933  -5.290   0.000  0.00  0.00    +0.000 OA
BRANCH  13  16
ATOM     15  C   UNL     1       0.128  -6.553   0.000  0.00  0.00    +0.000 C 
ATOM     16  C   UNL     1       0.410  -5.778   0.000  0.00  0.00    +0.000 C 
ENDBRANCH  13  16
ENDBRANCH   1  13
BRANCH   4  17
ATOM     17  C   UNL     1       2.305  -3.134   0.000  0.00  0.00    +0.000 C 
BRANCH  17  18
ATOM     18  C   UNL     1       3.020  -3.546   0.000  0.00  0.00    +0.000 C 
BRANCH  18  19
ATOM     19  O   UNL     1       3.734  -3.134   0.000  0.00  0.00    +0.000 OA
BRANCH  19  20
ATOM     20  C   UNL     1       4.449  -3.546   0.000  0.00  0.00    +0.000 C 
BRANCH  20  21
ATOM     21  C   UNL     1       5.163  -3.134   0.000  0.00  0.00    +0.000 C 
ATOM     22  O   UNL     1       5.878  -3.546   0.000  0.00  0.00    +0.000 OA
ENDBRANCH  20  21
ENDBRANCH  19  20
ENDBRANCH  18  19
ENDBRANCH  17  18
ENDBRANCH   4  17
TORSDOF 8
