REMARK  Name = 
REMARK  6 active torsions:
REMARK  status: ('A' for Active; 'I' for Inactive)
REMARK    1  A    between atoms: C_2  and  O_12
REMARK    2  A    between atoms: C_5  and  C_7
REMARK    3  A    between atoms: C_7  and  C_8
REMARK    4  A    between atoms: O_12  and  C_13
REMARK    5  A    between atoms: C_13  and  C_14
REMARK    6  A    between atoms: C_14  and  C_15
REMARK                            x       y       z     vdW  Elec       q    Type
REMARK                         _______ _______ _______ _____ _____    ______ ____
ROOT
ATOM      1  C   UNL     1      -0.376   0.418   0.000  0.00  0.00    +0.000 A 
ATOM      2  C   UNL     1      -0.376  -0.418   0.000  0.00  0.00    +0.000 A 
ATOM      3  C   UNL     1       0.376  -0.836   0.000  0.00  0.00    +0.000 A 
ATOM      4  C   UNL     1       1.087  -0.418   0.000  0.00  0.00    +0.000 A 
ATOM      5  C   UNL     1       1.087   0.418   0.000  0.00  0.00    +0.000 A 
ATOM      6  C   UNL     1       0.376   0.837   0.000  0.00  0.00    +0.000 A 
ENDROOT
BRANCH   5   7
ATOM      7  C   UNL     1       1.798   0.837   0.000  0.00  0.00    +0.000 C 
BRANCH   7   8
ATOM      8  C   UNL     1       2.509   0.418   0.000  0.00  0.00    +0.000 C 
ATOM      9  N   UNL     1       3.262   0.837   0.000  0.00  0.00    +0.000 NA
ATOM     10  O   UNL     1       2.509  -0.418   0.000  0.00  0.00    +0.000 OA
ATOM     11  O   UNL     1       3.973   0.418   0.000  0.00  0.00    +0.000 OA
ENDBRANCH   7   8
ENDBRANCH   5   7
BRANCH   2  12
ATOM     12  O   UNL     1      -1.087  -0.836   0.000  0.00  0.00    +0.000 OA
BRANCH  12  13
ATOM     13  C   UNL     1      -1.799  -0.418   0.000  0.00  0.00    +0.000 C 
BRANCH  13  14
ATOM     14  C   UNL     1      -2.551  -0.836   0.000  0.00  0.00    +0.000 C 
BRANCH  14  15
ATOM     15  C   UNL     1      -3.263  -0.418   0.000  0.00  0.00    +0.000 C 
ATOM     16  C   UNL     1      -3.973  -0.836   0.000  0.00  0.00    +0.000 C 
ENDBRANCH  14  15
ENDBRANCH  13  14
ENDBRANCH  12  13
ENDBRANCH   2  12
TORSDOF 6
