REMARK  Name = 
REMARK  5 active torsions:
REMARK  status: ('A' for Active; 'I' for Inactive)
REMARK    1  A    between atoms: C_2  and  C_3
REMARK    2  A    between atoms: C_2  and  C_18
REMARK    3  A    between atoms: C_3  and  C_4
REMARK    4  A    between atoms: C_3  and  C_11
REMARK    5  A    between atoms: C_25  and  C_26
REMARK                            x       y       z     vdW  Elec       q    Type
REMARK                         _______ _______ _______ _____ _____    ______ ____
ROOT
ATOM      1  C   UNL     1       2.751   0.763   0.000  0.00  0.00    +0.000 C 
ENDROOT
BRANCH   1   2
ATOM      2  C   UNL     1       2.037   1.176   0.000  0.00  0.00    +0.000 A 
ATOM      3  C   UNL     1       1.322   0.763   0.000  0.00  0.00    +0.000 A 
ATOM      4  C   UNL     1       0.608   1.176   0.000  0.00  0.00    +0.000 A 
ATOM      5  C   UNL     1       0.608   2.001   0.000  0.00  0.00    +0.000 A 
ATOM      6  F   UNL     1      -0.107   2.413   0.000  0.00  0.00    +0.000 F 
ATOM      7  C   UNL     1       1.322   2.413   0.000  0.00  0.00    +0.000 A 
ATOM      8  C   UNL     1       2.037   2.001   0.000  0.00  0.00    +0.000 A 
ENDBRANCH   1   2
BRANCH   1   9
ATOM      9  C   UNL     1       3.466   1.176   0.000  0.00  0.00    +0.000 A 
ATOM     10  C   UNL     1       3.466   2.001   0.000  0.00  0.00    +0.000 A 
ATOM     11  C   UNL     1       4.180   2.413   0.000  0.00  0.00    +0.000 A 
ATOM     12  C   UNL     1       4.895   2.001   0.000  0.00  0.00    +0.000 A 
ATOM     13  F   UNL     1       5.609   2.413   0.000  0.00  0.00    +0.000 F 
ATOM     14  C   UNL     1       4.895   1.176   0.000  0.00  0.00    +0.000 A 
ATOM     15  C   UNL     1       4.180   0.763   0.000  0.00  0.00    +0.000 A 
ENDBRANCH   1   9
BRANCH   1  17
ATOM     16  N   UNL     1       2.037  -0.474   0.000  0.00  0.00    +0.000 NA
ATOM     17  C   UNL     1       2.751  -0.062   0.000  0.00  0.00    +0.000 C 
BRANCH  17  18
ATOM     18  C   UNL     1       3.466  -0.474   0.000  0.00  0.00    +0.000 C 
ATOM     19  O   UNL     1       4.180  -0.062   0.000  0.00  0.00    +0.000 OA
ATOM     20  N   UNL     1       3.466  -1.299   0.000  0.00  0.00    +0.000 N 
ATOM     21  C   UNL     1       4.133  -1.784   0.000  0.00  0.00    +0.000 C 
ATOM     22  C   UNL     1       3.878  -2.569   0.000  0.00  0.00    +0.000 C 
ATOM     23  F   UNL     1       4.363  -3.236   0.000  0.00  0.00    +0.000 F 
ATOM     24  C   UNL     1       3.053  -2.569   0.000  0.00  0.00    +0.000 C 
ATOM     25  C   UNL     1       2.798  -1.784   0.000  0.00  0.00    +0.000 C 
BRANCH  25  26
ATOM     26  C   UNL     1       2.014  -1.529   0.000  0.00  0.00    +0.000 C 
ATOM     27  N   UNL     1       1.229  -1.274   0.000  0.00  0.00    +0.000 NA
ENDBRANCH  25  26
ENDBRANCH  17  18
ENDBRANCH   1  17
TORSDOF 5
