REMARK  Name = 
REMARK  6 active torsions:
REMARK  status: ('A' for Active; 'I' for Inactive)
REMARK    1  A    between atoms: N_7  and  C_18
REMARK    2  A    between atoms: N_7  and  C_25
REMARK    3  A    between atoms: N_8  and  C_20
REMARK    4  A    between atoms: C_17  and  C_18
REMARK    5  A    between atoms: C_17  and  C_19
REMARK    6  A    between atoms: C_21  and  C_27
REMARK                            x       y       z     vdW  Elec       q    Type
REMARK                         _______ _______ _______ _____ _____    ______ ____
ROOT
ATOM      1  S   UNL     1      -0.999  -0.562   0.000  0.00  0.00    +0.000 S 
ATOM      2  O   UNL     1      -1.925  -2.854   0.000  0.00  0.00    +0.000 OA
ATOM      3  N   UNL     1      -0.620  -3.435   0.000  0.00  0.00    +0.000 NA
ATOM      4  N   UNL     1      -0.769  -2.014   0.000  0.00  0.00    +0.000 NA
ATOM      5  N   UNL     1      -2.079  -1.346   0.000  0.00  0.00    +0.000 NA
ATOM      6  C   UNL     1      -1.666  -0.077   0.000  0.00  0.00    +0.000 A 
ATOM      7  C   UNL     1      -2.334  -0.562   0.000  0.00  0.00    +0.000 A 
ATOM      8  C   UNL     1      -1.254  -1.346   0.000  0.00  0.00    +0.000 A 
ATOM      9  C   UNL     1      -1.105  -2.767   0.000  0.00  0.00    +0.000 C 
ENDROOT
BRANCH   3  11
ATOM     10  O   UNL     1      -1.095  -5.516   0.000  0.00  0.00    +0.000 OA
ATOM     11  C   UNL     1      -0.955  -4.189   0.000  0.00  0.00    +0.000 A 
ATOM     12  C   UNL     1      -0.543  -4.903   0.000  0.00  0.00    +0.000 A 
ATOM     13  C   UNL     1      -1.762  -4.360   0.000  0.00  0.00    +0.000 A 
ATOM     14  C   UNL     1      -1.848  -5.181   0.000  0.00  0.00    +0.000 A 
ATOM     15  C   UNL     1      -2.563  -5.593   0.000  0.00  0.00    +0.000 C 
BRANCH  12  19
ATOM     16  F   UNL     1       0.192  -5.810   0.000  0.00  0.00    +0.000 F 
ATOM     17  F   UNL     1       1.098  -5.075   0.000  0.00  0.00    +0.000 F 
ATOM     18  F   UNL     1       0.364  -4.169   0.000  0.00  0.00    +0.000 F 
ATOM     19  C   UNL     1       0.278  -4.989   0.000  0.00  0.00    +0.000 C 
ENDBRANCH  12  19
ENDBRANCH   3  11
BRANCH   6  20
ATOM     20  C   UNL     1      -1.666   0.748   0.000  0.00  0.00    +0.000 C 
BRANCH  20  21
ATOM     21  C   UNL     1      -0.952   1.161   0.000  0.00  0.00    +0.000 C 
BRANCH  21  22
ATOM     22  N   UNL     1      -0.952   1.986   0.000  0.00  0.00    +0.000 NA
BRANCH  22  29
ATOM     23  N   UNL     1       0.477   1.986   0.000  0.00  0.00    +0.000 NA
ATOM     24  N   UNL     1       0.477   4.461   0.000  0.00  0.00    +0.000 NA
ATOM     25  N   UNL     1       1.191   3.223   0.000  0.00  0.00    +0.000 NA
ATOM     26  N   UNL     1       1.278   5.694   0.000  0.00  0.00    +0.000 NA
ATOM     27  N   UNL     1       1.945   4.538   0.000  0.00  0.00    +0.000 NA
ATOM     28  N   UNL     1       2.085   5.865   0.000  0.00  0.00    +0.000 NA
ATOM     29  C   UNL     1      -0.237   2.398   0.000  0.00  0.00    +0.000 A 
ATOM     30  C   UNL     1      -0.237   3.223   0.000  0.00  0.00    +0.000 A 
ATOM     31  C   UNL     1       0.477   3.636   0.000  0.00  0.00    +0.000 A 
ATOM     32  C   UNL     1       1.191   2.398   0.000  0.00  0.00    +0.000 A 
ATOM     33  C   UNL     1       1.191   4.873   0.000  0.00  0.00    +0.000 A 
ATOM     34  C   UNL     1       2.497   5.151   0.000  0.00  0.00    +0.000 A 
ENDBRANCH  22  29
ENDBRANCH  21  22
ENDBRANCH  20  21
ENDBRANCH   6  20
TORSDOF 6
