REMARK  Name = 
REMARK  5 active torsions:
REMARK  status: ('A' for Active; 'I' for Inactive)
REMARK    1  A    between atoms: P_1  and  O_3
REMARK    2  A    between atoms: O_3  and  C_16
REMARK    3  A    between atoms: N_9  and  C_15
REMARK    4  A    between atoms: N_10  and  C_12
REMARK    5  A    between atoms: C_13  and  C_16
REMARK                            x       y       z     vdW  Elec       q    Type
REMARK                         _______ _______ _______ _____ _____    ______ ____
ROOT
ATOM      1  O   UNL     1      -0.053  -0.542   0.000  0.00  0.00    +0.000 OA
ATOM      2  C   UNL     1      -1.133  -1.327   0.000  0.00  0.00    +0.000 C 
ATOM      3  C   UNL     1      -0.308  -1.327   0.000  0.00  0.00    +0.000 C 
ATOM      4  C   UNL     1      -1.388  -0.542   0.000  0.00  0.00    +0.000 C 
ATOM      5  C   UNL     1      -0.721  -0.057   0.000  0.00  0.00    +0.000 C 
ENDROOT
BRANCH   5   8
ATOM      6  O   UNL     1      -2.150   0.768   0.000  0.00  0.00    +0.000 OA
ATOM      7  O   UNL     1      -0.721   3.243   0.000  0.00  0.00    +0.000 OA
ATOM      8  N   UNL     1      -0.721   0.768   0.000  0.00  0.00    +0.000 N 
ATOM      9  N   UNL     1      -1.435   2.005   0.000  0.00  0.00    +0.000 N 
ATOM     10  C   UNL     1      -0.006   1.180   0.000  0.00  0.00    +0.000 A 
ATOM     11  C   UNL     1      -1.435   1.180   0.000  0.00  0.00    +0.000 A 
ATOM     12  C   UNL     1      -0.006   2.005   0.000  0.00  0.00    +0.000 A 
ATOM     13  C   UNL     1      -0.721   2.418   0.000  0.00  0.00    +0.000 A 
ATOM     14  C   UNL     1       0.708   2.418   0.000  0.00  0.00    +0.000 C 
ATOM     15  H   UNL     1      -1.878   2.261   0.000  0.00  0.00    +0.000 HD
ENDBRANCH   5   8
BRANCH   2  16
ATOM     16  N   UNL     1      -1.618  -1.994   0.000  0.00  0.00    +0.000 NA
ATOM     17  H   UNL     1      -2.127  -1.941   0.000  0.00  0.00    +0.000 HD
ATOM     18  H   UNL     1      -1.410  -2.461   0.000  0.00  0.00    +0.000 HD
ENDBRANCH   2  16
BRANCH   3  19
ATOM     19  C   UNL     1       0.177  -1.994   0.000  0.00  0.00    +0.000 C 
BRANCH  19  20
ATOM     20  O   UNL     1       0.997  -1.908   0.000  0.00  0.00    +0.000 OA
BRANCH  20  21
ATOM     21  P   UNL     1       1.482  -2.575   0.000  0.00  0.00    +0.000 P 
ATOM     22  O   UNL     1       2.150  -2.090   0.000  0.00  0.00    +0.000 OA
ATOM     23  O   UNL     1       1.967  -3.243   0.000  0.00  0.00    +0.000 OA
ATOM     24  O   UNL     1       0.815  -3.060   0.000  0.00  0.00    +0.000 OA
ENDBRANCH  20  21
ENDBRANCH  19  20
ENDBRANCH   3  19
TORSDOF 5
