REMARK  Name = 
REMARK  5 active torsions:
REMARK  status: ('A' for Active; 'I' for Inactive)
REMARK    1  A    between atoms: C_3  and  O_30
REMARK    2  A    between atoms: C_4  and  O_28
REMARK    3  A    between atoms: C_9  and  C_10
REMARK    4  A    between atoms: C_10  and  C_11
REMARK    5  A    between atoms: C_20  and  C_22
REMARK                            x       y       z     vdW  Elec       q    Type
REMARK                         _______ _______ _______ _____ _____    ______ ____
ROOT
ATOM      1  C   UNL     1      -0.316   1.440   0.000  0.00  0.00    +0.000 C 
ATOM      2  N   UNL     1       0.092   0.724   0.000  0.00  0.00    +0.000 N 
ATOM      3  O   UNL     1       0.100   2.153   0.000  0.00  0.00    +0.000 OA
ATOM      4  C   UNL     1      -0.327   0.012   0.000  0.00  0.00    +0.000 C 
ATOM      5  C   UNL     1       0.078  -0.703   0.000  0.00  0.00    +0.000 C 
ATOM      6  N   UNL     1       0.903  -0.711   0.000  0.00  0.00    +0.000 N 
ATOM      7  C   UNL     1       1.322   0.001   0.000  0.00  0.00    +0.000 C 
ATOM      8  C   UNL     1       0.915   0.722   0.000  0.00  0.00    +0.000 C 
ATOM      9  C   UNL     1       1.309  -1.430   0.000  0.00  0.00    +0.000 C 
ATOM     10  O   UNL     1       0.890  -2.140   0.000  0.00  0.00    +0.000 OA
ENDROOT
BRANCH   9  11
ATOM     11  C   UNL     1       2.134  -1.437   0.000  0.00  0.00    +0.000 A 
ATOM     12  C   UNL     1       2.537  -2.154   0.000  0.00  0.00    +0.000 A 
ATOM     13  C   UNL     1       3.361  -2.162   0.000  0.00  0.00    +0.000 A 
ATOM     14  C   UNL     1       3.781  -1.451   0.000  0.00  0.00    +0.000 A 
ATOM     15  C   UNL     1       3.371  -0.730   0.000  0.00  0.00    +0.000 A 
ATOM     16  C   UNL     1       2.548  -0.726   0.000  0.00  0.00    +0.000 A 
ENDBRANCH   9  11
BRANCH   1  17
ATOM     17  C   UNL     1      -1.141   1.445   0.000  0.00  0.00    +0.000 C 
ATOM     18  O   UNL     1      -1.550   2.162   0.000  0.00  0.00    +0.000 OA
BRANCH  17  27
ATOM     19  C   UNL     1      -3.775   0.473   0.000  0.00  0.00    +0.000 A 
ATOM     20  N   UNL     1      -3.776  -0.354   0.000  0.00  0.00    +0.000 NA
ATOM     21  C   UNL     1      -3.061  -0.767   0.000  0.00  0.00    +0.000 A 
ATOM     22  C   UNL     1      -3.063   0.886   0.000  0.00  0.00    +0.000 A 
ATOM     23  C   UNL     1      -2.348   0.476   0.000  0.00  0.00    +0.000 A 
ATOM     24  C   UNL     1      -2.348  -0.354   0.000  0.00  0.00    +0.000 A 
ATOM     25  N   UNL     1      -1.557  -0.611   0.000  0.00  0.00    +0.000 NA
ATOM     26  C   UNL     1      -1.069   0.061   0.000  0.00  0.00    +0.000 A 
ATOM     27  C   UNL     1      -1.557   0.734   0.000  0.00  0.00    +0.000 A 
BRANCH  22  28
ATOM     28  O   UNL     1      -3.066   1.711   0.000  0.00  0.00    +0.000 OA
ATOM     29  C   UNL     1      -3.781   2.121   0.000  0.00  0.00    +0.000 C 
ENDBRANCH  22  28
BRANCH  21  30
ATOM     30  O   UNL     1      -3.061  -1.592   0.000  0.00  0.00    +0.000 OA
ATOM     31  C   UNL     1      -2.346  -2.005   0.000  0.00  0.00    +0.000 C 
ENDBRANCH  21  30
ENDBRANCH  17  27
ENDBRANCH   1  17
TORSDOF 5
