REMARK  Name = 
REMARK  2 active torsions:
REMARK  status: ('A' for Active; 'I' for Inactive)
REMARK    1  A    between atoms: C_5  and  C_6
REMARK    2  A    between atoms: C_6  and  C_8
REMARK                            x       y       z     vdW  Elec       q    Type
REMARK                         _______ _______ _______ _____ _____    ______ ____
ROOT
ATOM      1  S   UNL     1       2.079  -0.261   0.000  0.00  0.00    +0.000 S 
ATOM      2  O   UNL     1       0.662   1.337   0.000  0.00  0.00    +0.000 OA
ATOM      3  N   UNL     1      -0.151  -0.330   0.000  0.00  0.00    +0.000 NA
ATOM      4  N   UNL     1       0.832  -1.322   0.000  0.00  0.00    +0.000 NA
ATOM      5  C   UNL     1      -0.505   0.415   0.000  0.00  0.00    +0.000 C 
ATOM      6  C   UNL     1      -0.143   1.157   0.000  0.00  0.00    +0.000 C 
ATOM      7  C   UNL     1       1.304   0.819   0.000  0.00  0.00    +0.000 A 
ATOM      8  C   UNL     1       0.652  -0.517   0.000  0.00  0.00    +0.000 C 
ATOM      9  C   UNL     1       1.300  -0.006   0.000  0.00  0.00    +0.000 A 
ATOM     10  C   UNL     1       2.086   1.066   0.000  0.00  0.00    +0.000 A 
ATOM     11  C   UNL     1       2.564   0.400   0.000  0.00  0.00    +0.000 A 
ENDROOT
BRANCH   5  12
ATOM     12  C   UNL     1      -1.330   0.419   0.000  0.00  0.00    +0.000 C 
BRANCH  12  13
ATOM     13  C   UNL     1      -1.739   1.136   0.000  0.00  0.00    +0.000 C 
ATOM     14  C   UNL     1      -2.564   1.140   0.000  0.00  0.00    +0.000 C 
ENDBRANCH  12  13
ENDBRANCH   5  12
TORSDOF 2
