REMARK  Name = 
REMARK  4 active torsions:
REMARK  status: ('A' for Active; 'I' for Inactive)
REMARK    1  A    between atoms: N_2  and  C_7
REMARK    2  A    between atoms: N_3  and  C_18
REMARK    3  A    between atoms: N_4  and  C_24
REMARK    4  A    between atoms: C_18  and  C_19
REMARK                            x       y       z     vdW  Elec       q    Type
REMARK                         _______ _______ _______ _____ _____    ______ ____
ROOT
ATOM      1  O   UNL     1       0.667  -1.614   0.000  0.00  0.00    +0.000 OA
ATOM      2  N   UNL     1      -0.762  -1.614   0.000  0.00  0.00    +0.000 NA
ATOM      3  N   UNL     1      -0.047  -0.376   0.000  0.00  0.00    +0.000 NA
ATOM      4  C   UNL     1      -0.047  -1.201   0.000  0.00  0.00    +0.000 C 
ENDROOT
BRANCH   2   5
ATOM      5  C   UNL     1      -0.762  -2.439   0.000  0.00  0.00    +0.000 C 
ATOM      6  C   UNL     1      -0.072  -3.634   0.000  0.00  0.00    +0.000 C 
ATOM      7  C   UNL     1      -1.452  -3.634   0.000  0.00  0.00    +0.000 C 
ATOM      8  C   UNL     1      -1.332  -3.993   0.000  0.00  0.00    +0.000 C 
ATOM      9  C   UNL     1      -0.072  -2.837   0.000  0.00  0.00    +0.000 C 
ATOM     10  C   UNL     1      -1.452  -2.837   0.000  0.00  0.00    +0.000 C 
ATOM     11  C   UNL     1      -1.332  -3.130   0.000  0.00  0.00    +0.000 C 
ATOM     12  C   UNL     1      -0.762  -3.884   0.000  0.00  0.00    +0.000 C 
ATOM     13  C   UNL     1      -0.585  -4.386   0.000  0.00  0.00    +0.000 C 
ATOM     14  C   UNL     1      -2.142  -4.032   0.000  0.00  0.00    +0.000 C 
ENDBRANCH   2   5
BRANCH   3  15
ATOM     15  C   UNL     1       0.667   0.036   0.000  0.00  0.00    +0.000 C 
BRANCH  15  16
ATOM     16  C   UNL     1       0.667   0.861   0.000  0.00  0.00    +0.000 A 
ATOM     17  C   UNL     1      -0.047   1.274   0.000  0.00  0.00    +0.000 A 
ATOM     18  C   UNL     1       1.382   1.274   0.000  0.00  0.00    +0.000 A 
ATOM     19  C   UNL     1      -0.047   2.099   0.000  0.00  0.00    +0.000 A 
ATOM     20  C   UNL     1       1.382   2.099   0.000  0.00  0.00    +0.000 A 
ATOM     21  C   UNL     1       0.667   2.511   0.000  0.00  0.00    +0.000 A 
BRANCH  21  22
ATOM     22  N   UNL     1       0.667   3.336   0.000  0.00  0.00    +0.000 NA
ATOM     23  N   UNL     1       1.382   4.574   0.000  0.00  0.00    +0.000 NA
ATOM     24  N   UNL     1       2.096   3.336   0.000  0.00  0.00    +0.000 NA
ATOM     25  C   UNL     1       1.382   3.749   0.000  0.00  0.00    +0.000 C 
ENDBRANCH  21  22
ENDBRANCH  15  16
ENDBRANCH   3  15
TORSDOF 4
