REMARK  Name = 
REMARK  5 active torsions:
REMARK  status: ('A' for Active; 'I' for Inactive)
REMARK    1  A    between atoms: C_4  and  C_13
REMARK    2  A    between atoms: C_11  and  CA_12
REMARK    3  A    between atoms: CA_12  and  C_13
REMARK    4  A    between atoms: CA_12  and  N_17
REMARK    5  A    between atoms: C_18  and  C_19
REMARK                            x       y       z     vdW  Elec       q    Type
REMARK                         _______ _______ _______ _____ _____    ______ ____
ROOT
ATOM      1  CA  UNL     1       0.824  -0.714   0.000  0.00  0.00    +0.000 C 
ENDROOT
BRANCH   1   2
ATOM      2  C   UNL     1       1.237  -1.427   0.000  0.00  0.00    +0.000 C 
ATOM      3  O   UNL     1       2.062  -1.426   0.000  0.00  0.00    +0.000 OA
ATOM      4  OXT UNL     1       0.826  -2.143   0.000  0.00  0.00    +0.000 OA
ENDBRANCH   1   2
BRANCH   1   5
ATOM      5  N   UNL     1      -0.001  -0.715   0.000  0.00  0.00    +0.000 NA
ATOM      6  C   UNL     1      -0.412  -1.430   0.000  0.00  0.00    +0.000 C 
ATOM      7  O   UNL     1       0.001  -2.144   0.000  0.00  0.00    +0.000 OA
BRANCH   6   8
ATOM      8  C   UNL     1      -1.238  -1.432   0.000  0.00  0.00    +0.000 A 
ATOM      9  C   UNL     1      -1.649  -2.147   0.000  0.00  0.00    +0.000 A 
ATOM     10  C   UNL     1      -2.474  -2.148   0.000  0.00  0.00    +0.000 A 
ATOM     11  C   UNL     1      -2.888  -1.435   0.000  0.00  0.00    +0.000 A 
ATOM     12  C   UNL     1      -2.476  -0.720   0.000  0.00  0.00    +0.000 A 
ATOM     13  C   UNL     1      -1.651  -0.718   0.000  0.00  0.00    +0.000 A 
ATOM     14 CL   UNL     1      -3.712  -1.436   0.000  0.00  0.00    +0.000 Cl
ENDBRANCH   6   8
ENDBRANCH   1   5
BRANCH   1  15
ATOM     15  C   UNL     1       1.235   0.001   0.000  0.00  0.00    +0.000 C 
BRANCH  15  19
ATOM     16  N   UNL     1       3.710   0.006   0.000  0.00  0.00    +0.000 NA
ATOM     17  C   UNL     1       3.299  -0.709   0.000  0.00  0.00    +0.000 A 
ATOM     18  C   UNL     1       2.474  -0.711   0.000  0.00  0.00    +0.000 A 
ATOM     19  C   UNL     1       2.060   0.003   0.000  0.00  0.00    +0.000 A 
ATOM     20  C   UNL     1       2.471   0.718   0.000  0.00  0.00    +0.000 A 
ATOM     21  C   UNL     1       2.057   1.432   0.000  0.00  0.00    +0.000 A 
ATOM     22  C   UNL     1       2.469   2.147   0.000  0.00  0.00    +0.000 A 
ATOM     23  C   UNL     1       3.294   2.148   0.000  0.00  0.00    +0.000 A 
ATOM     24  C   UNL     1       3.707   1.435   0.000  0.00  0.00    +0.000 A 
ATOM     25  C   UNL     1       3.296   0.720   0.000  0.00  0.00    +0.000 A 
ATOM     26  O   UNL     1       3.712  -1.423   0.000  0.00  0.00    +0.000 OA
ENDBRANCH  15  19
ENDBRANCH   1  15
TORSDOF 5
