REMARK  Name = 
REMARK  32 active torsions:
REMARK  status: ('A' for Active; 'I' for Inactive)
REMARK    1  A    between atoms: CA_2  and  C_3
REMARK    2  A    between atoms: N_5  and  CA_6
REMARK    3  A    between atoms: CA_6  and  C_7
REMARK    4  A    between atoms: CA_6  and  CB_78
REMARK    5  A    between atoms: N_8  and  CA_9
REMARK    6  A    between atoms: CA_9  and  C_10
REMARK    7  A    between atoms: CA_9  and  CB_67
REMARK    8  A    between atoms: N_11  and  C_12
REMARK    9  A    between atoms: C_12  and  C_13
REMARK   10  A    between atoms: C_12  and  C_64
REMARK   11  A    between atoms: N_14  and  C_15
REMARK   12  A    between atoms: C_15  and  C_16
REMARK   13  A    between atoms: C_15  and  C_55
REMARK   14  A    between atoms: N_17  and  C_18
REMARK   15  A    between atoms: C_18  and  C_19
REMARK   16  A    between atoms: C_18  and  C_50
REMARK   17  A    between atoms: N_21  and  C_22
REMARK   18  A    between atoms: C_22  and  C_23
REMARK   19  A    between atoms: C_22  and  C_46
REMARK   20  A    between atoms: N_24  and  C_25
REMARK   21  A    between atoms: C_25  and  C_26
REMARK   22  A    between atoms: C_25  and  C_38
REMARK   23  A    between atoms: C_28  and  C_32
REMARK   24  A    between atoms: N_34  and  C_35
REMARK   25  A    between atoms: C_38  and  C_39
REMARK   26  A    between atoms: C_39  and  C_40
REMARK   27  A    between atoms: C_40  and  N_41
REMARK   28  A    between atoms: C_46  and  C_47
REMARK   29  A    between atoms: C_50  and  C_51
REMARK   30  A    between atoms: C_55  and  C_56
REMARK   31  A    between atoms: CB_67  and  CG_68
REMARK   32  A    between atoms: CB_78  and  CG_79
REMARK                            x       y       z     vdW  Elec       q    Type
REMARK                         _______ _______ _______ _____ _____    ______ ____
ROOT
ATOM      1  C   UNK A   4      -0.679  -0.573   0.000  0.00  0.00    +0.000 C 
ENDROOT
BRANCH   1   3
ATOM      2  C   UNK A   4      -2.105  -0.573   0.000  0.00  0.00    +0.000 C 
ATOM      3  N   UNK A   4      -1.392  -0.158   0.000  0.00  0.00    +0.000 NA
ATOM      4  O   UNK A   4      -2.105  -1.398   0.000  0.00  0.00    +0.000 OA
BRANCH   2   5
ATOM      5  C   UNK A   4      -2.823  -0.158   0.000  0.00  0.00    +0.000 C 
BRANCH   5   7
ATOM      6  C   TRP A   3      -4.250  -0.158   0.000  0.00  0.00    +0.000 C 
ATOM      7  N   UNK A   4      -3.537  -0.573   0.000  0.00  0.00    +0.000 NA
ATOM      8  O   TRP A   3      -4.250   0.666   0.000  0.00  0.00    +0.000 OA
BRANCH   6   9
ATOM      9  CA  TRP A   3      -4.963  -0.573   0.000  0.00  0.00    +0.000 C 
BRANCH   9  11
ATOM     10  C   HIS A   2      -6.390  -0.573   0.000  0.00  0.00    +0.000 C 
ATOM     11  N   TRP A   3      -5.677  -0.158   0.000  0.00  0.00    +0.000 NA
ATOM     12  O   HIS A   2      -6.390  -1.398   0.000  0.00  0.00    +0.000 OA
BRANCH  10  13
ATOM     13  CA  HIS A   2      -7.104  -0.158   0.000  0.00  0.00    +0.000 C 
BRANCH  13  16
ATOM     14  C   GLN A   1      -7.822  -1.398   0.000  0.00  0.00    +0.000 C 
ATOM     15  O   GLN A   1      -7.104  -1.808   0.000  0.00  0.00    +0.000 OA
ATOM     16  N   HIS A   2      -7.822  -0.573   0.000  0.00  0.00    +0.000 NA
BRANCH  14  18
ATOM     17  N   GLN A   1      -8.622  -2.628   0.000  0.00  0.00    +0.000 NA
ATOM     18  CA  GLN A   1      -8.535  -1.808   0.000  0.00  0.00    +0.000 C 
ATOM     19  CB  GLN A   1      -9.287  -1.473   0.000  0.00  0.00    +0.000 C 
ATOM     20  CG  GLN A   1      -9.839  -2.086   0.000  0.00  0.00    +0.000 C 
ATOM     21  CD  GLN A   1      -9.425  -2.800   0.000  0.00  0.00    +0.000 C 
ATOM     22  OE1 GLN A   1      -9.764  -3.552   0.000  0.00  0.00    +0.000 OA
ENDBRANCH  14  18
ENDBRANCH  13  16
BRANCH  13  23
ATOM     23  CB  HIS A   2      -7.104   0.666   0.000  0.00  0.00    +0.000 C 
BRANCH  23  24
ATOM     24  CG  HIS A   2      -7.822   1.077   0.000  0.00  0.00    +0.000 A 
ATOM     25  CD2 HIS A   2      -7.908   1.896   0.000  0.00  0.00    +0.000 A 
ATOM     26  NE2 HIS A   2      -8.711   2.068   0.000  0.00  0.00    +0.000 NA
ATOM     27  CE1 HIS A   2      -9.126   1.355   0.000  0.00  0.00    +0.000 A 
ATOM     28  ND1 HIS A   2      -8.573   0.742   0.000  0.00  0.00    +0.000 NA
ENDBRANCH  23  24
ENDBRANCH  13  23
ENDBRANCH  10  13
ENDBRANCH   9  11
BRANCH   9  29
ATOM     29  CB  TRP A   3      -4.963  -1.398   0.000  0.00  0.00    +0.000 C 
BRANCH  29  30
ATOM     30  CG  TRP A   3      -4.472  -2.077   0.000  0.00  0.00    +0.000 A 
ATOM     31  CD1 TRP A   3      -4.893  -2.786   0.000  0.00  0.00    +0.000 A 
ATOM     32  NE1 TRP A   3      -4.348  -3.403   0.000  0.00  0.00    +0.000 NA
ATOM     33  CE2 TRP A   3      -3.591  -3.076   0.000  0.00  0.00    +0.000 A 
ATOM     34  CD2 TRP A   3      -3.666  -2.257   0.000  0.00  0.00    +0.000 A 
ATOM     35  CE3 TRP A   3      -2.996  -1.779   0.000  0.00  0.00    +0.000 A 
ATOM     36  CZ3 TRP A   3      -2.246  -2.123   0.000  0.00  0.00    +0.000 A 
ATOM     37  CH2 TRP A   3      -2.167  -2.945   0.000  0.00  0.00    +0.000 A 
ATOM     38  CZ2 TRP A   3      -2.841  -3.420   0.000  0.00  0.00    +0.000 A 
ENDBRANCH  29  30
ENDBRANCH   9  29
ENDBRANCH   6   9
ENDBRANCH   5   7
BRANCH   5  39
ATOM     39  C   UNK A   4      -2.823   0.666   0.000  0.00  0.00    +0.000 C 
ATOM     40  O   UNK A   4      -2.105   1.077   0.000  0.00  0.00    +0.000 OA
ENDBRANCH   5  39
ENDBRANCH   2   5
ENDBRANCH   1   3
BRANCH   1  41
ATOM     41  C   UNK A   4       0.035  -0.158   0.000  0.00  0.00    +0.000 C 
ATOM     42  N   UNK A   4       0.748  -0.573   0.000  0.00  0.00    +0.000 NA
ATOM     43  O   UNK A   4       0.035   0.666   0.000  0.00  0.00    +0.000 OA
BRANCH  42  44
ATOM     44  C   UNK A   4       1.462  -0.158   0.000  0.00  0.00    +0.000 C 
BRANCH  44  45
ATOM     45  C   UNK A   4       2.175  -0.573   0.000  0.00  0.00    +0.000 C 
ATOM     46  O   UNK A   4       2.175  -1.398   0.000  0.00  0.00    +0.000 OA
ATOM     47  N   UNK A   4       2.893  -0.158   0.000  0.00  0.00    +0.000 NA
BRANCH  47  48
ATOM     48  C   UNK A   4       3.606  -0.573   0.000  0.00  0.00    +0.000 C 
BRANCH  48  49
ATOM     49  C   UNK A   4       4.320  -0.158   0.000  0.00  0.00    +0.000 C 
ATOM     50  N   UNK A   4       5.033  -0.573   0.000  0.00  0.00    +0.000 NA
ATOM     51  O   UNK A   4       4.320   0.667   0.000  0.00  0.00    +0.000 OA
BRANCH  50  52
ATOM     52  C   UNK A   4       5.746  -0.158   0.000  0.00  0.00    +0.000 C 
BRANCH  52  53
ATOM     53  C   UNK A   4       6.460  -0.573   0.000  0.00  0.00    +0.000 C 
ATOM     54  N   UNK A   4       7.178  -0.158   0.000  0.00  0.00    +0.000 N 
ATOM     55  C   UNK A   4       7.930  -0.493   0.000  0.00  0.00    +0.000 C 
ATOM     56  C   UNK A   4       8.482   0.120   0.000  0.00  0.00    +0.000 C 
ATOM     57  C   UNK A   4       8.068   0.833   0.000  0.00  0.00    +0.000 C 
ATOM     58  C   UNK A   4       7.260   0.661   0.000  0.00  0.00    +0.000 C 
ATOM     59  O   UNK A   4       6.460  -1.398   0.000  0.00  0.00    +0.000 OA
BRANCH  55  60
ATOM     60  C   UNK A   4       8.102  -1.301   0.000  0.00  0.00    +0.000 C 
ATOM     61  O   UNK A   4       7.489  -1.853   0.000  0.00  0.00    +0.000 OA
ATOM     62  N   UNK A   4       8.887  -1.556   0.000  0.00  0.00    +0.000 NA
BRANCH  62  63
ATOM     63  C   UNK A   4       9.054  -2.364   0.000  0.00  0.00    +0.000 C 
ATOM     64  C   UNK A   4       9.839  -2.619   0.000  0.00  0.00    +0.000 C 
ENDBRANCH  62  63
ENDBRANCH  55  60
ENDBRANCH  52  53
BRANCH  52  65
ATOM     65  C   UNK A   4       5.746   0.667   0.000  0.00  0.00    +0.000 C 
BRANCH  65  66
ATOM     66  C   UNK A   4       6.460   1.077   0.000  0.00  0.00    +0.000 C 
BRANCH  66  67
ATOM     67  C   UNK A   4       6.460   1.902   0.000  0.00  0.00    +0.000 C 
BRANCH  67  68
ATOM     68  N   UNK A   4       7.178   2.317   0.000  0.00  0.00    +0.000 NA
ATOM     69  C   UNK A   4       7.178   3.141   0.000  0.00  0.00    +0.000 C 
ATOM     70  N   UNK A   4       6.460   3.552   0.000  0.00  0.00    +0.000 NA
ATOM     71  N   UNK A   4       7.891   3.552   0.000  0.00  0.00    +0.000 NA
ENDBRANCH  67  68
ENDBRANCH  66  67
ENDBRANCH  65  66
ENDBRANCH  52  65
ENDBRANCH  50  52
ENDBRANCH  48  49
BRANCH  48  72
ATOM     72  C   UNK A   4       3.606  -1.398   0.000  0.00  0.00    +0.000 C 
BRANCH  72  73
ATOM     73  C   UNK A   4       4.320  -1.808   0.000  0.00  0.00    +0.000 C 
ATOM     74  C   UNK A   4       4.320  -2.633   0.000  0.00  0.00    +0.000 C 
ATOM     75  C   UNK A   4       5.033  -1.398   0.000  0.00  0.00    +0.000 C 
ENDBRANCH  72  73
ENDBRANCH  48  72
ENDBRANCH  47  48
ENDBRANCH  44  45
BRANCH  44  76
ATOM     76  C   UNK A   4       1.462   0.666   0.000  0.00  0.00    +0.000 C 
BRANCH  76  77
ATOM     77  C   UNK A   4       2.175   1.077   0.000  0.00  0.00    +0.000 C 
ATOM     78  C   UNK A   4       2.175   1.902   0.000  0.00  0.00    +0.000 C 
ATOM     79  C   UNK A   4       2.893   0.667   0.000  0.00  0.00    +0.000 C 
ENDBRANCH  76  77
ENDBRANCH  44  76
ENDBRANCH  42  44
ENDBRANCH   1  41
BRANCH   1  80
ATOM     80  C   UNK A   4      -0.679  -1.398   0.000  0.00  0.00    +0.000 C 
BRANCH  80  81
ATOM     81  C   UNK A   4       0.035  -1.808   0.000  0.00  0.00    +0.000 A 
ATOM     82  C   UNK A   4       0.035  -2.633   0.000  0.00  0.00    +0.000 A 
ATOM     83  C   UNK A   4       0.748  -3.043   0.000  0.00  0.00    +0.000 A 
ATOM     84  C   UNK A   4       1.462  -2.633   0.000  0.00  0.00    +0.000 A 
ATOM     85  C   UNK A   4       1.462  -1.808   0.000  0.00  0.00    +0.000 A 
ATOM     86  C   UNK A   4       0.748  -1.398   0.000  0.00  0.00    +0.000 A 
ATOM     87  O   UNK A   4       2.175  -3.043   0.000  0.00  0.00    +0.000 OA
ENDBRANCH  80  81
ENDBRANCH   1  80
TORSDOF 32
