REMARK  Name = 
REMARK  5 active torsions:
REMARK  status: ('A' for Active; 'I' for Inactive)
REMARK    1  A    between atoms: C_1  and  C_2
REMARK    2  A    between atoms: C_1  and  O_3
REMARK    3  A    between atoms: C_2  and  CA_8
REMARK    4  A    between atoms: O_3  and  N_4
REMARK    5  A    between atoms: CA_8  and  C_9
REMARK                            x       y       z     vdW  Elec       q    Type
REMARK                         _______ _______ _______ _____ _____    ______ ____
ROOT
ATOM      1  C   UNL     1      -0.002  -0.206   0.000  0.00  0.00    +0.000 C 
ENDROOT
BRANCH   1   2
ATOM      2  C   UNL     1       0.713   0.206   0.000  0.00  0.00    +0.000 C 
BRANCH   2   3
ATOM      3  CA  UNL     1       1.427  -0.206   0.000  0.00  0.00    +0.000 C 
ATOM      4  N   UNL     1       1.427  -1.032   0.000  0.00  0.00    +0.000 NA
BRANCH   3   5
ATOM      5  C   UNL     1       2.142   0.206   0.000  0.00  0.00    +0.000 C 
ATOM      6  O   UNL     1       2.860  -0.206   0.000  0.00  0.00    +0.000 OA
ATOM      7  OXT UNL     1       2.145   1.032   0.000  0.00  0.00    +0.000 OA
ENDBRANCH   3   5
ENDBRANCH   2   3
ENDBRANCH   1   2
BRANCH   1   8
ATOM      8  O   UNL     1      -0.716   0.206   0.000  0.00  0.00    +0.000 OA
BRANCH   8   9
ATOM      9  N   UNL     1      -1.431  -0.206   0.000  0.00  0.00    +0.000 NA
ATOM     10  C   UNL     1      -2.145   0.206   0.000  0.00  0.00    +0.000 C 
ATOM     11  N   UNL     1      -2.859  -0.206   0.000  0.00  0.00    +0.000 NA
ATOM     12  N   UNL     1      -2.145   1.031   0.000  0.00  0.00    +0.000 NA
ENDBRANCH   8   9
ENDBRANCH   1   8
TORSDOF 5
