REMARK  Name = 
REMARK  13 active torsions:
REMARK  status: ('A' for Active; 'I' for Inactive)
REMARK    1  A    between atoms: O_3  and  C_21
REMARK    2  A    between atoms: O_3  and  C_27
REMARK    3  A    between atoms: N_12  and  C_18
REMARK    4  A    between atoms: N_13  and  C_29
REMARK    5  A    between atoms: C_16  and  C_22
REMARK    6  A    between atoms: C_17  and  C_21
REMARK    7  A    between atoms: C_23  and  C_24
REMARK    8  A    between atoms: C_24  and  C_25
REMARK    9  A    between atoms: C_25  and  C_26
REMARK   10  A    between atoms: C_26  and  C_28
REMARK   11  A    between atoms: C_28  and  C_29
REMARK   12  A    between atoms: C_29  and  C_31
REMARK   13  A    between atoms: C_32  and  C_33
REMARK                            x       y       z     vdW  Elec       q    Type
REMARK                         _______ _______ _______ _____ _____    ______ ____
ROOT
ATOM      1  S   UNK A   1      -2.752  -0.115   0.000  0.00  0.00    +0.000 S 
ATOM      2  O   UNK A   1      -0.624   1.710   0.000  0.00  0.00    +0.000 OA
ATOM      3  N   UNK A   1      -2.038   1.122   0.000  0.00  0.00    +0.000 N 
ATOM      4  C   UNK A   1      -2.038   0.297   0.000  0.00  0.00    +0.000 C 
ATOM      5  C   UNK A   1      -2.752   1.534   0.000  0.00  0.00    +0.000 C 
ATOM      6  C   UNK A   1      -3.467   1.122   0.000  0.00  0.00    +0.000 C 
ATOM      7  C   UNK A   1      -1.206   0.294   0.000  0.00  0.00    +0.000 C 
ATOM      8  C   UNK A   1      -1.206   1.125   0.000  0.00  0.00    +0.000 C 
ATOM      9  C   UNK A   1      -3.467   0.297   0.000  0.00  0.00    +0.000 C 
ENDROOT
BRANCH   5  12
ATOM     10  O   UNK A   2      -3.467   2.772   0.000  0.00  0.00    +0.000 OA
ATOM     11  O   UNK A   2      -2.038   2.772   0.000  0.00  0.00    +0.000 OA
ATOM     12  C   UNK A   1      -2.752   2.360   0.000  0.00  0.00    +0.000 C 
ENDBRANCH   5  12
BRANCH   7  14
ATOM     13  O   UNK A   0       0.388   0.717   0.000  0.00  0.00    +0.000 OA
ATOM     14  N   UNK A   1      -0.624  -0.291   0.000  0.00  0.00    +0.000 NA
ATOM     15  C   UNK A   0       0.173  -0.079   0.000  0.00  0.00    +0.000 C 
BRANCH  15  16
ATOM     16  C   UNK A   0       0.755  -0.663   0.000  0.00  0.00    +0.000 C 
BRANCH  16  17
ATOM     17  C   UNK A   0       1.553  -0.452   0.000  0.00  0.00    +0.000 C 
BRANCH  17  18
ATOM     18  C   UNK A   0       2.135  -1.036   0.000  0.00  0.00    +0.000 C 
BRANCH  18  19
ATOM     19  C   UNK A   0       2.932  -0.824   0.000  0.00  0.00    +0.000 C 
BRANCH  19  20
ATOM     20  C   UNK A   0       3.514  -1.409   0.000  0.00  0.00    +0.000 C 
BRANCH  20  22
ATOM     21  O   UNK A   1       4.678  -2.578   0.000  0.00  0.00    +0.000 OA
ATOM     22  N   UNK A   2       4.311  -1.197   0.000  0.00  0.00    +0.000 NA
ATOM     23  C   UNK A   1       4.894  -1.781   0.000  0.00  0.00    +0.000 C 
BRANCH  23  25
ATOM     24  N   UNK A   1       6.273  -2.154   0.000  0.00  0.00    +0.000 NA
ATOM     25  C   UNK A   1       5.691  -1.569   0.000  0.00  0.00    +0.000 C 
ENDBRANCH  23  25
ENDBRANCH  20  22
BRANCH  20  28
ATOM     26  O   UNK A   2       3.881  -2.790   0.000  0.00  0.00    +0.000 OA
ATOM     27  O   UNK A   2       2.502  -2.417   0.000  0.00  0.00    +0.000 OA
ATOM     28  C   UNK A   0       3.299  -2.205   0.000  0.00  0.00    +0.000 C 
ENDBRANCH  20  28
ENDBRANCH  19  20
ENDBRANCH  18  19
ENDBRANCH  17  18
ENDBRANCH  16  17
ENDBRANCH  15  16
ENDBRANCH   7  14
BRANCH   6  29
ATOM     29  C   UNK A   1      -4.181   1.534   0.000  0.00  0.00    +0.000 C 
BRANCH  29  30
ATOM     30  O   UNK A   1      -4.896   1.122   0.000  0.00  0.00    +0.000 OA
BRANCH  30  32
ATOM     31  O   UNK A   1      -5.610   2.360   0.000  0.00  0.00    +0.000 OA
ATOM     32  C   UNK A   1      -5.610   1.534   0.000  0.00  0.00    +0.000 C 
ATOM     33  C   UNK A   1      -6.324   1.122   0.000  0.00  0.00    +0.000 C 
ENDBRANCH  30  32
ENDBRANCH  29  30
ENDBRANCH   6  29
TORSDOF 13
