REMARK  Name = 
REMARK  6 active torsions:
REMARK  status: ('A' for Active; 'I' for Inactive)
REMARK    1  A    between atoms: C_2  and  CA_4
REMARK    2  A    between atoms: CA_4  and  N_5
REMARK    3  A    between atoms: CA_4  and  CB_6
REMARK    4  A    between atoms: CB_6  and  CG_7
REMARK    5  A    between atoms: C_14  and  C_16
REMARK    6  A    between atoms: C_14  and  C_19
REMARK                            x       y       z     vdW  Elec       q    Type
REMARK                         _______ _______ _______ _____ _____    ______ ____
ROOT
ATOM      1  N   ASP A   1       1.184  -0.798   0.000  0.00  0.00    +0.000 NA
ATOM      2  C   UNK A   0       0.469  -0.385   0.000  0.00  0.00    +0.000 C 
ATOM      3  O   UNK A   0       0.469   0.440   0.000  0.00  0.00    +0.000 OA
ENDROOT
BRANCH   1   4
ATOM      4  CA  ASP A   1       1.898  -0.385   0.000  0.00  0.00    +0.000 C 
BRANCH   4   6
ATOM      5  O   ASP A   1       2.613  -1.623   0.000  0.00  0.00    +0.000 OA
ATOM      6  C   ASP A   1       2.613  -0.798   0.000  0.00  0.00    +0.000 C 
ATOM      7  OXT ASP A   1       3.327  -0.385   0.000  0.00  0.00    +0.000 OA
ENDBRANCH   4   6
BRANCH   4   8
ATOM      8  CB  ASP A   1       1.898   0.440   0.000  0.00  0.00    +0.000 C 
BRANCH   8   9
ATOM      9  CG  ASP A   1       2.613   0.852   0.000  0.00  0.00    +0.000 C 
ATOM     10  OD1 ASP A   1       2.613   1.677   0.000  0.00  0.00    +0.000 OA
ATOM     11  OD2 ASP A   1       3.327   0.440   0.000  0.00  0.00    +0.000 OA
ENDBRANCH   8   9
ENDBRANCH   4   8
ENDBRANCH   1   4
BRANCH   2  12
ATOM     12  C   UNK A   0      -0.245  -0.798   0.000  0.00  0.00    +0.000 C 
BRANCH  12  18
ATOM     13  C   UNK A   0      -2.775  -1.677   0.000  0.00  0.00    +0.000 A 
ATOM     14  C   UNK A   0      -3.327  -1.064   0.000  0.00  0.00    +0.000 A 
ATOM     15  C   UNK A   0      -1.968  -1.506   0.000  0.00  0.00    +0.000 A 
ATOM     16  C   UNK A   0      -3.072  -0.279   0.000  0.00  0.00    +0.000 A 
ATOM     17  C   UNK A   0      -1.046   0.435   0.000  0.00  0.00    +0.000 A 
ATOM     18  C   UNK A   0      -0.960  -0.385   0.000  0.00  0.00    +0.000 A 
ATOM     19  C   UNK A   0      -1.713  -0.721   0.000  0.00  0.00    +0.000 A 
ATOM     20  C   UNK A   0      -2.265  -0.108   0.000  0.00  0.00    +0.000 A 
ATOM     21  N   UNK A   0      -1.853   0.607   0.000  0.00  0.00    +0.000 NA
ENDBRANCH  12  18
ENDBRANCH   2  12
TORSDOF 6
