REMARK  Name = 
REMARK  4 active torsions:
REMARK  status: ('A' for Active; 'I' for Inactive)
REMARK    1  A    between atoms: C_4  and  C_15
REMARK    2  A    between atoms: C_14  and  C_16
REMARK    3  A    between atoms: C_15  and  O_19
REMARK    4  A    between atoms: C_16  and  O_19
REMARK                            x       y       z     vdW  Elec       q    Type
REMARK                         _______ _______ _______ _____ _____    ______ ____
ROOT
ATOM      1  C   UNL     1      -2.136   3.203   0.000  0.00  0.00    +0.000 C 
ATOM      2  C   UNL     1      -2.036   6.060   0.000  0.00  0.00    +0.000 C 
ATOM      3  C   UNL     1      -0.437   4.574   0.000  0.00  0.00    +0.000 C 
ATOM      4  C   UNL     1      -0.825   5.302   0.000  0.00  0.00    +0.000 C 
ATOM      5  C   UNL     1      -2.086   4.631   0.000  0.00  0.00    +0.000 C 
ATOM      6  C   UNL     1      -1.699   3.903   0.000  0.00  0.00    +0.000 C 
ATOM      7  C   UNL     1      -0.874   3.874   0.000  0.00  0.00    +0.000 C 
ATOM      8  N   UNL     1      -1.649   5.331   0.000  0.00  0.00    +0.000 NA
ENDROOT
BRANCH   7  14
ATOM      9  C   UNL     1      -0.874   1.399   0.000  0.00  0.00    +0.000 A 
ATOM     10  C   UNL     1      -0.160   1.812   0.000  0.00  0.00    +0.000 A 
ATOM     11  C   UNL     1      -1.589   1.812   0.000  0.00  0.00    +0.000 A 
ATOM     12  C   UNL     1      -0.160   2.637   0.000  0.00  0.00    +0.000 A 
ATOM     13  C   UNL     1      -1.589   2.637   0.000  0.00  0.00    +0.000 A 
ATOM     14  C   UNL     1      -0.874   3.049   0.000  0.00  0.00    +0.000 A 
ENDBRANCH   7  14
BRANCH   7  15
ATOM     15  O   UNL     1      -0.190   3.413   0.000  0.00  0.00    +0.000 OA
BRANCH  15  16
ATOM     16  C   UNL     1       0.551   3.775   0.000  0.00  0.00    +0.000 C 
ATOM     17  O   UNL     1       1.235   3.313   0.000  0.00  0.00    +0.000 OA
BRANCH  16  19
ATOM     18  C   UNL     1       1.350   4.959   0.000  0.00  0.00    +0.000 C 
ATOM     19  C   UNL     1       0.609   4.598   0.000  0.00  0.00    +0.000 C 
ENDBRANCH  16  19
ENDBRANCH  15  16
ENDBRANCH   7  15
TORSDOF 4
