REMARK  Name = 
REMARK  6 active torsions:
REMARK  status: ('A' for Active; 'I' for Inactive)
REMARK    1  A    between atoms: N_4  and  CA_5
REMARK    2  A    between atoms: CA_5  and  CB_6
REMARK    3  A    between atoms: CA_5  and  C_8
REMARK    4  A    between atoms: N_14  and  CA_15
REMARK    5  A    between atoms: CA_15  and  CB_16
REMARK    6  A    between atoms: CA_15  and  C_18
REMARK                            x       y       z     vdW  Elec       q    Type
REMARK                         _______ _______ _______ _____ _____    ______ ____
ROOT
ATOM      1  CA  CYS A   1       0.000  -0.075   0.000  0.00  0.00    +0.000 C 
ENDROOT
BRANCH   1   5
ATOM      2  C   UNK A   0      -2.143  -0.487   0.000  0.00  0.00    +0.000 C 
ATOM      3  C   UNK A   0      -1.429  -0.075   0.000  0.00  0.00    +0.000 C 
ATOM      4  O   UNK A   0      -1.429   0.750   0.000  0.00  0.00    +0.000 OA
ATOM      5  N   CYS A   1      -0.715  -0.487   0.000  0.00  0.00    +0.000 NA
ENDBRANCH   1   5
BRANCH   1   6
ATOM      6  C   CYS A   1       0.715  -0.487   0.000  0.00  0.00    +0.000 C 
ATOM      7  O   CYS A   1       0.715  -1.312   0.000  0.00  0.00    +0.000 OA
ATOM      8  OXT CYS A   1       1.429  -0.075   0.000  0.00  0.00    +0.000 OA
ENDBRANCH   1   6
BRANCH   1   9
ATOM      9  CB  CYS A   1       0.000   0.750   0.000  0.00  0.00    +0.000 C 
ATOM     10  SG  CYS A   1       0.715   1.163   0.000  0.00  0.00    +0.000 S 
ENDBRANCH   1   9
TORSDOF 3
REMARK  Name = 
REMARK  6 active torsions:
REMARK  status: ('A' for Active; 'I' for Inactive)
REMARK    1  A    between atoms: N_4  and  CA_5
REMARK    2  A    between atoms: CA_5  and  CB_6
REMARK    3  A    between atoms: CA_5  and  C_8
REMARK    4  A    between atoms: N_14  and  CA_15
REMARK    5  A    between atoms: CA_15  and  CB_16
REMARK    6  A    between atoms: CA_15  and  C_18
REMARK                            x       y       z     vdW  Elec       q    Type
REMARK                         _______ _______ _______ _____ _____    ______ ____
ROOT
ATOM      1  CA  CYS A   1       5.929  -0.454   0.000  0.00  0.00    +0.000 C 
ENDROOT
BRANCH   1   5
ATOM      2  C   UNK A   0       4.501   1.196   0.000  0.00  0.00    +0.000 C 
ATOM      3  C   UNK A   0       5.215   0.784   0.000  0.00  0.00    +0.000 C 
ATOM      4  O   UNK A   0       5.929   1.196   0.000  0.00  0.00    +0.000 OA
ATOM      5  N   CYS A   1       5.215  -0.041   0.000  0.00  0.00    +0.000 NA
ENDBRANCH   1   5
BRANCH   1   6
ATOM      6  C   CYS A   1       6.644  -0.041   0.000  0.00  0.00    +0.000 C 
ATOM      7  O   CYS A   1       6.644   0.784   0.000  0.00  0.00    +0.000 OA
ATOM      8  OXT CYS A   1       7.358  -0.454   0.000  0.00  0.00    +0.000 OA
ENDBRANCH   1   6
BRANCH   1   9
ATOM      9  CB  CYS A   1       5.929  -1.279   0.000  0.00  0.00    +0.000 C 
ATOM     10  SG  CYS A   1       6.644  -1.691   0.000  0.00  0.00    +0.000 S 
ENDBRANCH   1   9
TORSDOF 3
REMARK  Name = 
REMARK  6 active torsions:
REMARK  status: ('A' for Active; 'I' for Inactive)
REMARK    1  A    between atoms: N_4  and  CA_5
REMARK    2  A    between atoms: CA_5  and  CB_6
REMARK    3  A    between atoms: CA_5  and  C_8
REMARK    4  A    between atoms: N_14  and  CA_15
REMARK    5  A    between atoms: CA_15  and  CB_16
REMARK    6  A    between atoms: CA_15  and  C_18
REMARK                            x       y       z     vdW  Elec       q    Type
REMARK                         _______ _______ _______ _____ _____    ______ ____
ROOT
ATOM      1 ZN   UNL     1       2.143   0.338   0.000  0.00  0.00    +0.000 Zn
ENDROOT
TORSDOF 0
