REMARK  Name = 
REMARK  5 active torsions:
REMARK  status: ('A' for Active; 'I' for Inactive)
REMARK    1  A    between atoms: C_1  and  C_2
REMARK    2  A    between atoms: C_1  and  C_7
REMARK    3  A    between atoms: C_2  and  C_3
REMARK    4  A    between atoms: C_3  and  C_4
REMARK    5  A    between atoms: C_7  and  C_8
REMARK                            x       y       z     vdW  Elec       q    Type
REMARK                         _______ _______ _______ _____ _____    ______ ____
ROOT
ATOM      1  C   UNL     1      51.925  51.361   0.000  0.00  0.00    +0.000 C 
ATOM      2  O   UNL     1      51.925  50.535   0.000  0.00  0.00    +0.000 OA
ENDROOT
BRANCH   1   3
ATOM      3  C   UNL     1      51.210  51.773   0.000  0.00  0.00    +0.000 C 
ATOM      4  O   UNL     1      51.210  52.599   0.000  0.00  0.00    +0.000 OA
BRANCH   3   5
ATOM      5  C   UNL     1      50.495  51.361   0.000  0.00  0.00    +0.000 C 
BRANCH   5   6
ATOM      6  C   UNL     1      49.779  51.773   0.000  0.00  0.00    +0.000 C 
ATOM      7  O   UNL     1      49.065  51.361   0.000  0.00  0.00    +0.000 OA
ENDBRANCH   5   6
ENDBRANCH   3   5
ENDBRANCH   1   3
BRANCH   1   8
ATOM      8  C   UNL     1      52.639  51.773   0.000  0.00  0.00    +0.000 C 
ATOM      9  O   UNL     1      52.639  52.599   0.000  0.00  0.00    +0.000 OA
BRANCH   8  10
ATOM     10  C   UNL     1      53.355  51.361   0.000  0.00  0.00    +0.000 C 
ATOM     11  O   UNL     1      54.069  51.773   0.000  0.00  0.00    +0.000 OA
ENDBRANCH   8  10
ENDBRANCH   1   8
TORSDOF 5
