REMARK  Name = 
REMARK  0 active torsions:
REMARK  status: ('A' for Active; 'I' for Inactive)
REMARK                            x       y       z     vdW  Elec       q    Type
REMARK                         _______ _______ _______ _____ _____    ______ ____
ROOT
ATOM      1  C   UNL     1       2.357   1.114   0.000  0.00  0.00    +0.000 A 
ATOM      2  C   UNL     1       1.642   0.702   0.000  0.00  0.00    +0.000 A 
ATOM      3  C   UNL     1       1.712  -0.021   0.000  0.00  0.00    +0.000 A 
ATOM      4  C   UNL     1       2.357  -0.536   0.000  0.00  0.00    +0.000 A 
ATOM      5  C   UNL     1       3.071  -0.123   0.000  0.00  0.00    +0.000 A 
ATOM      6  C   UNL     1       3.071   0.702   0.000  0.00  0.00    +0.000 A 
ATOM      7  C   UNL     1       3.785  -0.536   0.000  0.00  0.00    +0.000 C 
ATOM      8  C   UNL     1       4.570  -0.281   0.000  0.00  0.00    +0.000 C 
ATOM      9  C   UNL     1       5.055  -0.948   0.000  0.00  0.00    +0.000 C 
ATOM     10  C   UNL     1       4.570  -1.615   0.000  0.00  0.00    +0.000 C 
ATOM     11  C   UNL     1       3.785  -1.361   0.000  0.00  0.00    +0.000 C 
ATOM     12  C   UNL     1       3.071  -1.773   0.000  0.00  0.00    +0.000 C 
ATOM     13  N   UNL     1       2.357  -1.361   0.000  0.00  0.00    +0.000 N 
ATOM     14  C   UNL     1       1.712  -1.875   0.000  0.00  0.00    +0.000 C 
ATOM     15  C   UNL     1       0.907  -1.691   0.000  0.00  0.00    +0.000 C 
ATOM     16  N   UNL     1       0.549  -0.948   0.000  0.00  0.00    +0.000 NA
ATOM     17  C   UNL     1       0.907  -0.205   0.000  0.00  0.00    +0.000 C 
ENDROOT
TORSDOF 0
