REMARK  Name = 
REMARK  2 active torsions:
REMARK  status: ('A' for Active; 'I' for Inactive)
REMARK    1  A    between atoms: C_2  and  S_10
REMARK    2  A    between atoms: N_16  and  N_17
REMARK                            x       y       z     vdW  Elec       q    Type
REMARK                         _______ _______ _______ _____ _____    ______ ____
ROOT
ATOM      1  N   UNL     1       1.468   0.766   0.000  0.00  0.00    +0.000 N 
ATOM      2  C   UNL     1       1.953   0.099   0.000  0.00  0.00    +0.000 C 
ATOM      3  C   UNL     1       1.468  -0.568   0.000  0.00  0.00    +0.000 C 
ATOM      4  C   UNL     1       0.684  -0.314   0.000  0.00  0.00    +0.000 C 
ATOM      5  C   UNL     1      -0.031  -0.726   0.000  0.00  0.00    +0.000 C 
ATOM      6  C   UNL     1      -0.745  -0.314   0.000  0.00  0.00    +0.000 C 
ATOM      7  C   UNL     1      -0.745   0.511   0.000  0.00  0.00    +0.000 C 
ATOM      8  C   UNL     1      -0.031   0.924   0.000  0.00  0.00    +0.000 C 
ATOM      9  C   UNL     1       0.684   0.511   0.000  0.00  0.00    +0.000 C 
ATOM     10  O   UNL     1      -1.460   0.924   0.000  0.00  0.00    +0.000 OA
ATOM     11  C   UNL     1       1.723   1.551   0.000  0.00  0.00    +0.000 C 
ATOM     12  N   UNL     1      -1.460  -0.726   0.000  0.00  0.00    +0.000 NA
ENDROOT
BRANCH   2  13
ATOM     13  S   UNL     1       2.778   0.099   0.000  0.00  0.00    +0.000 S 
ATOM     14  O   UNL     1       2.778  -0.726   0.000  0.00  0.00    +0.000 OA
ATOM     15  O   UNL     1       2.778   0.924   0.000  0.00  0.00    +0.000 OA
ATOM     16  O   UNL     1       3.603   0.099   0.000  0.00  0.00    +0.000 OA
ENDBRANCH   2  13
BRANCH  12  17
ATOM     17  N   UNL     1      -2.174  -0.314   0.000  0.00  0.00    +0.000 NA
ATOM     18  C   UNL     1      -2.889  -0.726   0.000  0.00  0.00    +0.000 C 
ATOM     19  O   UNL     1      -2.889  -1.551   0.000  0.00  0.00    +0.000 OA
ATOM     20  N   UNL     1      -3.603  -0.314   0.000  0.00  0.00    +0.000 NA
ENDBRANCH  12  17
TORSDOF 2
