REMARK  Name = 
REMARK  3 active torsions:
REMARK  status: ('A' for Active; 'I' for Inactive)
REMARK    1  A    between atoms: C_9  and  N_11
REMARK    2  A    between atoms: C_12  and  C_14
REMARK    3  A    between atoms: C_18  and  C_19
REMARK                            x       y       z     vdW  Elec       q    Type
REMARK                         _______ _______ _______ _____ _____    ______ ____
ROOT
ATOM      1  C   UNL     1      -2.361   1.593   0.000  0.00  0.00    +0.000 A 
ATOM      2  C   UNL     1      -2.533   0.786   0.000  0.00  0.00    +0.000 A 
ATOM      3  C   UNL     1      -3.287   0.451   0.000  0.00  0.00    +0.000 C 
ATOM      4  N   UNL     1      -1.819   0.374   0.000  0.00  0.00    +0.000 NA
ATOM      5  C   UNL     1      -1.205   0.926   0.000  0.00  0.00    +0.000 A 
ATOM      6  C   UNL     1      -1.541   1.679   0.000  0.00  0.00    +0.000 A 
ATOM      7  C   UNL     1      -1.129   2.394   0.000  0.00  0.00    +0.000 C 
ENDROOT
BRANCH   5   8
ATOM      8  C   UNL     1      -0.398   0.754   0.000  0.00  0.00    +0.000 C 
ATOM      9  C   UNL     1      -0.143  -0.030   0.000  0.00  0.00    +0.000 C 
ATOM     10  C   UNL     1      -0.628  -0.698   0.000  0.00  0.00    +0.000 C 
ATOM     11  O   UNL     1      -1.453  -0.698   0.000  0.00  0.00    +0.000 OA
ATOM     12  N   UNL     1      -0.143  -1.365   0.000  0.00  0.00    +0.000 NA
ATOM     13  C   UNL     1       0.641  -1.110   0.000  0.00  0.00    +0.000 A 
ATOM     14  C   UNL     1       0.641  -0.285   0.000  0.00  0.00    +0.000 A 
ATOM     15  C   UNL     1       1.356   0.127   0.000  0.00  0.00    +0.000 A 
ATOM     16  C   UNL     1       2.070  -0.285   0.000  0.00  0.00    +0.000 A 
ATOM     17  F   UNL     1       2.784   0.127   0.000  0.00  0.00    +0.000 F 
ATOM     18  C   UNL     1       2.070  -1.110   0.000  0.00  0.00    +0.000 A 
ATOM     19  C   UNL     1       1.356  -1.523   0.000  0.00  0.00    +0.000 A 
ENDBRANCH   5   8
BRANCH   1  21
ATOM     20  N   UNL     1      -2.659   2.991   0.000  0.00  0.00    +0.000 NA
ATOM     21  C   UNL     1      -2.913   2.206   0.000  0.00  0.00    +0.000 C 
ATOM     22  O   UNL     1      -3.720   2.035   0.000  0.00  0.00    +0.000 OA
BRANCH  20  31
ATOM     23  C   UNL     1      -6.236   5.399   0.000  0.00  0.00    +0.000 C 
ATOM     24  N   UNL     1      -5.428   5.228   0.000  0.00  0.00    +0.000 N 
ATOM     25  C   UNL     1      -4.877   5.841   0.000  0.00  0.00    +0.000 C 
ATOM     26  C   UNL     1      -5.174   4.443   0.000  0.00  0.00    +0.000 C 
ATOM     27  O   UNL     1      -5.726   3.830   0.000  0.00  0.00    +0.000 OA
ATOM     28  N   UNL     1      -4.367   4.271   0.000  0.00  0.00    +0.000 N 
ATOM     29  C   UNL     1      -3.753   4.823   0.000  0.00  0.00    +0.000 C 
ATOM     30  C   UNL     1      -3.039   4.411   0.000  0.00  0.00    +0.000 C 
ATOM     31  C   UNL     1      -3.211   3.604   0.000  0.00  0.00    +0.000 C 
ATOM     32  C   UNL     1      -4.031   3.518   0.000  0.00  0.00    +0.000 C 
ENDBRANCH  20  31
ENDBRANCH   1  21
TORSDOF 3
