REMARK  Name = 
REMARK  7 active torsions:
REMARK  status: ('A' for Active; 'I' for Inactive)
REMARK    1  A    between atoms: O_1  and  S_2
REMARK    2  A    between atoms: O_1  and  C_8
REMARK    3  A    between atoms: C_19  and  C_35
REMARK    4  A    between atoms: C_30  and  C_31
REMARK    5  A    between atoms: C_30  and  C_34
REMARK    6  A    between atoms: C_31  and  C_32
REMARK    7  A    between atoms: C_34  and  C_35
REMARK                            x       y       z     vdW  Elec       q    Type
REMARK                         _______ _______ _______ _____ _____    ______ ____
ROOT
ATOM      1  C   UNL     1      -2.159  -0.329   0.000  0.00  0.00    +0.000 C 
ATOM      2  C   UNL     1      -2.881  -0.726   0.000  0.00  0.00    +0.000 C 
ATOM      3  C   UNL     1      -2.881  -1.565   0.000  0.00  0.00    +0.000 C 
ATOM      4  C   UNL     1      -2.159  -1.977   0.000  0.00  0.00    +0.000 C 
ATOM      5  C   UNL     1      -1.459  -1.565   0.000  0.00  0.00    +0.000 C 
ATOM      6  C   UNL     1      -0.744  -1.977   0.000  0.00  0.00    +0.000 C 
ATOM      7  C   UNL     1      -1.459  -0.726   0.000  0.00  0.00    +0.000 C 
ATOM      8  C   UNL     1      -0.744   0.479   0.000  0.00  0.00    +0.000 C 
ATOM      9  C   UNL     1      -0.013   0.899   0.000  0.00  0.00    +0.000 C 
ATOM     10  C   UNL     1       0.686   0.479   0.000  0.00  0.00    +0.000 C 
ATOM     11  C   UNL     1       0.686  -0.329   0.000  0.00  0.00    +0.000 C 
ATOM     12  C   UNL     1       1.471  -0.586   0.000  0.00  0.00    +0.000 C 
ATOM     13  C   UNL     1       1.937   0.067   0.000  0.00  0.00    +0.000 C 
ATOM     14  C   UNL     1       1.471   0.736   0.000  0.00  0.00    +0.000 C 
ATOM     15  C   UNL     1       0.686   1.327   0.000  0.00  0.00    +0.000 C 
ATOM     16  C   UNL     1      -1.459   0.083   0.000  0.00  0.00    +0.000 C 
ATOM     17  C   UNL     1      -0.744  -0.329   0.000  0.00  0.00    +0.000 C 
ATOM     18  C   UNL     1      -0.013  -0.726   0.000  0.00  0.00    +0.000 C 
ATOM     19  C   UNL     1      -0.013  -1.565   0.000  0.00  0.00    +0.000 C 
ENDROOT
BRANCH  14  21
ATOM     20  C   UNL     1       0.757   1.996   0.000  0.00  0.00    +0.000 C 
ATOM     21  C   UNL     1       1.471   1.583   0.000  0.00  0.00    +0.000 C 
BRANCH  21  22
ATOM     22  C   UNL     1       2.186   1.996   0.000  0.00  0.00    +0.000 C 
BRANCH  22  23
ATOM     23  C   UNL     1       2.900   1.583   0.000  0.00  0.00    +0.000 C 
BRANCH  23  24
ATOM     24  C   UNL     1       3.614   1.996   0.000  0.00  0.00    +0.000 C 
BRANCH  24  25
ATOM     25  C   UNL     1       4.329   1.583   0.000  0.00  0.00    +0.000 C 
ATOM     26  C   UNL     1       4.329   0.758   0.000  0.00  0.00    +0.000 C 
ATOM     27  C   UNL     1       5.043   1.996   0.000  0.00  0.00    +0.000 C 
ENDBRANCH  24  25
ENDBRANCH  23  24
ENDBRANCH  22  23
ENDBRANCH  21  22
ENDBRANCH  14  21
BRANCH   3  28
ATOM     28  O   UNL     1      -3.615  -1.996   0.000  0.00  0.00    +0.000 OA
BRANCH  28  29
ATOM     29  S   UNL     1      -4.329  -1.583   0.000  0.00  0.00    +0.000 S 
ATOM     30  O   UNL     1      -5.043  -1.996   0.000  0.00  0.00    +0.000 OA
ATOM     31  O   UNL     1      -3.917  -0.869   0.000  0.00  0.00    +0.000 OA
ATOM     32  O   UNL     1      -4.742  -0.869   0.000  0.00  0.00    +0.000 OA
ENDBRANCH  28  29
ENDBRANCH   3  28
TORSDOF 7
