REMARK  Name = 
REMARK  4 active torsions:
REMARK  status: ('A' for Active; 'I' for Inactive)
REMARK    1  A    between atoms: C_3  and  N_17
REMARK    2  A    between atoms: C_5  and  C_6
REMARK    3  A    between atoms: N_7  and  N_8
REMARK    4  A    between atoms: N_12  and  C_15
REMARK                            x       y       z     vdW  Elec       q    Type
REMARK                         _______ _______ _______ _____ _____    ______ ____
ROOT
ATOM      1  C   UNL     1       0.959  -1.578   0.000  0.00  0.00    +0.000 C 
ATOM      2  N   UNL     1       1.674  -1.165   0.000  0.00  0.00    +0.000 NA
ENDROOT
BRANCH   2   3
ATOM      3  N   UNL     1       1.674  -0.340   0.000  0.00  0.00    +0.000 N 
ATOM      4  C   UNL     1       1.006   0.144   0.000  0.00  0.00    +0.000 C 
ATOM      5  C   UNL     1       1.261   0.929   0.000  0.00  0.00    +0.000 C 
ATOM      6  O   UNL     1       0.776   1.597   0.000  0.00  0.00    +0.000 OA
ATOM      7  N   UNL     1       2.086   0.929   0.000  0.00  0.00    +0.000 N 
ATOM      8  C   UNL     1       2.341   0.144   0.000  0.00  0.00    +0.000 C 
ATOM      9  O   UNL     1       3.126  -0.110   0.000  0.00  0.00    +0.000 OA
BRANCH   7  10
ATOM     10  C   UNL     1       2.571   1.597   0.000  0.00  0.00    +0.000 C 
ATOM     11  O   UNL     1       2.236   2.350   0.000  0.00  0.00    +0.000 OA
ENDBRANCH   7  10
ENDBRANCH   2   3
BRANCH   1  16
ATOM     12  C   UNL     1       1.627  -2.888   0.000  0.00  0.00    +0.000 A 
ATOM     13  C   UNL     1       1.372  -3.672   0.000  0.00  0.00    +0.000 A 
ATOM     14  C   UNL     1       0.547  -3.672   0.000  0.00  0.00    +0.000 A 
ATOM     15  O   UNL     1       0.292  -2.888   0.000  0.00  0.00    +0.000 OA
ATOM     16  C   UNL     1       0.959  -2.403   0.000  0.00  0.00    +0.000 A 
BRANCH  14  17
ATOM     17  N   UNL     1       0.062  -4.340   0.000  0.00  0.00    +0.000 N 
ATOM     18  O   UNL     1       0.398  -5.094   0.000  0.00  0.00    +0.000 OA
ATOM     19  O   UNL     1      -0.759  -4.254   0.000  0.00  0.00    +0.000 OA
ENDBRANCH  14  17
ENDBRANCH   1  16
TORSDOF 4
