REMARK  Name = 
REMARK  4 active torsions:
REMARK  status: ('A' for Active; 'I' for Inactive)
REMARK    1  A    between atoms: N_5  and  C_15
REMARK    2  A    between atoms: C_18  and  C_22
REMARK    3  A    between atoms: C_27  and  C_30
REMARK    4  A    between atoms: C_36  and  C_40
REMARK                            x       y       z     vdW  Elec       q    Type
REMARK                         _______ _______ _______ _____ _____    ______ ____
ROOT
ATOM      1  C   UNL     1       0.420  -4.940   0.000  0.00  0.00    +0.000 A 
ATOM      2  C   UNL     1       0.165  -4.155   0.000  0.00  0.00    +0.000 A 
ATOM      3  C   UNL     1      -0.642  -3.984   0.000  0.00  0.00    +0.000 C 
ATOM      4  C   UNL     1       0.717  -3.542   0.000  0.00  0.00    +0.000 A 
ATOM      5  C   UNL     1       1.524  -3.714   0.000  0.00  0.00    +0.000 A 
ATOM      6  C   UNL     1       1.779  -4.498   0.000  0.00  0.00    +0.000 A 
ATOM      7  C   UNL     1       1.227  -5.112   0.000  0.00  0.00    +0.000 A 
ENDROOT
BRANCH   1  12
ATOM      8  C   UNL     1      -0.174  -7.736   0.000  0.00  0.00    +0.000 C 
ATOM      9  N   UNL     1      -0.429  -6.951   0.000  0.00  0.00    +0.000 N 
ATOM     10  C   UNL     1       0.123  -6.338   0.000  0.00  0.00    +0.000 A 
ATOM     11  O   UNL     1       0.930  -6.509   0.000  0.00  0.00    +0.000 OA
ATOM     12  N   UNL     1      -0.132  -5.553   0.000  0.00  0.00    +0.000 N 
ATOM     13  C   UNL     1      -0.939  -5.382   0.000  0.00  0.00    +0.000 A 
ATOM     14  O   UNL     1      -1.194  -4.597   0.000  0.00  0.00    +0.000 OA
ATOM     15  C   UNL     1      -1.491  -5.995   0.000  0.00  0.00    +0.000 A 
ATOM     16  C   UNL     1      -1.236  -6.779   0.000  0.00  0.00    +0.000 A 
ATOM     17  C   UNL     1      -1.788  -7.393   0.000  0.00  0.00    +0.000 A 
ATOM     18  F   UNL     1      -1.533  -8.177   0.000  0.00  0.00    +0.000 F 
ATOM     19  C   UNL     1      -2.595  -7.221   0.000  0.00  0.00    +0.000 A 
ATOM     20  C   UNL     1      -2.850  -6.436   0.000  0.00  0.00    +0.000 A 
ATOM     21  C   UNL     1      -2.298  -5.823   0.000  0.00  0.00    +0.000 A 
ENDBRANCH   1  12
BRANCH   4  22
ATOM     22  C   UNL     1       0.462  -2.758   0.000  0.00  0.00    +0.000 A 
ATOM     23  C   UNL     1       1.014  -2.145   0.000  0.00  0.00    +0.000 A 
ATOM     24  C   UNL     1       1.839  -2.145   0.000  0.00  0.00    +0.000 A 
ATOM     25  C   UNL     1       2.094  -1.360   0.000  0.00  0.00    +0.000 A 
ATOM     26  C   UNL     1       2.901  -1.188   0.000  0.00  0.00    +0.000 C 
ATOM     27  C   UNL     1       3.453  -1.802   0.000  0.00  0.00    +0.000 C 
ATOM     28  C   UNL     1       3.198  -2.586   0.000  0.00  0.00    +0.000 C 
ATOM     29  C   UNL     1       2.391  -2.758   0.000  0.00  0.00    +0.000 C 
ATOM     30  N   UNL     1       1.427  -0.875   0.000  0.00  0.00    +0.000 NA
ATOM     31  C   UNL     1       0.759  -1.360   0.000  0.00  0.00    +0.000 A 
ATOM     32  C   UNL     1      -0.048  -1.188   0.000  0.00  0.00    +0.000 A 
ATOM     33  C   UNL     1      -0.600  -1.802   0.000  0.00  0.00    +0.000 A 
ATOM     34  C   UNL     1      -0.345  -2.586   0.000  0.00  0.00    +0.000 A 
ATOM     35  F   UNL     1      -0.897  -3.199   0.000  0.00  0.00    +0.000 F 
BRANCH  27  36
ATOM     36  C   UNL     1       4.260  -1.630   0.000  0.00  0.00    +0.000 C 
ATOM     37  C   UNL     1       5.067  -1.459   0.000  0.00  0.00    +0.000 C 
ATOM     38  C   UNL     1       4.432  -2.437   0.000  0.00  0.00    +0.000 C 
ATOM     39  O   UNL     1       4.089  -0.823   0.000  0.00  0.00    +0.000 OA
ENDBRANCH  27  36
BRANCH  32  40
ATOM     40  C   UNL     1      -0.302  -0.404   0.000  0.00  0.00    +0.000 C 
ATOM     41  N   UNL     1      -1.109  -0.232   0.000  0.00  0.00    +0.000 NA
ATOM     42  O   UNL     1       0.249   0.209   0.000  0.00  0.00    +0.000 OA
ENDBRANCH  32  40
ENDBRANCH   4  22
TORSDOF 4
