REMARK  Name = 
REMARK  15 active torsions:
REMARK  status: ('A' for Active; 'I' for Inactive)
REMARK    1  A    between atoms: O_3  and  C_30
REMARK    2  A    between atoms: O_3  and  C_31
REMARK    3  A    between atoms: O_5  and  C_32
REMARK    4  A    between atoms: O_5  and  C_39
REMARK    5  A    between atoms: N_9  and  C_16
REMARK    6  A    between atoms: N_10  and  C_19
REMARK    7  A    between atoms: N_11  and  C_21
REMARK    8  A    between atoms: C_12  and  C_14
REMARK    9  A    between atoms: C_14  and  C_16
REMARK   10  A    between atoms: C_16  and  C_18
REMARK   11  A    between atoms: C_19  and  C_20
REMARK   12  A    between atoms: C_19  and  C_24
REMARK   13  A    between atoms: C_21  and  C_22
REMARK   14  A    between atoms: C_21  and  C_23
REMARK   15  A    between atoms: C_25  and  C_32
REMARK                            x       y       z     vdW  Elec       q    Type
REMARK                         _______ _______ _______ _____ _____    ______ ____
ROOT
ATOM      1  C   UNL     1      -0.522  -1.444   0.000  0.00  0.00    +0.000 C 
ENDROOT
BRANCH   1   2
ATOM      2  C   UNL     1      -0.522  -2.269   0.000  0.00  0.00    +0.000 A 
ATOM      3  C   UNL     1       0.193  -2.681   0.000  0.00  0.00    +0.000 A 
ATOM      4  C   UNL     1      -1.236  -2.681   0.000  0.00  0.00    +0.000 A 
ATOM      5  C   UNL     1       0.193  -3.506   0.000  0.00  0.00    +0.000 A 
ATOM      6  C   UNL     1      -1.236  -3.506   0.000  0.00  0.00    +0.000 A 
ATOM      7  C   UNL     1      -0.522  -3.919   0.000  0.00  0.00    +0.000 A 
ENDBRANCH   1   2
BRANCH   1   9
ATOM      8  O   UNL     1       0.907  -2.269   0.000  0.00  0.00    +0.000 OA
ATOM      9  N   UNL     1       0.193  -1.031   0.000  0.00  0.00    +0.000 N 
ATOM     10  C   UNL     1       0.907  -1.444   0.000  0.00  0.00    +0.000 C 
ATOM     11  H   UNL     1       0.193  -0.520   0.000  0.00  0.00    +0.000 HD
BRANCH  10  12
ATOM     12  C   UNL     1       1.622  -1.031   0.000  0.00  0.00    +0.000 C 
BRANCH  12  14
ATOM     13  O   UNL     1       3.051  -0.206   0.000  0.00  0.00    +0.000 OA
ATOM     14  N   UNL     1       2.336  -1.444   0.000  0.00  0.00    +0.000 N 
ATOM     15  C   UNL     1       3.051  -1.031   0.000  0.00  0.00    +0.000 C 
ATOM     16  H   UNL     1       2.336  -1.955   0.000  0.00  0.00    +0.000 HD
BRANCH  15  17
ATOM     17  O   UNL     1       3.765  -1.444   0.000  0.00  0.00    +0.000 OA
BRANCH  17  18
ATOM     18  C   UNL     1       4.480  -1.031   0.000  0.00  0.00    +0.000 C 
ATOM     19  C   UNL     1       4.067  -0.317   0.000  0.00  0.00    +0.000 C 
ATOM     20  C   UNL     1       4.892  -1.746   0.000  0.00  0.00    +0.000 C 
ATOM     21  C   UNL     1       5.194  -0.619   0.000  0.00  0.00    +0.000 C 
ENDBRANCH  17  18
ENDBRANCH  15  17
ENDBRANCH  12  14
BRANCH  12  22
ATOM     22  C   UNL     1       1.622  -0.206   0.000  0.00  0.00    +0.000 C 
ATOM     23  C   UNL     1       0.907   0.206   0.000  0.00  0.00    +0.000 C 
ATOM     24  C   UNL     1       2.336   0.206   0.000  0.00  0.00    +0.000 C 
ENDBRANCH  12  22
ENDBRANCH  10  12
ENDBRANCH   1   9
BRANCH   1  27
ATOM     25  O   UNL     1      -1.951  -1.444   0.000  0.00  0.00    +0.000 OA
ATOM     26  N   UNL     1      -1.236  -0.206   0.000  0.00  0.00    +0.000 N 
ATOM     27  C   UNL     1      -1.236  -1.031   0.000  0.00  0.00    +0.000 C 
ATOM     28  H   UNL     1      -0.793   0.049   0.000  0.00  0.00    +0.000 HD
BRANCH  26  29
ATOM     29  C   UNL     1      -1.951   0.206   0.000  0.00  0.00    +0.000 C 
BRANCH  29  30
ATOM     30  C   UNL     1      -1.951   1.031   0.000  0.00  0.00    +0.000 C 
ATOM     31  C   UNL     1      -1.236   1.444   0.000  0.00  0.00    +0.000 C 
BRANCH  31  33
ATOM     32  O   UNL     1      -0.522   2.681   0.000  0.00  0.00    +0.000 OA
ATOM     33  C   UNL     1      -1.236   2.269   0.000  0.00  0.00    +0.000 C 
BRANCH  33  34
ATOM     34  O   UNL     1      -1.951   2.681   0.000  0.00  0.00    +0.000 OA
BRANCH  34  35
ATOM     35  C   UNL     1      -1.951   3.506   0.000  0.00  0.00    +0.000 C 
ATOM     36  C   UNL     1      -2.665   3.919   0.000  0.00  0.00    +0.000 C 
ENDBRANCH  34  35
ENDBRANCH  33  34
ENDBRANCH  31  33
ENDBRANCH  29  30
BRANCH  29  37
ATOM     37  C   UNL     1      -2.665  -0.206   0.000  0.00  0.00    +0.000 C 
BRANCH  37  40
ATOM     38  O   UNL     1      -4.305  -0.936   0.000  0.00  0.00    +0.000 OA
ATOM     39  N   UNL     1      -4.685   0.484   0.000  0.00  0.00    +0.000 N 
ATOM     40  C   UNL     1      -3.380   0.206   0.000  0.00  0.00    +0.000 C 
ATOM     41  C   UNL     1      -3.466   1.027   0.000  0.00  0.00    +0.000 C 
ATOM     42  C   UNL     1      -4.273   1.198   0.000  0.00  0.00    +0.000 C 
ATOM     43  C   UNL     1      -4.133  -0.129   0.000  0.00  0.00    +0.000 C 
ATOM     44  H   UNL     1      -5.194   0.430   0.000  0.00  0.00    +0.000 HD
ENDBRANCH  37  40
ENDBRANCH  29  37
ENDBRANCH  26  29
ENDBRANCH   1  27
TORSDOF 15
