REMARK  Name = 
REMARK  3 active torsions:
REMARK  status: ('A' for Active; 'I' for Inactive)
REMARK    1  A    between atoms: C_3  and  C_9
REMARK    2  A    between atoms: C_6  and  C_8
REMARK    3  A    between atoms: C_8  and  C_9
REMARK                            x       y       z     vdW  Elec       q    Type
REMARK                         _______ _______ _______ _____ _____    ______ ____
ROOT
ATOM      1  C   UNL     1       9.785  -4.259   0.000  0.00  0.00    +0.000 A 
ATOM      2  C   UNL     1       9.785  -5.084   0.000  0.00  0.00    +0.000 A 
ATOM      3  C   UNL     1      11.213  -4.259   0.000  0.00  0.00    +0.000 A 
ATOM      4  C   UNL     1      11.213  -5.084   0.000  0.00  0.00    +0.000 A 
ATOM      5  C   UNL     1      10.499  -3.847   0.000  0.00  0.00    +0.000 A 
ATOM      6  O   UNL     1       9.070  -5.497   0.000  0.00  0.00    +0.000 OA
ATOM      7  C   UNL     1      10.499  -5.497   0.000  0.00  0.00    +0.000 A 
ATOM      8  O   UNL     1      10.499  -6.322   0.000  0.00  0.00    +0.000 OA
ENDROOT
BRANCH   3   9
ATOM      9  C   UNL     1      11.928  -3.847   0.000  0.00  0.00    +0.000 C 
BRANCH   9  10
ATOM     10  C   UNL     1      12.642  -4.259   0.000  0.00  0.00    +0.000 C 
ATOM     11  C   UNL     1      12.230  -4.974   0.000  0.00  0.00    +0.000 C 
ATOM     12  N   UNL     1      13.055  -4.974   0.000  0.00  0.00    +0.000 NA
BRANCH  10  13
ATOM     13  C   UNL     1      13.357  -3.847   0.000  0.00  0.00    +0.000 C 
ATOM     14  O   UNL     1      13.357  -3.022   0.000  0.00  0.00    +0.000 OA
ATOM     15  O   UNL     1      14.071  -4.259   0.000  0.00  0.00    +0.000 OA
ENDBRANCH  10  13
ENDBRANCH   9  10
ENDBRANCH   3   9
TORSDOF 3
