REMARK  Name = 
REMARK  6 active torsions:
REMARK  status: ('A' for Active; 'I' for Inactive)
REMARK    1  A    between atoms: C_1  and  CA_3
REMARK    2  A    between atoms: N_2  and  CA_3
REMARK    3  A    between atoms: CA_3  and  CB_9
REMARK    4  A    between atoms: C_4  and  CA_14
REMARK    5  A    between atoms: CD_5  and  CG_10
REMARK    6  A    between atoms: CB_9  and  CG_10
REMARK                            x       y       z     vdW  Elec       q    Type
REMARK                         _______ _______ _______ _____ _____    ______ ____
ROOT
ATOM      1  CA  GLN A   2       0.357   0.411   0.000  0.00  0.00    +0.000 C 
ENDROOT
BRANCH   1   2
ATOM      2  C   GLN A   2       1.071   0.825   0.000  0.00  0.00    +0.000 C 
ATOM      3  O   GLN A   2       1.071   1.651   0.000  0.00  0.00    +0.000 OA
ATOM      4  OXT GLN A   2       1.785   0.415   0.000  0.00  0.00    +0.000 OA
ENDBRANCH   1   2
BRANCH   1   5
ATOM      5  N   GLN A   2       0.361  -0.415   0.000  0.00  0.00    +0.000 NA
ATOM      6  C   GLY A   1       1.071  -0.825   0.000  0.00  0.00    +0.000 C 
ATOM      7  O   GLY A   1       1.075  -1.651   0.000  0.00  0.00    +0.000 OA
BRANCH   6   9
ATOM      8  N   GLY A   1       2.499  -0.816   0.000  0.00  0.00    +0.000 NA
ATOM      9  CA  GLY A   1       1.789  -0.407   0.000  0.00  0.00    +0.000 C 
ENDBRANCH   6   9
ENDBRANCH   1   5
BRANCH   1  10
ATOM     10  CB  GLN A   2      -0.357   0.825   0.000  0.00  0.00    +0.000 C 
BRANCH  10  11
ATOM     11  CG  GLN A   2      -1.071   0.411   0.000  0.00  0.00    +0.000 C 
BRANCH  11  12
ATOM     12  CD  GLN A   2      -1.785   0.816   0.000  0.00  0.00    +0.000 C 
ATOM     13  OE1 GLN A   2      -1.785   1.643   0.000  0.00  0.00    +0.000 OA
ATOM     14  NE2 GLN A   2      -2.499   0.403   0.000  0.00  0.00    +0.000 NA
ENDBRANCH  11  12
ENDBRANCH  10  11
ENDBRANCH   1  10
TORSDOF 6
