REMARK  Name = 
REMARK  7 active torsions:
REMARK  status: ('A' for Active; 'I' for Inactive)
REMARK    1  A    between atoms: C_1  and  C_2
REMARK    2  A    between atoms: C_1  and  C_5
REMARK    3  A    between atoms: C_5  and  C_6
REMARK    4  A    between atoms: C_5  and  C_10
REMARK    5  A    between atoms: C_6  and  C_7
REMARK    6  A    between atoms: CA_14  and  C_15
REMARK    7  A    between atoms: CA_20  and  C_21
REMARK                            x       y       z     vdW  Elec       q    Type
REMARK                         _______ _______ _______ _____ _____    ______ ____
ROOT
ATOM      1  C   UNL     1       0.249   0.000   0.000  0.00  0.00    +0.000 C 
ATOM      2  O   UNL     1      -0.576   0.000   0.000  0.00  0.00    +0.000 OA
ENDROOT
BRANCH   1   3
ATOM      3  C   UNL     1       1.074   0.000   0.000  0.00  0.00    +0.000 C 
ATOM      4  O   UNL     1       1.487   0.714   0.000  0.00  0.00    +0.000 OA
ATOM      5  O   UNL     1       1.487  -0.714   0.000  0.00  0.00    +0.000 OA
ENDBRANCH   1   3
BRANCH   1   6
ATOM      6  C   UNL     1       0.249  -0.825   0.000  0.00  0.00    +0.000 C 
BRANCH   6   7
ATOM      7  C   UNL     1      -0.465  -1.238   0.000  0.00  0.00    +0.000 C 
ATOM      8  O   UNL     1      -0.465  -2.062   0.000  0.00  0.00    +0.000 OA
ATOM      9  O   UNL     1      -1.180  -0.825   0.000  0.00  0.00    +0.000 OA
ENDBRANCH   6   7
ENDBRANCH   1   6
BRANCH   1  10
ATOM     10  C   UNL     1       0.249   0.825   0.000  0.00  0.00    +0.000 C 
BRANCH  10  11
ATOM     11  C   UNL     1      -0.465   1.238   0.000  0.00  0.00    +0.000 C 
ATOM     12  O   UNL     1      -0.465   2.062   0.000  0.00  0.00    +0.000 OA
ATOM     13  O   UNL     1      -1.180   0.825   0.000  0.00  0.00    +0.000 OA
ENDBRANCH  10  11
ENDBRANCH   1  10
TORSDOF 5
REMARK  Name = 
REMARK  7 active torsions:
REMARK  status: ('A' for Active; 'I' for Inactive)
REMARK    1  A    between atoms: C_1  and  C_2
REMARK    2  A    between atoms: C_1  and  C_5
REMARK    3  A    between atoms: C_5  and  C_6
REMARK    4  A    between atoms: C_5  and  C_10
REMARK    5  A    between atoms: C_6  and  C_7
REMARK    6  A    between atoms: CA_14  and  C_15
REMARK    7  A    between atoms: CA_20  and  C_21
REMARK                            x       y       z     vdW  Elec       q    Type
REMARK                         _______ _______ _______ _____ _____    ______ ____
ROOT
ATOM      1  C   GLY A   1       5.567   1.190   0.000  0.00  0.00    +0.000 C 
ATOM      2  O   GLY A   1       5.980   1.905   0.000  0.00  0.00    +0.000 OA
ATOM      3  OXT GLY A   1       4.742   1.190   0.000  0.00  0.00    +0.000 OA
ENDROOT
BRANCH   1   4
ATOM      4  CA  GLY A   1       5.980   0.476   0.000  0.00  0.00    +0.000 C 
ATOM      5  N   GLY A   1       6.805   0.476   0.000  0.00  0.00    +0.000 NA
ENDBRANCH   1   4
TORSDOF 1
REMARK  Name = 
REMARK  7 active torsions:
REMARK  status: ('A' for Active; 'I' for Inactive)
REMARK    1  A    between atoms: C_1  and  C_2
REMARK    2  A    between atoms: C_1  and  C_5
REMARK    3  A    between atoms: C_5  and  C_6
REMARK    4  A    between atoms: C_5  and  C_10
REMARK    5  A    between atoms: C_6  and  C_7
REMARK    6  A    between atoms: CA_14  and  C_15
REMARK    7  A    between atoms: CA_20  and  C_21
REMARK                            x       y       z     vdW  Elec       q    Type
REMARK                         _______ _______ _______ _____ _____    ______ ____
ROOT
ATOM      1 ZN   UNL     1       3.270   0.119   0.000  0.00  0.00    +0.000 Zn
ENDROOT
TORSDOF 0
REMARK  Name = 
REMARK  7 active torsions:
REMARK  status: ('A' for Active; 'I' for Inactive)
REMARK    1  A    between atoms: C_1  and  C_2
REMARK    2  A    between atoms: C_1  and  C_5
REMARK    3  A    between atoms: C_5  and  C_6
REMARK    4  A    between atoms: C_5  and  C_10
REMARK    5  A    between atoms: C_6  and  C_7
REMARK    6  A    between atoms: CA_14  and  C_15
REMARK    7  A    between atoms: CA_20  and  C_21
REMARK                            x       y       z     vdW  Elec       q    Type
REMARK                         _______ _______ _______ _____ _____    ______ ____
ROOT
ATOM      1  C   GLY A   1       5.522  -1.198   0.000  0.00  0.00    +0.000 C 
ATOM      2  O   GLY A   1       5.935  -0.483   0.000  0.00  0.00    +0.000 OA
ATOM      3  OXT GLY A   1       4.697  -1.198   0.000  0.00  0.00    +0.000 OA
ENDROOT
BRANCH   1   4
ATOM      4  CA  GLY A   1       5.935  -1.912   0.000  0.00  0.00    +0.000 C 
ATOM      5  N   GLY A   1       6.760  -1.912   0.000  0.00  0.00    +0.000 NA
ENDBRANCH   1   4
TORSDOF 1
