REMARK  Name = 
REMARK  2 active torsions:
REMARK  status: ('A' for Active; 'I' for Inactive)
REMARK    1  A    between atoms: C_11  and  N_23
REMARK    2  A    between atoms: C_13  and  C_16
REMARK                            x       y       z     vdW  Elec       q    Type
REMARK                         _______ _______ _______ _____ _____    ______ ____
ROOT
ATOM      1  C   UNL     1       4.108  -0.809   0.000  0.00  0.00    +0.000 C 
ATOM      2  C   UNL     1       3.408  -0.372   0.000  0.00  0.00    +0.000 C 
ATOM      3  C   UNL     1       3.099  -1.137   0.000  0.00  0.00    +0.000 C 
ATOM      4  O   UNL     1       3.960   0.241   0.000  0.00  0.00    +0.000 OA
ATOM      5  C   UNL     1       3.705   1.026   0.000  0.00  0.00    +0.000 C 
ATOM      6  C   UNL     1       2.898   1.197   0.000  0.00  0.00    +0.000 C 
ATOM      7  N   UNL     1       2.346   0.584   0.000  0.00  0.00    +0.000 N 
ATOM      8  C   UNL     1       2.601  -0.201   0.000  0.00  0.00    +0.000 A 
ATOM      9  N   UNL     1       1.934  -0.685   0.000  0.00  0.00    +0.000 NA
ATOM     10  C   UNL     1       1.266  -0.201   0.000  0.00  0.00    +0.000 A 
ATOM     11  C   UNL     1       0.460  -0.372   0.000  0.00  0.00    +0.000 A 
ATOM     12  N   UNL     1      -0.092   0.241   0.000  0.00  0.00    +0.000 NA
ATOM     13  C   UNL     1       0.162   1.026   0.000  0.00  0.00    +0.000 A 
ATOM     14  N   UNL     1       0.969   1.197   0.000  0.00  0.00    +0.000 NA
ATOM     15  C   UNL     1       1.521   0.584   0.000  0.00  0.00    +0.000 A 
ENDROOT
BRANCH  13  16
ATOM     16  C   UNL     1      -0.390   1.639   0.000  0.00  0.00    +0.000 A 
ATOM     17  C   UNL     1      -1.197   1.467   0.000  0.00  0.00    +0.000 A 
ATOM     18  N   UNL     1      -1.749   2.080   0.000  0.00  0.00    +0.000 NA
ATOM     19  C   UNL     1      -1.494   2.865   0.000  0.00  0.00    +0.000 A 
ATOM     20  N   UNL     1      -2.046   3.478   0.000  0.00  0.00    +0.000 NA
ATOM     21  N   UNL     1      -0.687   3.036   0.000  0.00  0.00    +0.000 NA
ATOM     22  C   UNL     1      -0.135   2.423   0.000  0.00  0.00    +0.000 A 
ENDBRANCH  13  16
BRANCH  11  23
ATOM     23  N   UNL     1       0.205  -1.157   0.000  0.00  0.00    +0.000 N 
ATOM     24  C   UNL     1       0.757  -1.770   0.000  0.00  0.00    +0.000 C 
ATOM     25  C   UNL     1       0.502  -2.554   0.000  0.00  0.00    +0.000 C 
ATOM     26  O   UNL     1      -0.305  -2.726   0.000  0.00  0.00    +0.000 OA
ATOM     27  C   UNL     1      -0.857  -2.113   0.000  0.00  0.00    +0.000 C 
ATOM     28  C   UNL     1      -0.602  -1.328   0.000  0.00  0.00    +0.000 C 
ENDBRANCH  11  23
TORSDOF 2
