REMARK  Name = 
REMARK  10 active torsions:
REMARK  status: ('A' for Active; 'I' for Inactive)
REMARK    1  A    between atoms: S_1  and  C_15
REMARK    2  A    between atoms: S_1  and  C_23
REMARK    3  A    between atoms: P_2  and  O_3
REMARK    4  A    between atoms: O_3  and  C_18
REMARK    5  A    between atoms: N_9  and  C_13
REMARK    6  A    between atoms: N_9  and  C_14
REMARK    7  A    between atoms: C_14  and  C_17
REMARK    8  A    between atoms: C_15  and  C_16
REMARK    9  A    between atoms: C_16  and  C_18
REMARK   10  A    between atoms: C_23  and  C_25
REMARK                            x       y       z     vdW  Elec       q    Type
REMARK                         _______ _______ _______ _____ _____    ______ ____
ROOT
ATOM      1  C   UNL     1      -0.753  -0.491   0.000  0.00  0.00    +0.000 C 
ATOM      2  C   UNL     1      -0.753   0.334   0.000  0.00  0.00    +0.000 C 
ATOM      3  C   UNL     1      -1.467  -0.903   0.000  0.00  0.00    +0.000 C 
ENDROOT
BRANCH   1   5
ATOM      4  O   UNL     1       0.676   0.334   0.000  0.00  0.00    +0.000 OA
ATOM      5  N   UNL     1      -0.038  -0.903   0.000  0.00  0.00    +0.000 N 
ATOM      6  C   UNL     1       0.676  -0.491   0.000  0.00  0.00    +0.000 C 
BRANCH   5   7
ATOM      7  C   UNL     1      -0.038  -1.728   0.000  0.00  0.00    +0.000 C 
BRANCH   7  11
ATOM      8  N   UNL     1       1.391  -3.378   0.000  0.00  0.00    +0.000 NA
ATOM      9  N   UNL     1       2.105  -2.141   0.000  0.00  0.00    +0.000 NA
ATOM     10  N   UNL     1      -0.038  -3.378   0.000  0.00  0.00    +0.000 NA
ATOM     11  C   UNL     1       0.676  -2.141   0.000  0.00  0.00    +0.000 A 
ATOM     12  C   UNL     1       0.676  -2.966   0.000  0.00  0.00    +0.000 A 
ATOM     13  C   UNL     1       1.391  -1.728   0.000  0.00  0.00    +0.000 A 
ATOM     14  C   UNL     1       2.105  -2.966   0.000  0.00  0.00    +0.000 A 
ATOM     15  C   UNL     1       2.820  -3.378   0.000  0.00  0.00    +0.000 C 
ENDBRANCH   7  11
ENDBRANCH   5   7
ENDBRANCH   1   5
BRANCH   2  16
ATOM     16  C   UNL     1      -1.467   0.747   0.000  0.00  0.00    +0.000 C 
BRANCH  16  17
ATOM     17  C   UNL     1      -1.467   1.572   0.000  0.00  0.00    +0.000 C 
BRANCH  17  18
ATOM     18  O   UNL     1      -2.182   1.984   0.000  0.00  0.00    +0.000 OA
BRANCH  18  19
ATOM     19  P   UNL     1      -2.182   2.809   0.000  0.00  0.00    +0.000 P 
ATOM     20  O   UNL     1      -2.182   3.634   0.000  0.00  0.00    +0.000 OA
ATOM     21  O   UNL     1      -3.007   2.809   0.000  0.00  0.00    +0.000 OA
ATOM     22  O   UNL     1      -1.357   2.809   0.000  0.00  0.00    +0.000 OA
ENDBRANCH  18  19
ENDBRANCH  17  18
ENDBRANCH  16  17
ENDBRANCH   2  16
BRANCH   2  23
ATOM     23  S   UNL     1      -0.038   0.747   0.000  0.00  0.00    +0.000 S 
BRANCH  23  25
ATOM     24  O   UNL     1      -0.753   1.984   0.000  0.00  0.00    +0.000 OA
ATOM     25  C   UNL     1      -0.038   1.572   0.000  0.00  0.00    +0.000 C 
BRANCH  25  26
ATOM     26  C   UNL     1       0.676   1.984   0.000  0.00  0.00    +0.000 A 
ATOM     27  C   UNL     1       1.391   1.572   0.000  0.00  0.00    +0.000 A 
ATOM     28  C   UNL     1       0.676   2.809   0.000  0.00  0.00    +0.000 A 
ATOM     29  C   UNL     1       2.105   1.984   0.000  0.00  0.00    +0.000 A 
ATOM     30  C   UNL     1       1.391   3.222   0.000  0.00  0.00    +0.000 A 
ATOM     31  C   UNL     1       2.105   2.809   0.000  0.00  0.00    +0.000 A 
ENDBRANCH  25  26
ENDBRANCH  23  25
ENDBRANCH   2  23
TORSDOF 10
