REMARK  Name = 
REMARK  4 active torsions:
REMARK  status: ('A' for Active; 'I' for Inactive)
REMARK    1  A    between atoms: C_1  and  C_2
REMARK    2  A    between atoms: C_1  and  C_3
REMARK    3  A    between atoms: C_2  and  C_5
REMARK    4  A    between atoms: C_3  and  C_10
REMARK                            x       y       z     vdW  Elec       q    Type
REMARK                         _______ _______ _______ _____ _____    ______ ____
ROOT
ATOM      1  C   UNL     1       0.004   0.235   0.000  0.00  0.00    +0.000 C 
ATOM      2  O   UNL     1       0.008   1.056   0.000  0.00  0.00    +0.000 OA
ENDROOT
BRANCH   1   3
ATOM      3  C   UNL     1      -0.687  -0.231   0.000  0.00  0.00    +0.000 C 
ATOM      4  O   UNL     1      -0.700  -1.056   0.000  0.00  0.00    +0.000 OA
BRANCH   3   6
ATOM      5  O   UNL     1      -2.025  -0.223   0.000  0.00  0.00    +0.000 OA
ATOM      6  C   UNL     1      -1.341   0.248   0.000  0.00  0.00    +0.000 C 
ENDBRANCH   3   6
ENDBRANCH   1   3
BRANCH   1   7
ATOM      7  C   UNL     1       0.691  -0.248   0.000  0.00  0.00    +0.000 C 
ATOM      8  O   UNL     1       0.696  -1.073   0.000  0.00  0.00    +0.000 OA
BRANCH   7  10
ATOM      9  O   UNL     1       2.025  -0.248   0.000  0.00  0.00    +0.000 OA
ATOM     10  C   UNL     1       1.341   0.223   0.000  0.00  0.00    +0.000 C 
ENDBRANCH   7  10
ENDBRANCH   1   7
TORSDOF 4
