REMARK  Name = 
REMARK  3 active torsions:
REMARK  status: ('A' for Active; 'I' for Inactive)
REMARK    1  A    between atoms: C_5  and  C_18
REMARK    2  A    between atoms: C_6  and  C_8
REMARK    3  A    between atoms: C_11  and  S_14
REMARK                            x       y       z     vdW  Elec       q    Type
REMARK                         _______ _______ _______ _____ _____    ______ ____
ROOT
ATOM      1  C   UNL     1       0.162  -0.624   0.000  0.00  0.00    +0.000 C 
ATOM      2  C   UNL     1       0.715  -1.238   0.000  0.00  0.00    +0.000 C 
ATOM      3  C   UNL     1       1.382  -1.722   0.000  0.00  0.00    +0.000 C 
ATOM      4  O   UNL     1       2.167  -1.468   0.000  0.00  0.00    +0.000 OA
ATOM      5  C   UNL     1       1.127  -2.507   0.000  0.00  0.00    +0.000 C 
ATOM      6  C   UNL     1       0.302  -2.507   0.000  0.00  0.00    +0.000 C 
ATOM      7  O   UNL     1       0.047  -1.722   0.000  0.00  0.00    +0.000 OA
ATOM      8  C   UNL     1       1.266  -0.624   0.000  0.00  0.00    +0.000 C 
ENDROOT
BRANCH   5   9
ATOM      9  C   UNL     1       1.612  -3.175   0.000  0.00  0.00    +0.000 A 
ATOM     10  C   UNL     1       2.432  -3.088   0.000  0.00  0.00    +0.000 A 
ATOM     11  C   UNL     1       2.917  -3.756   0.000  0.00  0.00    +0.000 A 
ATOM     12  C   UNL     1       2.582  -4.509   0.000  0.00  0.00    +0.000 A 
ATOM     13  C   UNL     1       1.761  -4.596   0.000  0.00  0.00    +0.000 A 
ATOM     14  C   UNL     1       1.276  -3.928   0.000  0.00  0.00    +0.000 A 
ATOM     15  F   UNL     1       1.426  -5.349   0.000  0.00  0.00    +0.000 F 
ENDBRANCH   5   9
BRANCH   6  16
ATOM     16  C   UNL     1      -0.183  -3.175   0.000  0.00  0.00    +0.000 A 
ATOM     17  C   UNL     1       0.153  -3.928   0.000  0.00  0.00    +0.000 A 
ATOM     18  C   UNL     1      -0.332  -4.596   0.000  0.00  0.00    +0.000 A 
ATOM     19  C   UNL     1      -1.153  -4.509   0.000  0.00  0.00    +0.000 A 
ATOM     20  C   UNL     1      -1.488  -3.756   0.000  0.00  0.00    +0.000 A 
ATOM     21  C   UNL     1      -1.003  -3.088   0.000  0.00  0.00    +0.000 A 
BRANCH  19  22
ATOM     22  S   UNL     1      -1.638  -5.177   0.000  0.00  0.00    +0.000 S 
ATOM     23  O   UNL     1      -2.123  -5.844   0.000  0.00  0.00    +0.000 OA
ATOM     24  O   UNL     1      -0.970  -5.662   0.000  0.00  0.00    +0.000 OA
ATOM     25  N   UNL     1      -2.305  -4.692   0.000  0.00  0.00    +0.000 NA
ENDBRANCH  19  22
ENDBRANCH   6  16
TORSDOF 3
