REMARK  Name = 
REMARK  3 active torsions:
REMARK  status: ('A' for Active; 'I' for Inactive)
REMARK    1  A    between atoms: C_1  and  CA_2
REMARK    2  A    between atoms: C_1  and  C_3
REMARK    3  A    between atoms: CA_2  and  C_10
REMARK                            x       y       z     vdW  Elec       q    Type
REMARK                         _______ _______ _______ _____ _____    ______ ____
ROOT
ATOM      1  C   UNL     1      -0.715   0.412   0.000  0.00  0.00    +0.000 A 
ATOM      2  C   UNL     1      -1.429  -0.825   0.000  0.00  0.00    +0.000 A 
ATOM      3  C   UNL     1      -2.143  -0.412   0.000  0.00  0.00    +0.000 A 
ATOM      4  C   UNL     1      -2.143   0.412   0.000  0.00  0.00    +0.000 A 
ATOM      5  C   UNL     1      -1.429   0.825   0.000  0.00  0.00    +0.000 A 
ATOM      6  C   UNL     1      -0.715  -0.412   0.000  0.00  0.00    +0.000 A 
ATOM      7  O   UNL     1      -1.429  -1.650   0.000  0.00  0.00    +0.000 OA
ENDROOT
BRANCH   1   8
ATOM      8  C   UNL     1       0.000   0.825   0.000  0.00  0.00    +0.000 C 
BRANCH   8   9
ATOM      9  CA  UNL     1       0.714   0.412   0.000  0.00  0.00    +0.000 C 
ATOM     10  N   UNL     1       0.714  -0.412   0.000  0.00  0.00    +0.000 NA
BRANCH   9  11
ATOM     11  C   UNL     1       1.429   0.825   0.000  0.00  0.00    +0.000 C 
ATOM     12  O   UNL     1       2.143   0.412   0.000  0.00  0.00    +0.000 OA
ATOM     13  OXT UNL     1       1.429   1.650   0.000  0.00  0.00    +0.000 OA
ENDBRANCH   9  11
ENDBRANCH   8   9
ENDBRANCH   1   8
TORSDOF 3
