REMARK  Name = 
REMARK  8 active torsions:
REMARK  status: ('A' for Active; 'I' for Inactive)
REMARK    1  A    between atoms: N_6  and  C_13
REMARK    2  A    between atoms: N_9  and  C_22
REMARK    3  A    between atoms: N_10  and  N_12
REMARK    4  A    between atoms: C_15  and  C_17
REMARK    5  A    between atoms: C_18  and  C_19
REMARK    6  A    between atoms: C_19  and  C_20
REMARK    7  A    between atoms: C_20  and  C_21
REMARK    8  A    between atoms: C_21  and  C_22
REMARK                            x       y       z     vdW  Elec       q    Type
REMARK                         _______ _______ _______ _____ _____    ______ ____
ROOT
ATOM      1  N   UNL     1       2.637  -1.381   0.000  0.00  0.00    +0.000 NA
ATOM      2  C   UNL     1       1.817  -1.295   0.000  0.00  0.00    +0.000 C 
ENDROOT
BRANCH   2   5
ATOM      3  O   UNL     1       1.667  -2.716   0.000  0.00  0.00    +0.000 OA
ATOM      4  N   UNL     1       0.511  -1.876   0.000  0.00  0.00    +0.000 NA
ATOM      5  C   UNL     1       1.332  -1.962   0.000  0.00  0.00    +0.000 C 
BRANCH   4   7
ATOM      6  N   UNL     1      -0.386  -3.813   0.000  0.00  0.00    +0.000 NA
ATOM      7  C   UNL     1       0.026  -2.543   0.000  0.00  0.00    +0.000 C 
ATOM      8  C   UNL     1      -0.799  -2.543   0.000  0.00  0.00    +0.000 C 
ATOM      9  C   UNL     1      -1.054  -3.328   0.000  0.00  0.00    +0.000 C 
ATOM     10  C   UNL     1       0.281  -3.328   0.000  0.00  0.00    +0.000 C 
BRANCH   9  13
ATOM     11  O   UNL     1      -2.010  -4.390   0.000  0.00  0.00    +0.000 OA
ATOM     12  N   UNL     1      -2.451  -3.031   0.000  0.00  0.00    +0.000 NA
ATOM     13  C   UNL     1      -1.838  -3.583   0.000  0.00  0.00    +0.000 C 
ENDBRANCH   9  13
ENDBRANCH   4   7
ENDBRANCH   2   5
BRANCH   2  14
ATOM     14  C   UNL     1       1.481  -0.541   0.000  0.00  0.00    +0.000 C 
BRANCH  14  15
ATOM     15  C   UNL     1       1.966   0.126   0.000  0.00  0.00    +0.000 C 
BRANCH  15  16
ATOM     16  C   UNL     1       1.630   0.880   0.000  0.00  0.00    +0.000 C 
BRANCH  16  17
ATOM     17  N   UNL     1       2.115   1.548   0.000  0.00  0.00    +0.000 NA
ATOM     18  N   UNL     1       2.265   2.969   0.000  0.00  0.00    +0.000 NA
ATOM     19  N   UNL     1       0.959   2.387   0.000  0.00  0.00    +0.000 NA
ATOM     20  C   UNL     1       1.780   2.301   0.000  0.00  0.00    +0.000 C 
BRANCH  18  23
ATOM     21  O   UNL     1       2.414   4.390   0.000  0.00  0.00    +0.000 OA
ATOM     22  O   UNL     1       1.109   3.808   0.000  0.00  0.00    +0.000 OA
ATOM     23  N   UNL     1       1.929   3.722   0.000  0.00  0.00    +0.000 N 
ENDBRANCH  18  23
ENDBRANCH  16  17
ENDBRANCH  15  16
ENDBRANCH  14  15
ENDBRANCH   2  14
TORSDOF 8
