REMARK  Name = 
REMARK  5 active torsions:
REMARK  status: ('A' for Active; 'I' for Inactive)
REMARK    1  A    between atoms: C_3  and  C_12
REMARK    2  A    between atoms: C_7  and  C_8
REMARK    3  A    between atoms: C_12  and  N_13
REMARK    4  A    between atoms: C_19  and  N_25
REMARK    5  A    between atoms: C_21  and  C_22
REMARK                            x       y       z     vdW  Elec       q    Type
REMARK                         _______ _______ _______ _____ _____    ______ ____
ROOT
ATOM      1  N   UNL     1      -0.143  -0.030   0.000  0.00  0.00    +0.000 N 
ATOM      2  C   UNL     1      -0.628  -0.698   0.000  0.00  0.00    +0.000 A 
ATOM      3  N   UNL     1      -0.143  -1.365   0.000  0.00  0.00    +0.000 NA
ATOM      4  C   UNL     1       0.641  -1.110   0.000  0.00  0.00    +0.000 A 
ATOM      5  C   UNL     1       0.641  -0.285   0.000  0.00  0.00    +0.000 A 
ATOM      6  C   UNL     1       1.356   0.127   0.000  0.00  0.00    +0.000 A 
ATOM      7  C   UNL     1       2.070  -0.285   0.000  0.00  0.00    +0.000 A 
ATOM      8  C   UNL     1       2.070  -1.110   0.000  0.00  0.00    +0.000 A 
ATOM      9  C   UNL     1       1.356  -1.523   0.000  0.00  0.00    +0.000 A 
ATOM     10  C   UNL     1      -1.453  -0.698   0.000  0.00  0.00    +0.000 C 
ENDROOT
BRANCH   7  11
ATOM     11  N   UNL     1       2.784   0.127   0.000  0.00  0.00    +0.000 N 
ATOM     12  C   UNL     1       2.784   0.952   0.000  0.00  0.00    +0.000 C 
ATOM     13  C   UNL     1       3.499   1.365   0.000  0.00  0.00    +0.000 C 
ATOM     14  O   UNL     1       4.213   0.952   0.000  0.00  0.00    +0.000 OA
ATOM     15  C   UNL     1       4.213   0.127   0.000  0.00  0.00    +0.000 C 
ATOM     16  C   UNL     1       3.499  -0.285   0.000  0.00  0.00    +0.000 C 
ENDBRANCH   7  11
BRANCH   9  17
ATOM     17  C   UNL     1       1.356  -2.348   0.000  0.00  0.00    +0.000 C 
ATOM     18  O   UNL     1       0.641  -2.760   0.000  0.00  0.00    +0.000 OA
ATOM     19  O   UNL     1       2.070  -2.760   0.000  0.00  0.00    +0.000 OA
ENDBRANCH   9  17
BRANCH   1  20
ATOM     20  C   UNL     1      -0.398   0.754   0.000  0.00  0.00    +0.000 C 
BRANCH  20  23
ATOM     21  C   UNL     1      -0.908   2.323   0.000  0.00  0.00    +0.000 C 
ATOM     22  C   UNL     1      -1.460   1.710   0.000  0.00  0.00    +0.000 A 
ATOM     23  C   UNL     1      -1.205   0.926   0.000  0.00  0.00    +0.000 A 
ATOM     24  C   UNL     1      -1.758   0.313   0.000  0.00  0.00    +0.000 A 
ATOM     25  C   UNL     1      -2.564   0.484   0.000  0.00  0.00    +0.000 A 
ATOM     26  C   UNL     1      -2.819   1.269   0.000  0.00  0.00    +0.000 A 
ATOM     27  C   UNL     1      -2.267   1.882   0.000  0.00  0.00    +0.000 A 
BRANCH  27  28
ATOM     28  C   UNL     1      -2.522   2.666   0.000  0.00  0.00    +0.000 C 
ATOM     29  F   UNL     1      -2.777   3.451   0.000  0.00  0.00    +0.000 F 
ATOM     30  F   UNL     1      -3.307   2.412   0.000  0.00  0.00    +0.000 F 
ATOM     31  F   UNL     1      -1.738   2.921   0.000  0.00  0.00    +0.000 F 
ENDBRANCH  27  28
ENDBRANCH  20  23
ENDBRANCH   1  20
TORSDOF 5
