REMARK  Name = 
REMARK  4 active torsions:
REMARK  status: ('A' for Active; 'I' for Inactive)
REMARK    1  A    between atoms: N_5  and  CA_7
REMARK    2  A    between atoms: CA_7  and  CB_8
REMARK    3  A    between atoms: CA_7  and  C_10
REMARK    4  A    between atoms: CB_8  and  CG_9
REMARK                            x       y       z     vdW  Elec       q    Type
REMARK                         _______ _______ _______ _____ _____    ______ ____
ROOT
ATOM      1  CA  UNL     1       0.000   0.206   0.000  0.00  0.00    +0.000 C 
ENDROOT
BRANCH   1   4
ATOM      2  O   UNL     1       1.429   1.031   0.000  0.00  0.00    +0.000 OA
ATOM      3  O   UNL     1       1.429   2.681   0.000  0.00  0.00    +0.000 OA
ATOM      4  N   UNL     1       0.000   1.031   0.000  0.00  0.00    +0.000 N 
ATOM      5  N   UNL     1       0.715   2.269   0.000  0.00  0.00    +0.000 N 
ATOM      6  C   ACE A   0       0.715   1.444   0.000  0.00  0.00    +0.000 C 
ATOM      7  H   UNL     1      -0.443   1.287   0.000  0.00  0.00    +0.000 HD
ATOM      8  H   UNL     1       0.271   2.525   0.000  0.00  0.00    +0.000 HD
ENDBRANCH   1   4
BRANCH   1  11
ATOM      9  O   UNL     1       1.429   0.206   0.000  0.00  0.00    +0.000 OA
ATOM     10  OXT UNL     1       0.715  -1.031   0.000  0.00  0.00    +0.000 OA
ATOM     11  C   UNL     1       0.715  -0.206   0.000  0.00  0.00    +0.000 C 
ENDBRANCH   1  11
BRANCH   1  12
ATOM     12  CB  UNL     1      -0.715  -0.206   0.000  0.00  0.00    +0.000 C 
BRANCH  12  13
ATOM     13  CG  UNL     1      -0.715  -1.031   0.000  0.00  0.00    +0.000 A 
ATOM     14  CD1 UNL     1       0.000  -1.444   0.000  0.00  0.00    +0.000 A 
ATOM     15  CD2 UNL     1      -1.429  -1.444   0.000  0.00  0.00    +0.000 A 
ATOM     16  CE1 UNL     1       0.000  -2.269   0.000  0.00  0.00    +0.000 A 
ATOM     17  CE2 UNL     1      -1.429  -2.269   0.000  0.00  0.00    +0.000 A 
ATOM     18  CZ  UNL     1      -0.715  -2.681   0.000  0.00  0.00    +0.000 A 
ENDBRANCH  12  13
ENDBRANCH   1  12
TORSDOF 4
