REMARK  Name = 
REMARK  19 active torsions:
REMARK  status: ('A' for Active; 'I' for Inactive)
REMARK    1  A    between atoms: N_16  and  C_25
REMARK    2  A    between atoms: N_16  and  C_30
REMARK    3  A    between atoms: N_19  and  C_32
REMARK    4  A    between atoms: N_20  and  C_35
REMARK    5  A    between atoms: N_21  and  C_42
REMARK    6  A    between atoms: C_23  and  C_25
REMARK    7  A    between atoms: C_32  and  C_33
REMARK    8  A    between atoms: C_32  and  C_48
REMARK    9  A    between atoms: C_33  and  C_37
REMARK   10  A    between atoms: C_34  and  C_35
REMARK   11  A    between atoms: C_34  and  C_36
REMARK   12  A    between atoms: C_35  and  C_49
REMARK   13  A    between atoms: C_36  and  C_41
REMARK   14  A    between atoms: C_37  and  C_45
REMARK   15  A    between atoms: C_40  and  C_47
REMARK   16  A    between atoms: C_42  and  C_46
REMARK   17  A    between atoms: C_42  and  C_51
REMARK   18  A    between atoms: C_46  and  C_50
REMARK   19  A    between atoms: C_50  and  C_52
REMARK                            x       y       z     vdW  Elec       q    Type
REMARK                         _______ _______ _______ _____ _____    ______ ____
ROOT
ATOM      1  O   UNK A   0      -2.035   1.174   0.000  0.00  0.00    +0.000 OA
ATOM      2  N   UNK A   1      -2.750   2.411   0.000  0.00  0.00    +0.000 N 
ATOM      3  C   UNK A   0      -2.035   1.999   0.000  0.00  0.00    +0.000 C 
ATOM      4  H   UNK A   1      -2.750   2.923   0.000  0.00  0.00    +0.000 HD
ENDROOT
BRANCH   3   8
ATOM      5  C   UNK A   0       0.108   3.236   0.000  0.00  0.00    +0.000 A 
ATOM      6  C   UNK A   0      -0.606   3.649   0.000  0.00  0.00    +0.000 A 
ATOM      7  C   UNK A   0       0.108   2.411   0.000  0.00  0.00    +0.000 A 
ATOM      8  C   UNK A   0      -1.321   2.411   0.000  0.00  0.00    +0.000 A 
ATOM      9  C   UNK A   0      -1.321   3.236   0.000  0.00  0.00    +0.000 A 
ATOM     10  C   UNK A   0      -0.606   1.999   0.000  0.00  0.00    +0.000 A 
BRANCH   5  11
ATOM     11  N   UNK A   0       0.823   3.649   0.000  0.00  0.00    +0.000 N 
ATOM     12  H   UNK A   0       0.823   4.160   0.000  0.00  0.00    +0.000 HD
BRANCH  11  13
ATOM     13  C   UNK A   0       1.537   3.236   0.000  0.00  0.00    +0.000 C 
BRANCH  13  21
ATOM     14  O   UNK A   0       4.408   2.383   0.000  0.00  0.00    +0.000 OA
ATOM     15  O   UNK A   0       3.680   1.999   0.000  0.00  0.00    +0.000 OA
ATOM     16  N   UNK A   0       2.966   3.236   0.000  0.00  0.00    +0.000 N 
ATOM     17  N   UNK A   0       2.966   4.886   0.000  0.00  0.00    +0.000 N 
ATOM     18  N   UNK A   0       4.418   4.915   0.000  0.00  0.00    +0.000 N 
ATOM     19  N   UNK A   0       5.165   3.632   0.000  0.00  0.00    +0.000 NA
ATOM     20  N   UNK A   0       5.878   4.906   0.000  0.00  0.00    +0.000 N 
ATOM     21  C   UNK A   0       2.251   3.649   0.000  0.00  0.00    +0.000 C 
ATOM     22  C   UNK A   0       2.251   4.474   0.000  0.00  0.00    +0.000 C 
ATOM     23  C   UNK A   0       3.680   3.649   0.000  0.00  0.00    +0.000 A 
ATOM     24  C   UNK A   0       3.680   4.474   0.000  0.00  0.00    +0.000 A 
ATOM     25  C   UNK A   0       4.418   3.208   0.000  0.00  0.00    +0.000 A 
ATOM     26  C   UNK A   0       2.966   2.411   0.000  0.00  0.00    +0.000 C 
ATOM     27  C   UNK A   0       5.165   4.491   0.000  0.00  0.00    +0.000 A 
ATOM     28  H   UNK A   0       2.966   5.398   0.000  0.00  0.00    +0.000 HD
ATOM     29  H   UNK A   0       4.412   5.426   0.000  0.00  0.00    +0.000 HD
ATOM     30  H   UNK A   0       5.877   5.418   0.000  0.00  0.00    +0.000 HD
ATOM     31  H   UNK A   0       6.322   4.652   0.000  0.00  0.00    +0.000 HD
ENDBRANCH  13  21
ENDBRANCH  11  13
ENDBRANCH   5  11
ENDBRANCH   3   8
BRANCH   2  32
ATOM     32  C   UNK A   1      -3.464   1.999   0.000  0.00  0.00    +0.000 C 
BRANCH  32  35
ATOM     33  O   UNK A   1      -4.893   1.999   0.000  0.00  0.00    +0.000 OA
ATOM     34  O   UNK A   1      -4.179   3.236   0.000  0.00  0.00    +0.000 OA
ATOM     35  C   UNK A   1      -4.179   2.411   0.000  0.00  0.00    +0.000 C 
ENDBRANCH  32  35
BRANCH  32  36
ATOM     36  C   UNK A   1      -3.464   1.174   0.000  0.00  0.00    +0.000 C 
BRANCH  36  37
ATOM     37  C   UNK A   1      -4.179   0.761   0.000  0.00  0.00    +0.000 C 
BRANCH  37  40
ATOM     38  O   UNK A   1      -3.464  -0.476   0.000  0.00  0.00    +0.000 OA
ATOM     39  N   UNK A   1      -4.893  -0.476   0.000  0.00  0.00    +0.000 N 
ATOM     40  C   UNK A   1      -4.179  -0.064   0.000  0.00  0.00    +0.000 C 
ATOM     41  H   UNK A   1      -5.336  -0.221   0.000  0.00  0.00    +0.000 HD
BRANCH  39  42
ATOM     42  C   UNK A   1      -4.893  -1.301   0.000  0.00  0.00    +0.000 C 
BRANCH  42  45
ATOM     43  O   UNK A   1      -5.608  -2.539   0.000  0.00  0.00    +0.000 OA
ATOM     44  O   UNK A   1      -6.322  -1.301   0.000  0.00  0.00    +0.000 OA
ATOM     45  C   UNK A   1      -5.608  -1.714   0.000  0.00  0.00    +0.000 C 
ENDBRANCH  42  45
BRANCH  42  46
ATOM     46  C   UNK A   1      -4.179  -1.714   0.000  0.00  0.00    +0.000 C 
BRANCH  46  47
ATOM     47  C   UNK A   1      -4.179  -2.539   0.000  0.00  0.00    +0.000 C 
BRANCH  47  50
ATOM     48  O   UNK A   1      -2.750  -2.539   0.000  0.00  0.00    +0.000 OA
ATOM     49  N   UNK A   1      -3.464  -3.776   0.000  0.00  0.00    +0.000 N 
ATOM     50  C   UNK A   1      -3.464  -2.951   0.000  0.00  0.00    +0.000 C 
ATOM     51  H   UNK A   1      -3.907  -4.032   0.000  0.00  0.00    +0.000 HD
BRANCH  49  52
ATOM     52  C   UNK A   1      -2.750  -4.189   0.000  0.00  0.00    +0.000 C 
BRANCH  52  55
ATOM     53  O   UNK A   1      -2.035  -5.426   0.000  0.00  0.00    +0.000 OA
ATOM     54  O   UNK A   1      -3.464  -5.426   0.000  0.00  0.00    +0.000 OA
ATOM     55  C   UNK A   1      -2.750  -5.014   0.000  0.00  0.00    +0.000 C 
ENDBRANCH  52  55
BRANCH  52  56
ATOM     56  C   UNK A   1      -2.035  -3.776   0.000  0.00  0.00    +0.000 C 
BRANCH  56  57
ATOM     57  C   UNK A   1      -1.321  -4.189   0.000  0.00  0.00    +0.000 C 
BRANCH  57  60
ATOM     58  O   UNK A   1       0.108  -4.189   0.000  0.00  0.00    +0.000 OA
ATOM     59  O   UNK A   1      -0.606  -2.951   0.000  0.00  0.00    +0.000 OA
ATOM     60  C   UNK A   1      -0.606  -3.776   0.000  0.00  0.00    +0.000 C 
ENDBRANCH  57  60
ENDBRANCH  56  57
ENDBRANCH  52  56
ENDBRANCH  49  52
ENDBRANCH  47  50
ENDBRANCH  46  47
ENDBRANCH  42  46
ENDBRANCH  39  42
ENDBRANCH  37  40
ENDBRANCH  36  37
ENDBRANCH  32  36
ENDBRANCH   2  32
TORSDOF 19
