REMARK  Name = 
REMARK  3 active torsions:
REMARK  status: ('A' for Active; 'I' for Inactive)
REMARK    1  A    between atoms: C_9  and  C_15
REMARK    2  A    between atoms: C_12  and  C_20
REMARK    3  A    between atoms: C_15  and  C_18
REMARK                            x       y       z     vdW  Elec       q    Type
REMARK                         _______ _______ _______ _____ _____    ______ ____
ROOT
ATOM      1  C   UNL     1      -0.388   0.055   0.000  0.00  0.00    +0.000 A 
ATOM      2  C   UNL     1       0.326   0.468   0.000  0.00  0.00    +0.000 A 
ATOM      3  C   UNL     1       1.041   0.055   0.000  0.00  0.00    +0.000 A 
ATOM      4  C   UNL     1       1.041  -0.770   0.000  0.00  0.00    +0.000 A 
ATOM      5  C   UNL     1       0.326  -1.182   0.000  0.00  0.00    +0.000 A 
ATOM      6  C   UNL     1      -0.388  -0.770   0.000  0.00  0.00    +0.000 A 
ATOM      7  O   UNL     1      -1.103  -1.182   0.000  0.00  0.00    +0.000 OA
ATOM      8  C   UNL     1      -1.817  -0.770   0.000  0.00  0.00    +0.000 A 
ATOM      9  C   UNL     1      -1.817   0.055   0.000  0.00  0.00    +0.000 A 
ATOM     10  C   UNL     1      -1.103   0.468   0.000  0.00  0.00    +0.000 A 
ATOM     11  O   UNL     1       1.825  -1.025   0.000  0.00  0.00    +0.000 OA
ATOM     12  C   UNL     1       2.311  -0.357   0.000  0.00  0.00    +0.000 C 
ATOM     13  C   UNL     1       1.825   0.310   0.000  0.00  0.00    +0.000 C 
ATOM     14  O   UNL     1      -2.532  -1.182   0.000  0.00  0.00    +0.000 OA
ENDROOT
BRANCH  12  15
ATOM     15  C   UNL     1       3.136  -0.357   0.000  0.00  0.00    +0.000 C 
ATOM     16  O   UNL     1       3.961  -0.357   0.000  0.00  0.00    +0.000 OA
ATOM     17  C   UNL     1       3.136  -1.182   0.000  0.00  0.00    +0.000 C 
ATOM     18  C   UNL     1       3.136   0.468   0.000  0.00  0.00    +0.000 C 
ENDBRANCH  12  15
BRANCH   9  19
ATOM     19  C   UNL     1      -2.532   0.468   0.000  0.00  0.00    +0.000 C 
ATOM     20  C   UNL     1      -2.944  -0.247   0.000  0.00  0.00    +0.000 C 
ATOM     21  C   UNL     1      -2.119   1.182   0.000  0.00  0.00    +0.000 C 
BRANCH  19  22
ATOM     22  C   UNL     1      -3.246   0.880   0.000  0.00  0.00    +0.000 C 
ATOM     23  C   UNL     1      -3.961   0.468   0.000  0.00  0.00    +0.000 C 
ENDBRANCH  19  22
ENDBRANCH   9  19
TORSDOF 3
