REMARK  Name = 
REMARK  5 active torsions:
REMARK  status: ('A' for Active; 'I' for Inactive)
REMARK    1  A    between atoms: C_3  and  C_7
REMARK    2  A    between atoms: C_10  and  S_13
REMARK    3  A    between atoms: S_13  and  C_14
REMARK    4  A    between atoms: C_18  and  C_20
REMARK    5  A    between atoms: C_20  and  C_26
REMARK                            x       y       z     vdW  Elec       q    Type
REMARK                         _______ _______ _______ _____ _____    ______ ____
ROOT
ATOM      1  C   UNL     1       9.950  -2.412   0.000  0.00  0.00    +0.000 A 
ATOM      2  C   UNL     1       9.337  -1.860   0.000  0.00  0.00    +0.000 A 
ATOM      3  C   UNL     1       9.508  -1.053   0.000  0.00  0.00    +0.000 A 
ATOM      4  C   UNL     1      10.293  -0.798   0.000  0.00  0.00    +0.000 A 
ATOM      5  C   UNL     1      10.906  -1.350   0.000  0.00  0.00    +0.000 A 
ATOM      6  C   UNL     1      10.734  -2.157   0.000  0.00  0.00    +0.000 A 
ENDROOT
BRANCH   5   7
ATOM      7  C   UNL     1      11.691  -1.095   0.000  0.00  0.00    +0.000 C 
ATOM      8  C   UNL     1      12.341  -0.587   0.000  0.00  0.00    +0.000 C 
ATOM      9  C   UNL     1      13.106  -0.896   0.000  0.00  0.00    +0.000 C 
ATOM     10  O   UNL     1      13.220  -1.713   0.000  0.00  0.00    +0.000 OA
ATOM     11  C   UNL     1      12.570  -2.221   0.000  0.00  0.00    +0.000 C 
ATOM     12  C   UNL     1      11.805  -1.912   0.000  0.00  0.00    +0.000 C 
BRANCH   7  13
ATOM     13  C   UNL     1      11.303  -0.367   0.000  0.00  0.00    +0.000 C 
ATOM     14  O   UNL     1      11.740   0.333   0.000  0.00  0.00    +0.000 OA
ATOM     15  N   UNL     1      10.479  -0.338   0.000  0.00  0.00    +0.000 NA
ENDBRANCH   7  13
ENDBRANCH   5   7
BRANCH   1  16
ATOM     16  S   UNL     1       9.778  -3.219   0.000  0.00  0.00    +0.000 S 
BRANCH  16  20
ATOM     17  C   UNL     1       7.424  -3.984   0.000  0.00  0.00    +0.000 A 
ATOM     18  C   UNL     1       7.596  -3.177   0.000  0.00  0.00    +0.000 A 
ATOM     19  C   UNL     1       8.380  -2.922   0.000  0.00  0.00    +0.000 A 
ATOM     20  C   UNL     1       8.994  -3.474   0.000  0.00  0.00    +0.000 A 
ATOM     21  C   UNL     1       8.822  -4.281   0.000  0.00  0.00    +0.000 A 
ATOM     22  C   UNL     1       8.037  -4.536   0.000  0.00  0.00    +0.000 A 
BRANCH  17  25
ATOM     23  C   UNL     1       5.972  -2.929   0.000  0.00  0.00    +0.000 C 
ATOM     24  N   UNL     1       5.972  -3.754   0.000  0.00  0.00    +0.000 N 
ATOM     25  C   UNL     1       6.640  -4.239   0.000  0.00  0.00    +0.000 A 
ATOM     26  C   UNL     1       6.385  -5.023   0.000  0.00  0.00    +0.000 A 
ATOM     27  C   UNL     1       5.560  -5.023   0.000  0.00  0.00    +0.000 A 
ATOM     28  N   UNL     1       5.305  -4.239   0.000  0.00  0.00    +0.000 NA
ENDBRANCH  17  25
ENDBRANCH  16  20
ENDBRANCH   1  16
TORSDOF 5
