REMARK  Name = 
REMARK  8 active torsions:
REMARK  status: ('A' for Active; 'I' for Inactive)
REMARK    1  A    between atoms: C_4  and  C_10
REMARK    2  A    between atoms: C_5  and  C_13
REMARK    3  A    between atoms: C_8  and  C_11
REMARK    4  A    between atoms: C_9  and  C_10
REMARK    5  A    between atoms: C_9  and  S_26
REMARK    6  A    between atoms: CA_14  and  C_16
REMARK    7  A    between atoms: CA_14  and  N_18
REMARK    8  A    between atoms: C_15  and  N_18
REMARK                            x       y       z     vdW  Elec       q    Type
REMARK                         _______ _______ _______ _____ _____    ______ ____
ROOT
ATOM      1  C   UNL     1      -0.555   0.611   0.000  0.00  0.00    +0.000 C 
ATOM      2  CA  UNL     1      -0.300  -0.173   0.000  0.00  0.00    +0.000 C 
ENDROOT
BRANCH   2   3
ATOM      3  C   UNL     1      -0.852  -0.786   0.000  0.00  0.00    +0.000 C 
ATOM      4  O   UNL     1      -0.852  -1.611   0.000  0.00  0.00    +0.000 OA
ATOM      5  OXT UNL     1      -1.659  -0.615   0.000  0.00  0.00    +0.000 OA
ENDBRANCH   2   3
BRANCH   1   6
ATOM      6  C   UNL     1      -1.362   0.783   0.000  0.00  0.00    +0.000 C 
ATOM      7  C   UNL     1      -1.617   1.567   0.000  0.00  0.00    +0.000 C 
BRANCH   7   8
ATOM      8  C   UNL     1      -2.424   1.739   0.000  0.00  0.00    +0.000 C 
ATOM      9  N   UNL     1      -2.976   1.126   0.000  0.00  0.00    +0.000 NA
ATOM     10  O   UNL     1      -2.679   2.523   0.000  0.00  0.00    +0.000 OA
ENDBRANCH   7   8
ENDBRANCH   1   6
BRANCH   1  11
ATOM     11  C   UNL     1      -0.003   1.224   0.000  0.00  0.00    +0.000 C 
BRANCH  11  14
ATOM     12  O   UNL     1      -1.065   2.180   0.000  0.00  0.00    +0.000 OA
ATOM     13  O   UNL     1       0.294   2.622   0.000  0.00  0.00    +0.000 OA
ATOM     14  S   UNL     1      -0.258   2.009   0.000  0.00  0.00    +0.000 S 
ENDBRANCH  11  14
ENDBRANCH   1  11
BRANCH   2  15
ATOM     15  N   UNL     1       0.507  -0.345   0.000  0.00  0.00    +0.000 NA
BRANCH  15  23
ATOM     16  C   UNL     1       2.976  -2.209   0.000  0.00  0.00    +0.000 A 
ATOM     17  C   UNL     1       2.976  -1.385   0.000  0.00  0.00    +0.000 A 
ATOM     18  C   UNL     1       2.261  -2.622   0.000  0.00  0.00    +0.000 A 
ATOM     19  C   UNL     1       2.261  -0.972   0.000  0.00  0.00    +0.000 A 
ATOM     20  C   UNL     1       0.762  -2.464   0.000  0.00  0.00    +0.000 A 
ATOM     21  C   UNL     1       0.277  -1.797   0.000  0.00  0.00    +0.000 A 
ATOM     22  C   UNL     1       1.547  -2.209   0.000  0.00  0.00    +0.000 A 
ATOM     23  C   UNL     1       0.762  -1.129   0.000  0.00  0.00    +0.000 A 
ATOM     24  N   UNL     1       1.547  -1.385   0.000  0.00  0.00    +0.000 N 
BRANCH  21  25
ATOM     25  C   UNL     1      -0.548  -1.797   0.000  0.00  0.00    +0.000 C 
ATOM     26  O   UNL     1      -0.960  -2.511   0.000  0.00  0.00    +0.000 OA
ENDBRANCH  21  25
ENDBRANCH  15  23
ENDBRANCH   2  15
TORSDOF 8
