REMARK  Name = 
REMARK  5 active torsions:
REMARK  status: ('A' for Active; 'I' for Inactive)
REMARK    1  A    between atoms: C_2  and  N_15
REMARK    2  A    between atoms: C_9  and  C_11
REMARK    3  A    between atoms: N_15  and  S_16
REMARK    4  A    between atoms: C_20  and  O_22
REMARK    5  A    between atoms: O_22  and  C_23
REMARK                            x       y       z     vdW  Elec       q    Type
REMARK                         _______ _______ _______ _____ _____    ______ ____
ROOT
ATOM      1  C   UNL     1      -1.431   0.976   0.000  0.00  0.00    +0.000 A 
ATOM      2  C   UNL     1      -1.433   0.148   0.000  0.00  0.00    +0.000 A 
ATOM      3  C   UNL     1      -0.721  -0.266   0.000  0.00  0.00    +0.000 A 
ATOM      4  C   UNL     1      -0.725   1.389   0.000  0.00  0.00    +0.000 A 
ATOM      5  C   UNL     1      -0.005   0.983   0.000  0.00  0.00    +0.000 A 
ATOM      6  C   UNL     1      -0.006   0.148   0.000  0.00  0.00    +0.000 A 
ATOM      7  C   UNL     1       0.712  -0.268   0.000  0.00  0.00    +0.000 C 
ATOM      8  N   UNL     1       1.430   0.144   0.000  0.00  0.00    +0.000 N 
ATOM      9  C   UNL     1       1.433   0.979   0.000  0.00  0.00    +0.000 C 
ATOM     10  C   UNL     1       0.711   1.396   0.000  0.00  0.00    +0.000 C 
ATOM     11  C   UNL     1       2.144  -0.268   0.000  0.00  0.00    +0.000 C 
ATOM     12  O   UNL     1       2.861   0.144   0.000  0.00  0.00    +0.000 OA
ENDROOT
BRANCH   9  13
ATOM     13  C   UNL     1       2.147   1.391   0.000  0.00  0.00    +0.000 C 
ATOM     14  N   UNL     1       2.862   0.978   0.000  0.00  0.00    +0.000 NA
ATOM     15  C   UNL     1       3.575   1.390   0.000  0.00  0.00    +0.000 C 
ATOM     16  O   UNL     1       2.147   2.215   0.000  0.00  0.00    +0.000 OA
ENDBRANCH   9  13
BRANCH   2  17
ATOM     17  N   UNL     1      -2.147  -0.264   0.000  0.00  0.00    +0.000 NA
BRANCH  17  18
ATOM     18  S   UNL     1      -2.861   0.149   0.000  0.00  0.00    +0.000 S 
ATOM     19  O   UNL     1      -3.575   0.561   0.000  0.00  0.00    +0.000 OA
ATOM     20  O   UNL     1      -2.449   0.863   0.000  0.00  0.00    +0.000 OA
ATOM     21  O   UNL     1      -3.273  -0.565   0.000  0.00  0.00    +0.000 OA
ENDBRANCH  17  18
ENDBRANCH   2  17
BRANCH  11  22
ATOM     22  O   UNL     1       2.143  -1.092   0.000  0.00  0.00    +0.000 OA
BRANCH  22  23
ATOM     23  C   UNL     1       2.857  -1.506   0.000  0.00  0.00    +0.000 C 
ATOM     24  C   UNL     1       2.436  -2.215   0.000  0.00  0.00    +0.000 C 
ATOM     25  C   UNL     1       3.261  -0.790   0.000  0.00  0.00    +0.000 C 
ATOM     26  C   UNL     1       3.563  -1.917   0.000  0.00  0.00    +0.000 C 
ENDBRANCH  22  23
ENDBRANCH  11  22
TORSDOF 5
