REMARK  Name = 
REMARK  6 active torsions:
REMARK  status: ('A' for Active; 'I' for Inactive)
REMARK    1  A    between atoms: N_2  and  C_3
REMARK    2  A    between atoms: N_2  and  C_9
REMARK    3  A    between atoms: C_9  and  N_11
REMARK    4  A    between atoms: N_11  and  N_12
REMARK    5  A    between atoms: C_13  and  C_14
REMARK    6  A    between atoms: C_13  and  C_20
REMARK                            x       y       z     vdW  Elec       q    Type
REMARK                         _______ _______ _______ _____ _____    ______ ____
ROOT
ATOM      1  N   UNL     1      -2.143   1.238   0.000  0.00  0.00    +0.000 NA
ATOM      2  C   UNL     1      -2.143   2.062   0.000  0.00  0.00    +0.000 C 
ENDROOT
BRANCH   2   3
ATOM      3  C   UNL     1      -2.858   2.475   0.000  0.00  0.00    +0.000 A 
ATOM      4  N   UNL     1      -3.572   2.062   0.000  0.00  0.00    +0.000 NA
ATOM      5  C   UNL     1      -4.287   2.475   0.000  0.00  0.00    +0.000 A 
ATOM      6  C   UNL     1      -4.287   3.300   0.000  0.00  0.00    +0.000 A 
ATOM      7  C   UNL     1      -3.572   3.712   0.000  0.00  0.00    +0.000 A 
ATOM      8  C   UNL     1      -2.858   3.300   0.000  0.00  0.00    +0.000 A 
ENDBRANCH   2   3
BRANCH   2   9
ATOM      9  C   UNL     1      -1.429   2.475   0.000  0.00  0.00    +0.000 A 
ATOM     10  C   UNL     1      -1.429   3.300   0.000  0.00  0.00    +0.000 A 
ATOM     11  C   UNL     1      -0.715   3.712   0.000  0.00  0.00    +0.000 A 
ATOM     12  C   UNL     1       0.000   3.300   0.000  0.00  0.00    +0.000 A 
ATOM     13  C   UNL     1       0.000   2.475   0.000  0.00  0.00    +0.000 A 
ATOM     14  N   UNL     1      -0.715   2.062   0.000  0.00  0.00    +0.000 NA
ENDBRANCH   2   9
BRANCH   1  15
ATOM     15  N   UNL     1      -2.858   0.825   0.000  0.00  0.00    +0.000 NA
BRANCH  15  16
ATOM     16  C   UNL     1      -2.858   0.000   0.000  0.00  0.00    +0.000 C 
ATOM     17  S   UNL     1      -2.143  -0.412   0.000  0.00  0.00    +0.000 S 
BRANCH  16  19
ATOM     18  C   UNL     1      -4.287   0.000   0.000  0.00  0.00    +0.000 C 
ATOM     19  N   UNL     1      -3.572  -0.412   0.000  0.00  0.00    +0.000 N 
BRANCH  19  20
ATOM     20  C   UNL     1      -3.572  -1.238   0.000  0.00  0.00    +0.000 C 
ATOM     21  C   UNL     1      -2.858  -1.650   0.000  0.00  0.00    +0.000 C 
ATOM     22  C   UNL     1      -2.858  -2.475   0.000  0.00  0.00    +0.000 C 
ATOM     23  C   UNL     1      -3.572  -2.888   0.000  0.00  0.00    +0.000 C 
ATOM     24  C   UNL     1      -4.287  -2.475   0.000  0.00  0.00    +0.000 C 
ATOM     25  C   UNL     1      -4.287  -1.650   0.000  0.00  0.00    +0.000 C 
ENDBRANCH  19  20
ENDBRANCH  16  19
ENDBRANCH  15  16
ENDBRANCH   1  15
TORSDOF 6
