REMARK  Name = 
REMARK  4 active torsions:
REMARK  status: ('A' for Active; 'I' for Inactive)
REMARK    1  A    between atoms: C_2  and  C_3
REMARK    2  A    between atoms: C_3  and  C_5
REMARK    3  A    between atoms: C_3  and  O_7
REMARK    4  A    between atoms: O_7  and  C_8
REMARK                            x       y       z     vdW  Elec       q    Type
REMARK                         _______ _______ _______ _____ _____    ______ ____
ROOT
ATOM      1  C   UNL     1       0.825   1.429   0.000  0.00  0.00    +0.000 C 
ATOM      2  C   UNL     1       0.111   1.016   0.000  0.00  0.00    +0.000 C 
ENDROOT
BRANCH   1   4
ATOM      3  C   UNL     1       0.825   2.858   0.000  0.00  0.00    +0.000 C 
ATOM      4  C   UNL     1       0.412   2.143   0.000  0.00  0.00    +0.000 C 
ENDBRANCH   1   4
BRANCH   1   5
ATOM      5  C   UNL     1       1.540   1.841   0.000  0.00  0.00    +0.000 C 
ATOM      6  C   UNL     1       2.254   1.429   0.000  0.00  0.00    +0.000 C 
ENDBRANCH   1   5
BRANCH   1   7
ATOM      7  O   UNL     1       1.238   0.715   0.000  0.00  0.00    +0.000 OA
BRANCH   7   8
ATOM      8  C   UNL     1       0.825   0.000   0.000  0.00  0.00    +0.000 C 
ATOM      9  O   UNL     1       1.238  -0.715   0.000  0.00  0.00    +0.000 OA
ATOM     10  N   UNL     1       0.000   0.000   0.000  0.00  0.00    +0.000 NA
ENDBRANCH   7   8
ENDBRANCH   1   7
TORSDOF 4
