REMARK  Name = 
REMARK  4 active torsions:
REMARK  status: ('A' for Active; 'I' for Inactive)
REMARK    1  A    between atoms: S_2  and  C_5
REMARK    2  A    between atoms: C_14  and  O_15
REMARK    3  A    between atoms: O_15  and  C_16
REMARK    4  A    between atoms: C_18  and  C_23
REMARK                            x       y       z     vdW  Elec       q    Type
REMARK                         _______ _______ _______ _____ _____    ______ ____
ROOT
ATOM      1  C   UNL     1       0.715  -0.412   0.000  0.00  0.00    +0.000 A 
ATOM      2  C   UNL     1       0.000   0.000   0.000  0.00  0.00    +0.000 A 
ATOM      3  C   UNL     1      -0.785  -0.255   0.000  0.00  0.00    +0.000 C 
ATOM      4  O   UNL     1      -1.040  -1.040   0.000  0.00  0.00    +0.000 OA
ATOM      5  C   UNL     1      -1.270   0.412   0.000  0.00  0.00    +0.000 C 
ATOM      6  F   UNL     1      -1.883  -0.140   0.000  0.00  0.00    +0.000 F 
ATOM      7  F   UNL     1      -1.883   0.965   0.000  0.00  0.00    +0.000 F 
ATOM      8  C   UNL     1      -0.785   1.080   0.000  0.00  0.00    +0.000 C 
ATOM      9  C   UNL     1       0.000   0.825   0.000  0.00  0.00    +0.000 A 
ATOM     10  C   UNL     1       0.715   1.238   0.000  0.00  0.00    +0.000 A 
ATOM     11  C   UNL     1       1.429   0.825   0.000  0.00  0.00    +0.000 A 
ATOM     12  C   UNL     1       1.429   0.000   0.000  0.00  0.00    +0.000 A 
ENDROOT
BRANCH   1  14
ATOM     13  C   UNL     1       0.715  -2.062   0.000  0.00  0.00    +0.000 C 
ATOM     14  S   UNL     1       0.715  -1.238   0.000  0.00  0.00    +0.000 S 
ATOM     15  O   UNL     1       1.540  -1.238   0.000  0.00  0.00    +0.000 OA
ATOM     16  O   UNL     1      -0.111  -1.238   0.000  0.00  0.00    +0.000 OA
ENDBRANCH   1  14
BRANCH  10  17
ATOM     17  O   UNL     1       0.715   2.062   0.000  0.00  0.00    +0.000 OA
BRANCH  17  18
ATOM     18  C   UNL     1       1.429   2.475   0.000  0.00  0.00    +0.000 A 
ATOM     19  C   UNL     1       1.429   3.300   0.000  0.00  0.00    +0.000 A 
ATOM     20  C   UNL     1       2.143   3.712   0.000  0.00  0.00    +0.000 A 
ATOM     21  C   UNL     1       2.858   3.300   0.000  0.00  0.00    +0.000 A 
ATOM     22  C   UNL     1       2.858   2.475   0.000  0.00  0.00    +0.000 A 
ATOM     23  F   UNL     1       3.572   2.062   0.000  0.00  0.00    +0.000 F 
ATOM     24  C   UNL     1       2.143   2.062   0.000  0.00  0.00    +0.000 A 
BRANCH  20  25
ATOM     25  C   UNL     1       2.143   4.537   0.000  0.00  0.00    +0.000 C 
ATOM     26  N   UNL     1       2.143   5.362   0.000  0.00  0.00    +0.000 NA
ENDBRANCH  20  25
ENDBRANCH  17  18
ENDBRANCH  10  17
TORSDOF 4
