REMARK  Name = 
REMARK  10 active torsions:
REMARK  status: ('A' for Active; 'I' for Inactive)
REMARK    1  A    between atoms: C_4  and  O_20
REMARK    2  A    between atoms: C_5  and  O_21
REMARK    3  A    between atoms: C_6  and  O_22
REMARK    4  A    between atoms: C_7  and  C_8
REMARK    5  A    between atoms: C_7  and  C_12
REMARK    6  A    between atoms: C_8  and  C_16
REMARK    7  A    between atoms: C_11  and  C_12
REMARK    8  A    between atoms: C_13  and  O_20
REMARK    9  A    between atoms: C_14  and  O_21
REMARK   10  A    between atoms: C_15  and  O_22
REMARK                            x       y       z     vdW  Elec       q    Type
REMARK                         _______ _______ _______ _____ _____    ______ ____
ROOT
ATOM      1  C   UNL     1       2.143  -1.238   0.000  0.00  0.00    +0.000 A 
ATOM      2  C   UNL     1       3.572  -2.062   0.000  0.00  0.00    +0.000 A 
ATOM      3  C   UNL     1       2.143  -2.062   0.000  0.00  0.00    +0.000 A 
ATOM      4  C   UNL     1       2.858  -2.475   0.000  0.00  0.00    +0.000 A 
ATOM      5  C   UNL     1       2.858  -0.825   0.000  0.00  0.00    +0.000 A 
ATOM      6  C   UNL     1       3.572  -1.238   0.000  0.00  0.00    +0.000 A 
ENDROOT
BRANCH   3   7
ATOM      7  C   UNL     1       1.429  -2.475   0.000  0.00  0.00    +0.000 C 
ATOM      8  O   UNL     1       1.429  -3.300   0.000  0.00  0.00    +0.000 OA
BRANCH   7   9
ATOM      9  C   UNL     1       0.715  -2.062   0.000  0.00  0.00    +0.000 C 
BRANCH   9  10
ATOM     10  C   UNL     1       0.000  -2.475   0.000  0.00  0.00    +0.000 C 
BRANCH  10  11
ATOM     11  C   UNL     1      -0.715  -2.062   0.000  0.00  0.00    +0.000 C 
ATOM     12  O   UNL     1      -1.429  -2.475   0.000  0.00  0.00    +0.000 OA
ATOM     13  O   UNL     1      -0.715  -1.238   0.000  0.00  0.00    +0.000 OA
ENDBRANCH  10  11
ENDBRANCH   9  10
ENDBRANCH   7   9
ENDBRANCH   3   7
BRANCH   4  14
ATOM     14  O   UNL     1       2.858  -3.300   0.000  0.00  0.00    +0.000 OA
BRANCH  14  16
ATOM     15  C   UNL     1       3.572  -4.537   0.000  0.00  0.00    +0.000 C 
ATOM     16  C   UNL     1       3.572  -3.712   0.000  0.00  0.00    +0.000 C 
ENDBRANCH  14  16
ENDBRANCH   4  14
BRANCH   5  17
ATOM     17  O   UNL     1       2.858   0.000   0.000  0.00  0.00    +0.000 OA
BRANCH  17  19
ATOM     18  C   UNL     1       2.143   1.238   0.000  0.00  0.00    +0.000 C 
ATOM     19  C   UNL     1       2.143   0.412   0.000  0.00  0.00    +0.000 C 
ENDBRANCH  17  19
ENDBRANCH   5  17
BRANCH   6  20
ATOM     20  O   UNL     1       4.287  -0.825   0.000  0.00  0.00    +0.000 OA
BRANCH  20  22
ATOM     21  C   UNL     1       5.001   0.412   0.000  0.00  0.00    +0.000 C 
ATOM     22  C   UNL     1       4.287   0.000   0.000  0.00  0.00    +0.000 C 
ENDBRANCH  20  22
ENDBRANCH   6  20
TORSDOF 10
