REMARK  Name = 
REMARK  3 active torsions:
REMARK  status: ('A' for Active; 'I' for Inactive)
REMARK    1  A    between atoms: C_1  and  C_3
REMARK    2  A    between atoms: C_7  and  C_9
REMARK    3  A    between atoms: C_13  and  C_15
REMARK                            x       y       z     vdW  Elec       q    Type
REMARK                         _______ _______ _______ _____ _____    ______ ____
ROOT
ATOM      1  C   UNL     1       0.357  -0.206   0.000  0.00  0.00    +0.000 C 
ATOM      2  O   UNL     1       0.357  -1.031   0.000  0.00  0.00    +0.000 OA
ATOM      3  O   UNL     1       1.072   0.206   0.000  0.00  0.00    +0.000 OA
ENDROOT
BRANCH   1   4
ATOM      4  C   UNL     1      -0.357   0.206   0.000  0.00  0.00    +0.000 C 
ATOM      5  O   UNL     1      -0.357   1.031   0.000  0.00  0.00    +0.000 OA
ATOM      6  O   UNL     1      -1.072  -0.206   0.000  0.00  0.00    +0.000 OA
ENDBRANCH   1   4
TORSDOF 1
REMARK  Name = 
REMARK  3 active torsions:
REMARK  status: ('A' for Active; 'I' for Inactive)
REMARK    1  A    between atoms: C_1  and  C_3
REMARK    2  A    between atoms: C_7  and  C_9
REMARK    3  A    between atoms: C_13  and  C_15
REMARK                            x       y       z     vdW  Elec       q    Type
REMARK                         _______ _______ _______ _____ _____    ______ ____
ROOT
ATOM      1  C   UNL     1       4.851  -0.357   0.000  0.00  0.00    +0.000 C 
ATOM      2  O   UNL     1       5.263  -1.072   0.000  0.00  0.00    +0.000 OA
ATOM      3  O   UNL     1       4.026  -0.357   0.000  0.00  0.00    +0.000 OA
ENDROOT
BRANCH   1   4
ATOM      4  C   UNL     1       5.263   0.357   0.000  0.00  0.00    +0.000 C 
ATOM      5  O   UNL     1       4.851   1.072   0.000  0.00  0.00    +0.000 OA
ATOM      6  O   UNL     1       6.088   0.357   0.000  0.00  0.00    +0.000 OA
ENDBRANCH   1   4
TORSDOF 1
REMARK  Name = 
REMARK  3 active torsions:
REMARK  status: ('A' for Active; 'I' for Inactive)
REMARK    1  A    between atoms: C_1  and  C_3
REMARK    2  A    between atoms: C_7  and  C_9
REMARK    3  A    between atoms: C_13  and  C_15
REMARK                            x       y       z     vdW  Elec       q    Type
REMARK                         _______ _______ _______ _____ _____    ______ ____
ROOT
ATOM      1  C   UNL     1      -0.206  -4.151   0.000  0.00  0.00    +0.000 C 
ATOM      2  O   UNL     1       0.206  -4.865   0.000  0.00  0.00    +0.000 OA
ATOM      3  O   UNL     1      -1.031  -4.151   0.000  0.00  0.00    +0.000 OA
ENDROOT
BRANCH   1   4
ATOM      4  C   UNL     1       0.206  -3.436   0.000  0.00  0.00    +0.000 C 
ATOM      5  O   UNL     1      -0.206  -2.722   0.000  0.00  0.00    +0.000 OA
ATOM      6  O   UNL     1       1.031  -3.436   0.000  0.00  0.00    +0.000 OA
ENDBRANCH   1   4
TORSDOF 1
REMARK  Name = 
REMARK  3 active torsions:
REMARK  status: ('A' for Active; 'I' for Inactive)
REMARK    1  A    between atoms: C_1  and  C_3
REMARK    2  A    between atoms: C_7  and  C_9
REMARK    3  A    between atoms: C_13  and  C_15
REMARK                            x       y       z     vdW  Elec       q    Type
REMARK                         _______ _______ _______ _____ _____    ______ ____
ROOT
ATOM      1 CE   UNL     1      -1.786  -0.619   0.000  0.00  0.00    +0.000 Ce
ENDROOT
TORSDOF 0
REMARK  Name = 
REMARK  3 active torsions:
REMARK  status: ('A' for Active; 'I' for Inactive)
REMARK    1  A    between atoms: C_1  and  C_3
REMARK    2  A    between atoms: C_7  and  C_9
REMARK    3  A    between atoms: C_13  and  C_15
REMARK                            x       y       z     vdW  Elec       q    Type
REMARK                         _______ _______ _______ _____ _____    ______ ____
ROOT
ATOM      1 CE   UNL     1       1.786   0.619   0.000  0.00  0.00    +0.000 Ce
ENDROOT
TORSDOF 0
