REMARK  Name = 
REMARK  16 active torsions:
REMARK  status: ('A' for Active; 'I' for Inactive)
REMARK    1  A    between atoms: O_1  and  C_16
REMARK    2  A    between atoms: O_1  and  C_17
REMARK    3  A    between atoms: O_5  and  C_35
REMARK    4  A    between atoms: O_6  and  C_36
REMARK    5  A    between atoms: O_7  and  C_37
REMARK    6  A    between atoms: C_11  and  C_16
REMARK    7  A    between atoms: C_17  and  C_19
REMARK    8  A    between atoms: C_17  and  C_20
REMARK    9  A    between atoms: C_18  and  C_23
REMARK   10  A    between atoms: C_19  and  C_21
REMARK   11  A    between atoms: C_20  and  C_22
REMARK   12  A    between atoms: C_21  and  C_24
REMARK   13  A    between atoms: C_22  and  C_25
REMARK   14  A    between atoms: C_23  and  C_26
REMARK   15  A    between atoms: C_24  and  C_27
REMARK   16  A    between atoms: C_25  and  C_28
REMARK                            x       y       z     vdW  Elec       q    Type
REMARK                         _______ _______ _______ _____ _____    ______ ____
ROOT
ATOM      1  O   UNL     1      -1.411   0.526   0.000  0.00  0.00    +0.000 OA
ATOM      2  N   UNL     1      -2.125   1.763   0.000  0.00  0.00    +0.000 N 
ATOM      3  C   UNL     1      -1.411   2.176   0.000  0.00  0.00    +0.000 C 
ATOM      4  C   UNL     1      -1.411   3.001   0.000  0.00  0.00    +0.000 C 
ATOM      5  C   UNL     1      -2.125   3.413   0.000  0.00  0.00    +0.000 C 
ATOM      6  C   UNL     1      -2.840   3.001   0.000  0.00  0.00    +0.000 C 
ATOM      7  C   UNL     1      -2.840   2.176   0.000  0.00  0.00    +0.000 C 
ATOM      8  C   UNL     1      -2.125   0.938   0.000  0.00  0.00    +0.000 C 
ENDROOT
BRANCH   8  10
ATOM      9  O   UNL     1      -3.554   0.938   0.000  0.00  0.00    +0.000 OA
ATOM     10  C   UNL     1      -2.840   0.526   0.000  0.00  0.00    +0.000 C 
BRANCH  10  11
ATOM     11  C   UNL     1      -2.840  -0.299   0.000  0.00  0.00    +0.000 A 
ATOM     12  C   UNL     1      -2.125  -0.712   0.000  0.00  0.00    +0.000 A 
ATOM     13  C   UNL     1      -3.554  -0.712   0.000  0.00  0.00    +0.000 A 
ATOM     14  C   UNL     1      -3.554  -1.536   0.000  0.00  0.00    +0.000 A 
ATOM     15  C   UNL     1      -2.125  -1.536   0.000  0.00  0.00    +0.000 A 
ATOM     16  C   UNL     1      -2.840  -1.949   0.000  0.00  0.00    +0.000 A 
BRANCH  14  17
ATOM     17  O   UNL     1      -4.269  -1.949   0.000  0.00  0.00    +0.000 OA
ATOM     18  C   UNL     1      -4.983  -1.536   0.000  0.00  0.00    +0.000 C 
ENDBRANCH  14  17
BRANCH  15  19
ATOM     19  O   UNL     1      -1.411  -1.949   0.000  0.00  0.00    +0.000 OA
ATOM     20  C   UNL     1      -0.696  -1.536   0.000  0.00  0.00    +0.000 C 
ENDBRANCH  15  19
BRANCH  16  21
ATOM     21  O   UNL     1      -2.840  -2.774   0.000  0.00  0.00    +0.000 OA
ATOM     22  C   UNL     1      -3.554  -3.187   0.000  0.00  0.00    +0.000 C 
ENDBRANCH  16  21
ENDBRANCH  10  11
ENDBRANCH   8  10
BRANCH   3  24
ATOM     23  O   UNL     1      -0.696   0.938   0.000  0.00  0.00    +0.000 OA
ATOM     24  C   UNL     1      -0.696   1.763   0.000  0.00  0.00    +0.000 C 
BRANCH  24  25
ATOM     25  O   UNL     1       0.018   2.176   0.000  0.00  0.00    +0.000 OA
BRANCH  25  26
ATOM     26  C   UNL     1       0.733   1.763   0.000  0.00  0.00    +0.000 C 
BRANCH  26  27
ATOM     27  C   UNL     1       0.733   0.938   0.000  0.00  0.00    +0.000 C 
BRANCH  27  28
ATOM     28  C   UNL     1       1.447   0.526   0.000  0.00  0.00    +0.000 C 
BRANCH  28  29
ATOM     29  C   UNL     1       1.447  -0.299   0.000  0.00  0.00    +0.000 C 
BRANCH  29  31
ATOM     30  N   UNL     1       3.590  -0.712   0.000  0.00  0.00    +0.000 NA
ATOM     31  C   UNL     1       2.161  -0.712   0.000  0.00  0.00    +0.000 A 
ATOM     32  C   UNL     1       2.161  -1.536   0.000  0.00  0.00    +0.000 A 
ATOM     33  C   UNL     1       2.876  -0.299   0.000  0.00  0.00    +0.000 A 
ATOM     34  C   UNL     1       2.876  -1.949   0.000  0.00  0.00    +0.000 A 
ATOM     35  C   UNL     1       3.590  -1.536   0.000  0.00  0.00    +0.000 A 
ENDBRANCH  29  31
ENDBRANCH  28  29
ENDBRANCH  27  28
ENDBRANCH  26  27
BRANCH  26  36
ATOM     36  C   UNL     1       1.447   2.176   0.000  0.00  0.00    +0.000 C 
BRANCH  36  37
ATOM     37  C   UNL     1       2.161   1.763   0.000  0.00  0.00    +0.000 C 
BRANCH  37  38
ATOM     38  C   UNL     1       2.876   2.176   0.000  0.00  0.00    +0.000 C 
BRANCH  38  40
ATOM     39  N   UNL     1       5.019   1.763   0.000  0.00  0.00    +0.000 NA
ATOM     40  C   UNL     1       3.590   1.763   0.000  0.00  0.00    +0.000 A 
ATOM     41  C   UNL     1       3.590   0.938   0.000  0.00  0.00    +0.000 A 
ATOM     42  C   UNL     1       4.305   2.176   0.000  0.00  0.00    +0.000 A 
ATOM     43  C   UNL     1       4.305   0.526   0.000  0.00  0.00    +0.000 A 
ATOM     44  C   UNL     1       5.019   0.938   0.000  0.00  0.00    +0.000 A 
ENDBRANCH  38  40
ENDBRANCH  37  38
ENDBRANCH  36  37
ENDBRANCH  26  36
ENDBRANCH  25  26
ENDBRANCH  24  25
ENDBRANCH   3  24
TORSDOF 16
