REMARK  Name = 
REMARK  11 active torsions:
REMARK  status: ('A' for Active; 'I' for Inactive)
REMARK    1  A    between atoms: C_1  and  C_4
REMARK    2  A    between atoms: C_3  and  C_8
REMARK    3  A    between atoms: C_4  and  C_9
REMARK    4  A    between atoms: C_8  and  C_13
REMARK    5  A    between atoms: C_13  and  C_17
REMARK    6  A    between atoms: C_21  and  O_24
REMARK    7  A    between atoms: O_24  and  C_25
REMARK    8  A    between atoms: C_25  and  C_26
REMARK    9  A    between atoms: C_26  and  N_27
REMARK   10  A    between atoms: N_27  and  C_28
REMARK   11  A    between atoms: N_27  and  C_29
REMARK                            x       y       z     vdW  Elec       q    Type
REMARK                         _______ _______ _______ _____ _____    ______ ____
ROOT
ATOM      1  C   UNL     1      -0.868   0.976   0.000  0.00  0.00    +0.000 A 
ATOM      2  C   UNL     1      -0.455   1.690   0.000  0.00  0.00    +0.000 A 
ATOM      3  C   UNL     1      -0.455   0.261   0.000  0.00  0.00    +0.000 A 
ATOM      4  C   UNL     1       0.370   1.690   0.000  0.00  0.00    +0.000 A 
ATOM      5  C   UNL     1       0.370   0.261   0.000  0.00  0.00    +0.000 A 
ATOM      6  C   UNL     1       0.782   0.976   0.000  0.00  0.00    +0.000 A 
ATOM      7  I   UNL     1       0.782   2.405   0.000  0.00  0.00    +0.000 I 
ATOM      8  I   UNL     1       0.782  -0.453   0.000  0.00  0.00    +0.000 I 
ENDROOT
BRANCH   1   9
ATOM      9  C   UNL     1      -1.692   0.976   0.000  0.00  0.00    +0.000 C 
ATOM     10  O   UNL     1      -2.105   1.690   0.000  0.00  0.00    +0.000 OA
BRANCH   9  11
ATOM     11  C   UNL     1      -2.105   0.261   0.000  0.00  0.00    +0.000 A 
ATOM     12  C   UNL     1      -2.925   0.175   0.000  0.00  0.00    +0.000 A 
ATOM     13  C   UNL     1      -1.770  -0.492   0.000  0.00  0.00    +0.000 A 
ATOM     14  C   UNL     1      -3.097  -0.632   0.000  0.00  0.00    +0.000 A 
ATOM     15  C   UNL     1      -3.539   0.727   0.000  0.00  0.00    +0.000 A 
ATOM     16  O   UNL     1      -2.383  -1.044   0.000  0.00  0.00    +0.000 OA
ATOM     17  C   UNL     1      -3.882  -0.887   0.000  0.00  0.00    +0.000 A 
ATOM     18  C   UNL     1      -4.323   0.472   0.000  0.00  0.00    +0.000 A 
ATOM     19  C   UNL     1      -4.495  -0.335   0.000  0.00  0.00    +0.000 A 
BRANCH  13  20
ATOM     20  C   UNL     1      -0.962  -0.664   0.000  0.00  0.00    +0.000 C 
BRANCH  20  21
ATOM     21  C   UNL     1      -0.708  -1.448   0.000  0.00  0.00    +0.000 C 
BRANCH  21  22
ATOM     22  C   UNL     1       0.099  -1.620   0.000  0.00  0.00    +0.000 C 
ATOM     23  C   UNL     1       0.354  -2.405   0.000  0.00  0.00    +0.000 C 
ENDBRANCH  21  22
ENDBRANCH  20  21
ENDBRANCH  13  20
ENDBRANCH   9  11
ENDBRANCH   1   9
BRANCH   6  24
ATOM     24  O   UNL     1       1.607   0.976   0.000  0.00  0.00    +0.000 OA
BRANCH  24  25
ATOM     25  C   UNL     1       2.020   0.261   0.000  0.00  0.00    +0.000 C 
BRANCH  25  26
ATOM     26  C   UNL     1       2.845   0.261   0.000  0.00  0.00    +0.000 C 
BRANCH  26  27
ATOM     27  N   UNL     1       3.257  -0.453   0.000  0.00  0.00    +0.000 NA
BRANCH  27  28
ATOM     28  C   UNL     1       4.082  -0.453   0.000  0.00  0.00    +0.000 C 
ATOM     29  C   UNL     1       4.495  -1.168   0.000  0.00  0.00    +0.000 C 
ENDBRANCH  27  28
BRANCH  27  30
ATOM     30  C   UNL     1       2.845  -1.168   0.000  0.00  0.00    +0.000 C 
ATOM     31  C   UNL     1       3.257  -1.882   0.000  0.00  0.00    +0.000 C 
ENDBRANCH  27  30
ENDBRANCH  26  27
ENDBRANCH  25  26
ENDBRANCH  24  25
ENDBRANCH   6  24
TORSDOF 11
