REMARK  Name = 
REMARK  5 active torsions:
REMARK  status: ('A' for Active; 'I' for Inactive)
REMARK    1  A    between atoms: S_1  and  C_2
REMARK    2  A    between atoms: C_2  and  C_6
REMARK    3  A    between atoms: C_6  and  N_7
REMARK    4  A    between atoms: N_12  and  C_13
REMARK    5  A    between atoms: C_13  and  C_14
REMARK                            x       y       z     vdW  Elec       q    Type
REMARK                         _______ _______ _______ _____ _____    ______ ____
ROOT
ATOM      1  N   UNL     1       0.412  -0.412   0.000  0.00  0.00    +0.000 NA
ATOM      2  C   UNL     1       0.000  -1.127   0.000  0.00  0.00    +0.000 C 
ATOM      3  C   UNL     1       0.000   0.302   0.000  0.00  0.00    +0.000 C 
ATOM      4  C   UNL     1      -0.825  -1.127   0.000  0.00  0.00    +0.000 C 
ATOM      5  C   UNL     1      -0.825   0.302   0.000  0.00  0.00    +0.000 C 
ATOM      6  N   UNL     1      -1.238  -0.412   0.000  0.00  0.00    +0.000 NA
ENDROOT
BRANCH   1   7
ATOM      7  C   UNL     1       1.238  -0.412   0.000  0.00  0.00    +0.000 C 
BRANCH   7   8
ATOM      8  C   UNL     1       1.650   0.302   0.000  0.00  0.00    +0.000 C 
BRANCH   8   9
ATOM      9  S   UNL     1       2.475   0.302   0.000  0.00  0.00    +0.000 S 
ATOM     10  O   UNL     1       3.300   0.302   0.000  0.00  0.00    +0.000 OA
ATOM     11  O   UNL     1       2.475   1.127   0.000  0.00  0.00    +0.000 OA
ATOM     12  O   UNL     1       2.475  -0.523   0.000  0.00  0.00    +0.000 OA
ENDBRANCH   8   9
ENDBRANCH   7   8
ENDBRANCH   1   7
BRANCH   6  13
ATOM     13  C   UNL     1      -2.063  -0.412   0.000  0.00  0.00    +0.000 C 
BRANCH  13  14
ATOM     14  C   UNL     1      -2.475   0.302   0.000  0.00  0.00    +0.000 C 
ATOM     15  O   UNL     1      -3.300   0.302   0.000  0.00  0.00    +0.000 OA
ENDBRANCH  13  14
ENDBRANCH   6  13
TORSDOF 5
