REMARK  Name = 
REMARK  6 active torsions:
REMARK  status: ('A' for Active; 'I' for Inactive)
REMARK    1  A    between atoms: C_3  and  C_13
REMARK    2  A    between atoms: C_5  and  C_7
REMARK    3  A    between atoms: N_15  and  C_16
REMARK    4  A    between atoms: C_21  and  C_22
REMARK    5  A    between atoms: C_25  and  C_30
REMARK    6  A    between atoms: C_30  and  N_31
REMARK                            x       y       z     vdW  Elec       q    Type
REMARK                         _______ _______ _______ _____ _____    ______ ____
ROOT
ATOM      1  C   UNL     1      -0.453  -0.969   0.000  0.00  0.00    +0.000 A 
ATOM      2  C   UNL     1      -1.278  -0.969   0.000  0.00  0.00    +0.000 A 
ATOM      3  C   UNL     1      -1.690  -0.255   0.000  0.00  0.00    +0.000 A 
ATOM      4  C   UNL     1      -1.278   0.460   0.000  0.00  0.00    +0.000 A 
ATOM      5  C   UNL     1      -0.453   0.460   0.000  0.00  0.00    +0.000 A 
ATOM      6  C   UNL     1      -0.040  -0.255   0.000  0.00  0.00    +0.000 A 
ENDROOT
BRANCH   6   7
ATOM      7  C   UNL     1       0.785  -0.255   0.000  0.00  0.00    +0.000 A 
ATOM      8  C   UNL     1       1.270   0.412   0.000  0.00  0.00    +0.000 A 
ATOM      9  N   UNL     1       2.054   0.158   0.000  0.00  0.00    +0.000 N 
ATOM     10  C   UNL     1       2.839   0.412   0.000  0.00  0.00    +0.000 A 
ATOM     11  C   UNL     1       3.324  -0.255   0.000  0.00  0.00    +0.000 A 
ATOM     12  S   UNL     1       2.839  -0.922   0.000  0.00  0.00    +0.000 S 
ATOM     13  C   UNL     1       2.054  -0.667   0.000  0.00  0.00    +0.000 A 
ATOM     14  N   UNL     1       1.270  -0.922   0.000  0.00  0.00    +0.000 NA
BRANCH  10  15
ATOM     15  C   UNL     1       3.094   1.197   0.000  0.00  0.00    +0.000 C 
BRANCH  15  16
ATOM     16  N   UNL     1       3.901   1.369   0.000  0.00  0.00    +0.000 NA
ATOM     17  C   UNL     1       4.156   2.153   0.000  0.00  0.00    +0.000 C 
ATOM     18  C   UNL     1       4.963   2.325   0.000  0.00  0.00    +0.000 C 
ATOM     19  O   UNL     1       5.515   1.712   0.000  0.00  0.00    +0.000 OA
ATOM     20  C   UNL     1       5.260   0.927   0.000  0.00  0.00    +0.000 C 
ATOM     21  C   UNL     1       4.453   0.756   0.000  0.00  0.00    +0.000 C 
ENDBRANCH  15  16
ENDBRANCH  10  15
ENDBRANCH   6   7
BRANCH   1  24
ATOM     22  C   UNL     1      -0.453  -2.398   0.000  0.00  0.00    +0.000 C 
ATOM     23  O   UNL     1      -1.278  -2.398   0.000  0.00  0.00    +0.000 OA
ATOM     24  N   UNL     1      -0.040  -1.684   0.000  0.00  0.00    +0.000 NA
BRANCH  22  27
ATOM     25  C   UNL     1      -1.183  -4.038   0.000  0.00  0.00    +0.000 C 
ATOM     26  C   UNL     1      -0.376  -3.866   0.000  0.00  0.00    +0.000 A 
ATOM     27  C   UNL     1      -0.040  -3.113   0.000  0.00  0.00    +0.000 A 
ATOM     28  S   UNL     1       0.780  -3.199   0.000  0.00  0.00    +0.000 S 
ATOM     29  C   UNL     1       0.952  -4.006   0.000  0.00  0.00    +0.000 A 
ATOM     30  N   UNL     1       0.237  -4.418   0.000  0.00  0.00    +0.000 NA
BRANCH  29  31
ATOM     31  C   UNL     1       1.705  -4.342   0.000  0.00  0.00    +0.000 A 
ATOM     32  C   UNL     1       2.373  -3.857   0.000  0.00  0.00    +0.000 A 
ATOM     33  C   UNL     1       3.126  -4.192   0.000  0.00  0.00    +0.000 A 
ATOM     34  C   UNL     1       3.213  -5.013   0.000  0.00  0.00    +0.000 A 
ATOM     35  N   UNL     1       2.545  -5.498   0.000  0.00  0.00    +0.000 NA
ATOM     36  C   UNL     1       1.792  -5.162   0.000  0.00  0.00    +0.000 A 
ENDBRANCH  29  31
ENDBRANCH  22  27
ENDBRANCH   1  24
TORSDOF 6
