REMARK  Name = 
REMARK  7 active torsions:
REMARK  status: ('A' for Active; 'I' for Inactive)
REMARK    1  A    between atoms: N_1  and  C_3
REMARK    2  A    between atoms: C_2  and  C_4
REMARK    3  A    between atoms: C_4  and  N_6
REMARK    4  A    between atoms: C_4  and  C_10
REMARK    5  A    between atoms: N_6  and  C_11
REMARK    6  A    between atoms: N_6  and  C_12
REMARK    7  A    between atoms: C_12  and  C_17
REMARK                            x       y       z     vdW  Elec       q    Type
REMARK                         _______ _______ _______ _____ _____    ______ ____
ROOT
ATOM      1  N   UNL     1      -1.072  -0.217   0.000  0.00  0.00    +0.000 NA
ATOM      2  C   UNL     1      -0.359   0.196   0.000  0.00  0.00    +0.000 C 
ATOM      3  O   UNL     1      -0.359   1.022   0.000  0.00  0.00    +0.000 OA
ENDROOT
BRANCH   1   4
ATOM      4  C   UNL     1      -1.790   0.196   0.000  0.00  0.00    +0.000 A 
ATOM      5  C   UNL     1      -2.499  -0.208   0.000  0.00  0.00    +0.000 A 
ATOM      6  C   UNL     1      -1.785   1.030   0.000  0.00  0.00    +0.000 A 
ATOM      7  C   UNL     1      -3.216   1.030   0.000  0.00  0.00    +0.000 A 
ATOM      8  C   UNL     1      -3.212   0.196   0.000  0.00  0.00    +0.000 A 
ATOM      9  C   UNL     1      -2.499   1.443   0.000  0.00  0.00    +0.000 A 
ATOM     10  C   UNL     1      -1.072   1.435   0.000  0.00  0.00    +0.000 C 
ATOM     11  C   UNL     1      -2.499  -1.034   0.000  0.00  0.00    +0.000 C 
ENDBRANCH   1   4
BRANCH   2  12
ATOM     12  C   UNL     1       0.355  -0.217   0.000  0.00  0.00    +0.000 C 
BRANCH  12  13
ATOM     13  C   UNL     1       0.355  -1.043   0.000  0.00  0.00    +0.000 C 
ATOM     14  C   UNL     1      -0.359  -1.456   0.000  0.00  0.00    +0.000 C 
ENDBRANCH  12  13
BRANCH  12  15
ATOM     15  N   UNL     1       1.064   0.204   0.000  0.00  0.00    +0.000 NA
BRANCH  15  16
ATOM     16  C   UNL     1       1.055   1.030   0.000  0.00  0.00    +0.000 C 
ATOM     17  C   UNL     1       1.769   1.456   0.000  0.00  0.00    +0.000 C 
ENDBRANCH  15  16
BRANCH  15  18
ATOM     18  C   UNL     1       1.781  -0.196   0.000  0.00  0.00    +0.000 C 
BRANCH  18  19
ATOM     19  C   UNL     1       2.494   0.217   0.000  0.00  0.00    +0.000 C 
ATOM     20  C   UNL     1       3.216  -0.183   0.000  0.00  0.00    +0.000 C 
ENDBRANCH  18  19
ENDBRANCH  15  18
ENDBRANCH  12  15
ENDBRANCH   2  12
TORSDOF 7
