REMARK  Name = 
REMARK  1 active torsions:
REMARK  status: ('A' for Active; 'I' for Inactive)
REMARK    1  A    between atoms: C_6  and  C_10
REMARK                            x       y       z     vdW  Elec       q    Type
REMARK                         _______ _______ _______ _____ _____    ______ ____
ROOT
ATOM      1  C   UNL     1       0.884  -2.150   0.000  0.00  0.00    +0.000 C 
ATOM      2  O   UNL     1       1.436  -2.763   0.000  0.00  0.00    +0.000 OA
ATOM      3  N   UNL     1       1.139  -1.365   0.000  0.00  0.00    +0.000 N 
ATOM      4  C   UNL     1       0.654  -0.698   0.000  0.00  0.00    +0.000 C 
ATOM      5  S   UNL     1       1.139  -0.030   0.000  0.00  0.00    +0.000 S 
ATOM      6  O   UNL     1       0.424   0.382   0.000  0.00  0.00    +0.000 OA
ATOM      7  O   UNL     1       1.474   0.723   0.000  0.00  0.00    +0.000 OA
ATOM      8  C   UNL     1       1.923  -0.285   0.000  0.00  0.00    +0.000 A 
ATOM      9  C   UNL     1       2.638   0.127   0.000  0.00  0.00    +0.000 A 
ATOM     10  C   UNL     1       3.352  -0.285   0.000  0.00  0.00    +0.000 A 
ATOM     11  C   UNL     1       3.352  -1.110   0.000  0.00  0.00    +0.000 A 
ATOM     12  C   UNL     1       2.638  -1.523   0.000  0.00  0.00    +0.000 A 
ATOM     13  C   UNL     1       1.923  -1.110   0.000  0.00  0.00    +0.000 A 
ENDROOT
BRANCH   1  19
ATOM     14  O   UNL     1      -2.344  -2.836   0.000  0.00  0.00    +0.000 OA
ATOM     15  C   UNL     1      -1.537  -2.665   0.000  0.00  0.00    +0.000 A 
ATOM     16  C   UNL     1      -1.282  -1.880   0.000  0.00  0.00    +0.000 A 
ATOM     17 CL   UNL     1      -1.834  -1.267   0.000  0.00  0.00    +0.000 Cl
ATOM     18  C   UNL     1      -0.475  -1.708   0.000  0.00  0.00    +0.000 A 
ATOM     19  C   UNL     1       0.077  -2.321   0.000  0.00  0.00    +0.000 A 
ATOM     20  C   UNL     1      -0.178  -3.106   0.000  0.00  0.00    +0.000 A 
ATOM     21  C   UNL     1      -0.985  -3.278   0.000  0.00  0.00    +0.000 A 
ATOM     22 CL   UNL     1      -1.240  -4.062   0.000  0.00  0.00    +0.000 Cl
ENDBRANCH   1  19
TORSDOF 1
