REMARK  Name = 
REMARK  26 active torsions:
REMARK  status: ('A' for Active; 'I' for Inactive)
REMARK    1  A    between atoms: N_3  and  C_4
REMARK    2  A    between atoms: C_15  and  C_38
REMARK    3  A    between atoms: C_18  and  C_37
REMARK    4  A    between atoms: C_19  and  O_35
REMARK    5  A    between atoms: C_20  and  C_41
REMARK    6  A    between atoms: P_22  and  O_35
REMARK    7  A    between atoms: P_22  and  O_50
REMARK    8  A    between atoms: C_27  and  C_42
REMARK    9  A    between atoms: C_29  and  C_43
REMARK   10  A    between atoms: C_31  and  C_51
REMARK   11  A    between atoms: C_32  and  C_45
REMARK   12  A    between atoms: C_33  and  C_84
REMARK   13  A    between atoms: C_37  and  C_66
REMARK   14  A    between atoms: C_38  and  C_46
REMARK   15  A    between atoms: C_41  and  C_47
REMARK   16  A    between atoms: C_42  and  C_67
REMARK   17  A    between atoms: C_43  and  C_68
REMARK   18  A    between atoms: C_45  and  C_69
REMARK   19  A    between atoms: C_49  and  C_51
REMARK   20  A    between atoms: O_50  and  C_70
REMARK   21  A    between atoms: C_52  and  C_66
REMARK   22  A    between atoms: C_54  and  C_68
REMARK   23  A    between atoms: C_55  and  C_69
REMARK   24  A    between atoms: C_56  and  C_67
REMARK   25  A    between atoms: N_57  and  C_81
REMARK   26  A    between atoms: C_70  and  C_81
REMARK                            x       y       z     vdW  Elec       q    Type
REMARK                         _______ _______ _______ _____ _____    ______ ____
ROOT
ATOM      1  C   UNL     1      -1.734   2.213   0.000  0.00  0.00    +0.000 C 
ATOM      2  C   UNL     1      -3.316  -1.088   0.000  0.00  0.00    +0.000 C 
ATOM      3  C   UNL     1      -3.393   2.122   0.000  0.00  0.00    +0.000 C 
ATOM      4  C   UNL     1      -1.628  -1.042   0.000  0.00  0.00    +0.000 C 
ATOM      5  N   UNL     1      -3.393   1.209   0.000  0.00  0.00    +0.000 NA
ATOM      6  N   UNL     1      -1.734   1.209   0.000  0.00  0.00    +0.000 NA
ATOM      7  N   UNL     1      -1.628  -0.129   0.000  0.00  0.00    +0.000 NA
ATOM      8  N   UNL     1      -3.347  -0.144   0.000  0.00  0.00    +0.000 NA
ATOM      9  C   UNL     1      -4.321   1.209   0.000  0.00  0.00    +0.000 C 
ATOM     10  C   UNL     1      -0.487  -0.129   0.000  0.00  0.00    +0.000 C 
ATOM     11  C   UNL     1      -2.586   2.624   0.000  0.00  0.00    +0.000 C 
ATOM     12  C   UNL     1      -2.343  -1.422   0.000  0.00  0.00    +0.000 C 
ATOM     13  C   UNL     1      -0.867   2.609   0.000  0.00  0.00    +0.000 C 
ATOM     14  C   UNL     1      -0.624   1.209   0.000  0.00  0.00    +0.000 C 
ATOM     15  C   UNL     1      -3.940  -1.529   0.000  0.00  0.00    +0.000 C 
ATOM     16  C   UNL     1      -4.762   1.848   0.000  0.00  0.00    +0.000 C 
ATOM     17  C   UNL     1      -0.091   0.570   0.000  0.00  0.00    +0.000 C 
ATOM     18  C   UNL     1      -4.290  -0.099   0.000  0.00  0.00    +0.000 C 
ATOM     19  C   UNL     1      -4.184   2.563   0.000  0.00  0.00    +0.000 C 
ATOM     20  C   UNL     1      -0.106  -0.753   0.000  0.00  0.00    +0.000 C 
ATOM     21  C   UNL     1      -0.669  -1.346   0.000  0.00  0.00    +0.000 C 
ATOM     22  C   UNL     1      -4.640  -0.799   0.000  0.00  0.00    +0.000 C 
ATOM     23  C   UNL     1      -0.335   2.016   0.000  0.00  0.00    +0.000 C 
ATOM     24  C   UNL     1      -2.343  -2.046   0.000  0.00  0.00    +0.000 C 
ATOM     25  C   UNL     1      -2.586   3.507   0.000  0.00  0.00    +0.000 C 
ATOM     26  C   UNL     1      -0.943   4.069   0.000  0.00  0.00    +0.000 C 
ATOM     27  C   UNL     1      -5.157   0.662   0.000  0.00  0.00    +0.000 C 
ATOM     28  C   UNL     1      -4.549  -1.985   0.000  0.00  0.00    +0.000 C 
ATOM     29  C   UNL     1      -5.674   1.575   0.000  0.00  0.00    +0.000 C 
ATOM     30  C   UNL     1       0.365   0.008   0.000  0.00  0.00    +0.000 C 
ATOM     31  C   UNL     1       0.913  -0.753   0.000  0.00  0.00    +0.000 C 
ENDROOT
BRANCH  23  32
ATOM     32  C   UNL     1       0.776   1.818   0.000  0.00  0.00    +0.000 C 
BRANCH  32  33
ATOM     33  C   UNL     1       1.460   2.213   0.000  0.00  0.00    +0.000 C 
BRANCH  33  34
ATOM     34  C   UNL     1       2.038   1.848   0.000  0.00  0.00    +0.000 C 
ATOM     35  O   UNL     1       2.038   1.073   0.000  0.00  0.00    +0.000 OA
ATOM     36  N   UNL     1       2.693   2.229   0.000  0.00  0.00    +0.000 N 
ATOM     37  H   UNL     1       3.164   1.955   0.000  0.00  0.00    +0.000 HD
ATOM     38  H   UNL     1       2.693   2.776   0.000  0.00  0.00    +0.000 HD
ENDBRANCH  33  34
ENDBRANCH  32  33
ENDBRANCH  23  32
BRANCH  21  39
ATOM     39  C   UNL     1      -0.487  -1.955   0.000  0.00  0.00    +0.000 C 
BRANCH  39  40
ATOM     40  C   UNL     1       0.182  -2.289   0.000  0.00  0.00    +0.000 C 
BRANCH  40  41
ATOM     41  C   UNL     1       0.684  -1.909   0.000  0.00  0.00    +0.000 C 
ATOM     42  O   UNL     1       0.700  -1.270   0.000  0.00  0.00    +0.000 OA
ATOM     43  N   UNL     1       1.354  -2.107   0.000  0.00  0.00    +0.000 N 
ATOM     44  H   UNL     1       1.491  -2.655   0.000  0.00  0.00    +0.000 HD
ATOM     45  H   UNL     1       1.749  -1.727   0.000  0.00  0.00    +0.000 HD
ENDBRANCH  40  41
ENDBRANCH  39  40
ENDBRANCH  21  39
BRANCH  19  46
ATOM     46  C   UNL     1      -4.184   3.278   0.000  0.00  0.00    +0.000 C 
BRANCH  46  47
ATOM     47  C   UNL     1      -4.944   3.613   0.000  0.00  0.00    +0.000 C 
BRANCH  47  48
ATOM     48  C   UNL     1      -4.914   4.328   0.000  0.00  0.00    +0.000 C 
ATOM     49  O   UNL     1      -4.260   4.785   0.000  0.00  0.00    +0.000 OA
ATOM     50  N   UNL     1      -5.690   4.663   0.000  0.00  0.00    +0.000 N 
ATOM     51  H   UNL     1      -5.735   5.210   0.000  0.00  0.00    +0.000 HD
ATOM     52  H   UNL     1      -6.131   4.343   0.000  0.00  0.00    +0.000 HD
ENDBRANCH  47  48
ENDBRANCH  46  47
ENDBRANCH  19  46
BRANCH  16  53
ATOM     53  C   UNL     1      -5.477   2.365   0.000  0.00  0.00    +0.000 C 
BRANCH  53  54
ATOM     54  C   UNL     1      -6.374   2.365   0.000  0.00  0.00    +0.000 C 
ATOM     55  O   UNL     1      -6.815   3.141   0.000  0.00  0.00    +0.000 OA
ATOM     56  N   UNL     1      -6.815   1.605   0.000  0.00  0.00    +0.000 N 
ATOM     57  H   UNL     1      -7.363   1.605   0.000  0.00  0.00    +0.000 HD
ATOM     58  H   UNL     1      -6.542   1.133   0.000  0.00  0.00    +0.000 HD
ENDBRANCH  53  54
ENDBRANCH  16  53
BRANCH  13  59
ATOM     59  C   UNL     1       0.091   3.339   0.000  0.00  0.00    +0.000 C 
BRANCH  59  60
ATOM     60  C   UNL     1       0.745   2.974   0.000  0.00  0.00    +0.000 C 
ATOM     61  O   UNL     1       0.745   2.396   0.000  0.00  0.00    +0.000 OA
ATOM     62  N   UNL     1       1.308   3.294   0.000  0.00  0.00    +0.000 N 
ATOM     63  H   UNL     1       1.795   3.020   0.000  0.00  0.00    +0.000 HD
ATOM     64  H   UNL     1       1.308   3.841   0.000  0.00  0.00    +0.000 HD
ENDBRANCH  59  60
ENDBRANCH  13  59
BRANCH  15  65
ATOM     65  C   UNL     1      -3.940  -2.898   0.000  0.00  0.00    +0.000 C 
BRANCH  65  66
ATOM     66  C   UNL     1      -3.393  -3.309   0.000  0.00  0.00    +0.000 C 
BRANCH  66  67
ATOM     67  C   UNL     1      -2.906  -3.020   0.000  0.00  0.00    +0.000 C 
ATOM     68  N   UNL     1      -2.145  -3.309   0.000  0.00  0.00    +0.000 N 
ATOM     69  O   UNL     1      -2.906  -2.289   0.000  0.00  0.00    +0.000 OA
ATOM     70  H   UNL     1      -2.099  -3.856   0.000  0.00  0.00    +0.000 HD
BRANCH  68  71
ATOM     71  C   UNL     1      -1.415  -2.944   0.000  0.00  0.00    +0.000 C 
BRANCH  71  72
ATOM     72  C   UNL     1      -0.700  -3.278   0.000  0.00  0.00    +0.000 C 
ATOM     73  C   UNL     1      -1.004  -4.206   0.000  0.00  0.00    +0.000 C 
BRANCH  72  74
ATOM     74  O   UNL     1       0.122  -2.944   0.000  0.00  0.00    +0.000 OA
BRANCH  74  75
ATOM     75  P   UNL     1       1.034  -3.628   0.000  0.00  0.00    +0.000 P 
ATOM     76  O   UNL     1      -0.426  -5.104   0.000  0.00  0.00    +0.000 OA
ATOM     77  O   UNL     1       1.339  -4.845   0.000  0.00  0.00    +0.000 OA
BRANCH  75  78
ATOM     78  O   UNL     1       2.297  -3.613   0.000  0.00  0.00    +0.000 OA
BRANCH  78  81
ATOM     79  C   UNL     1       4.625  -2.852   0.000  0.00  0.00    +0.000 C 
ATOM     80  C   UNL     1       3.788  -2.837   0.000  0.00  0.00    +0.000 C 
ATOM     81  C   UNL     1       3.408  -3.613   0.000  0.00  0.00    +0.000 C 
ATOM     82  O   UNL     1       4.838  -3.720   0.000  0.00  0.00    +0.000 OA
ATOM     83  C   UNL     1       4.168  -4.191   0.000  0.00  0.00    +0.000 C 
ATOM     84  O   UNL     1       3.393  -2.076   0.000  0.00  0.00    +0.000 OA
BRANCH  79  85
ATOM     85  N   UNL     1       4.609  -1.590   0.000  0.00  0.00    +0.000 N 
ATOM     86  C   UNL     1       5.294  -1.194   0.000  0.00  0.00    +0.000 A 
ATOM     87  C   UNL     1       3.971  -1.179   0.000  0.00  0.00    +0.000 A 
ATOM     88  N   UNL     1       3.955  -0.403   0.000  0.00  0.00    +0.000 NA
ATOM     89  C   UNL     1       5.309  -0.403   0.000  0.00  0.00    +0.000 A 
ATOM     90  C   UNL     1       6.100  -1.575   0.000  0.00  0.00    +0.000 A 
ATOM     91  C   UNL     1       6.009  -0.068   0.000  0.00  0.00    +0.000 A 
ATOM     92  C   UNL     1       6.755  -1.240   0.000  0.00  0.00    +0.000 A 
ATOM     93  C   UNL     1       6.755  -0.449   0.000  0.00  0.00    +0.000 A 
ATOM     94  C   UNL     1       7.363  -1.575   0.000  0.00  0.00    +0.000 C 
ATOM     95  C   UNL     1       7.348  -0.129   0.000  0.00  0.00    +0.000 C 
ENDBRANCH  79  85
BRANCH  83  96
ATOM     96  C   UNL     1       4.168  -4.861   0.000  0.00  0.00    +0.000 C 
ATOM     97  O   UNL     1       4.990  -5.210   0.000  0.00  0.00    +0.000 OA
ENDBRANCH  83  96
ENDBRANCH  78  81
ENDBRANCH  75  78
ENDBRANCH  74  75
ENDBRANCH  72  74
ENDBRANCH  71  72
ENDBRANCH  68  71
ENDBRANCH  66  67
ENDBRANCH  65  66
ENDBRANCH  15  65
BRANCH  22  98
ATOM     98  C   UNL     1      -5.385  -0.418   0.000  0.00  0.00    +0.000 C 
BRANCH  98  99
ATOM     99  C   UNL     1      -6.024  -0.814   0.000  0.00  0.00    +0.000 C 
ATOM    100  O   UNL     1      -6.040  -1.529   0.000  0.00  0.00    +0.000 OA
ATOM    101  N   UNL     1      -6.785  -0.464   0.000  0.00  0.00    +0.000 N 
ATOM    102  H   UNL     1      -6.831   0.084   0.000  0.00  0.00    +0.000 HD
ATOM    103  H   UNL     1      -7.241  -0.783   0.000  0.00  0.00    +0.000 HD
ENDBRANCH  98  99
ENDBRANCH  22  98
TORSDOF 26
REMARK  Name = 
REMARK  26 active torsions:
REMARK  status: ('A' for Active; 'I' for Inactive)
REMARK    1  A    between atoms: N_3  and  C_4
REMARK    2  A    between atoms: C_15  and  C_38
REMARK    3  A    between atoms: C_18  and  C_37
REMARK    4  A    between atoms: C_19  and  O_35
REMARK    5  A    between atoms: C_20  and  C_41
REMARK    6  A    between atoms: P_22  and  O_35
REMARK    7  A    between atoms: P_22  and  O_50
REMARK    8  A    between atoms: C_27  and  C_42
REMARK    9  A    between atoms: C_29  and  C_43
REMARK   10  A    between atoms: C_31  and  C_51
REMARK   11  A    between atoms: C_32  and  C_45
REMARK   12  A    between atoms: C_33  and  C_84
REMARK   13  A    between atoms: C_37  and  C_66
REMARK   14  A    between atoms: C_38  and  C_46
REMARK   15  A    between atoms: C_41  and  C_47
REMARK   16  A    between atoms: C_42  and  C_67
REMARK   17  A    between atoms: C_43  and  C_68
REMARK   18  A    between atoms: C_45  and  C_69
REMARK   19  A    between atoms: C_49  and  C_51
REMARK   20  A    between atoms: O_50  and  C_70
REMARK   21  A    between atoms: C_52  and  C_66
REMARK   22  A    between atoms: C_54  and  C_68
REMARK   23  A    between atoms: C_55  and  C_69
REMARK   24  A    between atoms: C_56  and  C_67
REMARK   25  A    between atoms: N_57  and  C_81
REMARK   26  A    between atoms: C_70  and  C_81
REMARK                            x       y       z     vdW  Elec       q    Type
REMARK                         _______ _______ _______ _____ _____    ______ ____
ROOT
ATOM      1 CO   UNL     1      -2.769   0.586   0.000  0.00  0.00    +0.000 Co
ENDROOT
TORSDOF 0
