REMARK  Name = 
REMARK  7 active torsions:
REMARK  status: ('A' for Active; 'I' for Inactive)
REMARK    1  A    between atoms: C_1  and  C_2
REMARK    2  A    between atoms: C_1  and  C_4
REMARK    3  A    between atoms: C_2  and  O_5
REMARK    4  A    between atoms: C_4  and  O_6
REMARK    5  A    between atoms: O_5  and  C_9
REMARK    6  A    between atoms: O_6  and  C_10
REMARK    7  A    between atoms: C_10  and  C_17
REMARK                            x       y       z     vdW  Elec       q    Type
REMARK                         _______ _______ _______ _____ _____    ______ ____
ROOT
ATOM      1  C   UNL     1       1.067   0.838   0.000  0.00  0.00    +0.000 C 
ATOM      2  C   UNL     1       0.352   0.422   0.000  0.00  0.00    +0.000 C 
ATOM      3  C   UNL     1       1.779   0.422   0.000  0.00  0.00    +0.000 C 
ATOM      4  C   UNL     1       0.352   1.247   0.000  0.00  0.00    +0.000 C 
ATOM      5  C   UNL     1       0.352  -0.411   0.000  0.00  0.00    +0.000 C 
ATOM      6  C   UNL     1      -0.360   0.838   0.000  0.00  0.00    +0.000 C 
ATOM      7  C   UNL     1       1.779  -0.411   0.000  0.00  0.00    +0.000 C 
ATOM      8  C   UNL     1      -0.360  -0.827   0.000  0.00  0.00    +0.000 C 
ATOM      9  C   UNL     1      -1.073   0.422   0.000  0.00  0.00    +0.000 C 
ATOM     10  C   UNL     1      -1.073  -0.411   0.000  0.00  0.00    +0.000 C 
ATOM     11  C   UNL     1      -0.360  -1.659   0.000  0.00  0.00    +0.000 C 
ATOM     12  O   UNL     1      -1.788   0.833   0.000  0.00  0.00    +0.000 OA
ATOM     13  C   UNL     1      -1.786  -0.827   0.000  0.00  0.00    +0.000 C 
ATOM     14  C   UNL     1      -1.073  -2.074   0.000  0.00  0.00    +0.000 C 
ATOM     15  C   UNL     1      -1.786  -0.002   0.000  0.00  0.00    +0.000 C 
ATOM     16  C   UNL     1      -1.786  -1.659   0.000  0.00  0.00    +0.000 C 
ATOM     17  C   UNL     1      -2.498  -0.411   0.000  0.00  0.00    +0.000 C 
ATOM     18  C   UNL     1      -1.073  -2.900   0.000  0.00  0.00    +0.000 C 
ATOM     19  C   UNL     1      -2.498  -2.074   0.000  0.00  0.00    +0.000 C 
ATOM     20  C   UNL     1      -3.211  -0.827   0.000  0.00  0.00    +0.000 C 
ATOM     21  C   UNL     1      -3.211  -1.659   0.000  0.00  0.00    +0.000 C 
ATOM     22  O   UNL     1      -3.925  -2.070   0.000  0.00  0.00    +0.000 OA
ENDROOT
BRANCH   1  23
ATOM     23  C   UNL     1       1.067   1.663   0.000  0.00  0.00    +0.000 C 
ATOM     24  O   UNL     1       0.350   2.074   0.000  0.00  0.00    +0.000 OA
BRANCH  23  25
ATOM     25  C   UNL     1       1.781   2.074   0.000  0.00  0.00    +0.000 C 
BRANCH  25  26
ATOM     26  O   UNL     1       2.496   1.663   0.000  0.00  0.00    +0.000 OA
BRANCH  26  27
ATOM     27  C   UNL     1       3.211   2.074   0.000  0.00  0.00    +0.000 C 
ATOM     28  C   UNL     1       3.925   1.663   0.000  0.00  0.00    +0.000 C 
ATOM     29  O   UNL     1       3.211   2.900   0.000  0.00  0.00    +0.000 OA
ENDBRANCH  26  27
ENDBRANCH  25  26
ENDBRANCH  23  25
ENDBRANCH   1  23
BRANCH   1  30
ATOM     30  O   UNL     1       1.781   1.249   0.000  0.00  0.00    +0.000 OA
BRANCH  30  31
ATOM     31  C   UNL     1       2.496   0.838   0.000  0.00  0.00    +0.000 C 
ATOM     32  O   UNL     1       2.496   0.012   0.000  0.00  0.00    +0.000 OA
BRANCH  31  33
ATOM     33  C   UNL     1       3.211   1.249   0.000  0.00  0.00    +0.000 C 
ATOM     34  C   UNL     1       3.925   0.838   0.000  0.00  0.00    +0.000 C 
ENDBRANCH  31  33
ENDBRANCH  30  31
ENDBRANCH   1  30
TORSDOF 7
