REMARK  Name = 
REMARK  3 active torsions:
REMARK  status: ('A' for Active; 'I' for Inactive)
REMARK    1  A    between atoms: N_3  and  C_9
REMARK    2  A    between atoms: C_10  and  C_17
REMARK    3  A    between atoms: C_12  and  C_14
REMARK                            x       y       z     vdW  Elec       q    Type
REMARK                         _______ _______ _______ _____ _____    ______ ____
ROOT
ATOM      1  C   UNL     1      -1.322   2.290   0.000  0.00  0.00    +0.000 C 
ATOM      2  C   UNL     1      -0.655   1.805   0.000  0.00  0.00    +0.000 C 
ATOM      3  C   UNL     1      -0.910   1.021   0.000  0.00  0.00    +0.000 C 
ATOM      4  C   UNL     1      -1.735   1.021   0.000  0.00  0.00    +0.000 C 
ATOM      5  O   UNL     1      -1.990   1.805   0.000  0.00  0.00    +0.000 OA
ATOM      6  O   UNL     1      -0.425   0.353   0.000  0.00  0.00    +0.000 OA
ENDROOT
BRANCH   1   9
ATOM      7  C   UNL     1      -0.608   4.353   0.000  0.00  0.00    +0.000 A 
ATOM      8  C   UNL     1      -0.608   3.528   0.000  0.00  0.00    +0.000 A 
ATOM      9  N   UNL     1      -1.322   3.115   0.000  0.00  0.00    +0.000 N 
ATOM     10  C   UNL     1      -2.037   3.528   0.000  0.00  0.00    +0.000 A 
ATOM     11  O   UNL     1      -2.751   3.115   0.000  0.00  0.00    +0.000 OA
ATOM     12  N   UNL     1      -2.037   4.353   0.000  0.00  0.00    +0.000 NA
ATOM     13  C   UNL     1      -1.322   4.765   0.000  0.00  0.00    +0.000 A 
ATOM     14  N   UNL     1      -1.322   5.590   0.000  0.00  0.00    +0.000 NA
ENDBRANCH   1   9
BRANCH   4  15
ATOM     15  C   UNL     1      -2.220   0.353   0.000  0.00  0.00    +0.000 C 
ATOM     16  O   UNL     1      -1.884  -0.401   0.000  0.00  0.00    +0.000 OA
ENDBRANCH   4  15
BRANCH   2  17
ATOM     17  C   UNL     1       0.130   2.060   0.000  0.00  0.00    +0.000 C 
ATOM     18  N   UNL     1       0.914   2.315   0.000  0.00  0.00    +0.000 NA
ENDBRANCH   2  17
TORSDOF 3
