REMARK  Name = 
REMARK  5 active torsions:
REMARK  status: ('A' for Active; 'I' for Inactive)
REMARK    1  A    between atoms: N_1  and  C_15
REMARK    2  A    between atoms: C_15  and  C_16
REMARK    3  A    between atoms: C_16  and  N_18
REMARK    4  A    between atoms: N_18  and  C_19
REMARK    5  A    between atoms: C_19  and  C_22
REMARK                            x       y       z     vdW  Elec       q    Type
REMARK                         _______ _______ _______ _____ _____    ______ ____
ROOT
ATOM      1  N   UNL     1      -0.848  -0.626   0.000  0.00  0.00    +0.000 N 
ATOM      2  S   UNL     1      -0.848  -2.276   0.000  0.00  0.00    +0.000 S 
ATOM      3  C   UNL     1      -2.992  -1.038   0.000  0.00  0.00    +0.000 A 
ATOM      4  C   UNL     1      -2.992  -1.863   0.000  0.00  0.00    +0.000 A 
ATOM      5  C   UNL     1      -2.277  -2.276   0.000  0.00  0.00    +0.000 A 
ATOM      6  C   UNL     1      -1.563  -1.863   0.000  0.00  0.00    +0.000 A 
ATOM      7  C   UNL     1      -1.563  -1.038   0.000  0.00  0.00    +0.000 A 
ATOM      8  C   UNL     1      -2.277  -0.626   0.000  0.00  0.00    +0.000 A 
ATOM      9  C   UNL     1       0.581  -0.626   0.000  0.00  0.00    +0.000 A 
ATOM     10  C   UNL     1      -0.134  -1.038   0.000  0.00  0.00    +0.000 A 
ATOM     11  C   UNL     1      -0.134  -1.863   0.000  0.00  0.00    +0.000 A 
ATOM     12  C   UNL     1       0.581  -2.276   0.000  0.00  0.00    +0.000 A 
ATOM     13  C   UNL     1       1.295  -1.863   0.000  0.00  0.00    +0.000 A 
ATOM     14  C   UNL     1       1.295  -1.038   0.000  0.00  0.00    +0.000 A 
ENDROOT
BRANCH   1  15
ATOM     15  C   UNL     1      -0.848   0.199   0.000  0.00  0.00    +0.000 C 
BRANCH  15  16
ATOM     16  C   UNL     1      -1.563   0.612   0.000  0.00  0.00    +0.000 C 
ATOM     17  C   UNL     1      -2.277   0.199   0.000  0.00  0.00    +0.000 C 
BRANCH  16  18
ATOM     18  N   UNL     1      -1.563   1.437   0.000  0.00  0.00    +0.000 N 
ATOM     19  C   UNL     1      -0.848   1.849   0.000  0.00  0.00    +0.000 C 
ATOM     20  C   UNL     1      -1.563   2.261   0.000  0.00  0.00    +0.000 C 
BRANCH  18  21
ATOM     21  C   UNL     1      -2.277   1.849   0.000  0.00  0.00    +0.000 C 
BRANCH  21  22
ATOM     22  C   UNL     1      -2.992   1.437   0.000  0.00  0.00    +0.000 C 
ATOM     23  O   UNL     1      -3.706   1.849   0.000  0.00  0.00    +0.000 OA
ENDBRANCH  21  22
ENDBRANCH  18  21
ENDBRANCH  16  18
ENDBRANCH  15  16
ENDBRANCH   1  15
TORSDOF 5
