REMARK  Name = 
REMARK  19 active torsions:
REMARK  status: ('A' for Active; 'I' for Inactive)
REMARK    1  A    between atoms: C_1  and  C_2
REMARK    2  A    between atoms: C_2  and  C_5
REMARK    3  A    between atoms: N_3  and  C_7
REMARK    4  A    between atoms: C_5  and  C_33
REMARK    5  A    between atoms: C_7  and  C_10
REMARK    6  A    between atoms: C_10  and  C_11
REMARK    7  A    between atoms: N_12  and  C_14
REMARK    8  A    between atoms: C_14  and  C_15
REMARK    9  A    between atoms: C_15  and  S_16
REMARK   10  A    between atoms: S_16  and  S_17
REMARK   11  A    between atoms: S_17  and  C_32
REMARK   12  A    between atoms: C_18  and  C_19
REMARK   13  A    between atoms: C_19  and  C_22
REMARK   14  A    between atoms: N_20  and  C_24
REMARK   15  A    between atoms: C_22  and  C_35
REMARK   16  A    between atoms: C_24  and  C_27
REMARK   17  A    between atoms: C_27  and  C_28
REMARK   18  A    between atoms: N_29  and  C_31
REMARK   19  A    between atoms: C_31  and  C_32
REMARK                            x       y       z     vdW  Elec       q    Type
REMARK                         _______ _______ _______ _____ _____    ______ ____
ROOT
ATOM      1  S   UNL     1       0.359   0.200   0.000  0.00  0.00    +0.000 S 
ENDROOT
BRANCH   1   2
ATOM      2  S   UNL     1      -0.357  -0.208   0.000  0.00  0.00    +0.000 S 
BRANCH   2   3
ATOM      3  C   UNL     1      -1.069   0.208   0.000  0.00  0.00    +0.000 C 
BRANCH   3   4
ATOM      4  C   UNL     1      -1.786  -0.200   0.000  0.00  0.00    +0.000 C 
BRANCH   4   6
ATOM      5  C   UNL     1      -3.215  -0.191   0.000  0.00  0.00    +0.000 C 
ATOM      6  N   UNL     1      -2.498   0.217   0.000  0.00  0.00    +0.000 NA
ATOM      7  O   UNL     1      -3.220  -1.016   0.000  0.00  0.00    +0.000 OA
BRANCH   5   8
ATOM      8  C   UNL     1      -3.927   0.225   0.000  0.00  0.00    +0.000 C 
BRANCH   8   9
ATOM      9  C   UNL     1      -4.648  -0.183   0.000  0.00  0.00    +0.000 C 
BRANCH   9  11
ATOM     10  C   UNL     1      -6.261  -0.099   0.000  0.00  0.00    +0.000 C 
ATOM     11  N   UNL     1      -5.543   0.308   0.000  0.00  0.00    +0.000 NA
ATOM     12  O   UNL     1      -6.266  -0.921   0.000  0.00  0.00    +0.000 OA
BRANCH  10  13
ATOM     13  C   UNL     1      -6.976   0.321   0.000  0.00  0.00    +0.000 C 
ATOM     14  O   UNL     1      -6.971   1.146   0.000  0.00  0.00    +0.000 OA
BRANCH  13  15
ATOM     15  C   UNL     1      -7.693  -0.091   0.000  0.00  0.00    +0.000 C 
ATOM     16  C   UNL     1      -8.183  -0.740   0.000  0.00  0.00    +0.000 C 
ATOM     17  C   UNL     1      -7.284  -0.686   0.000  0.00  0.00    +0.000 C 
BRANCH  15  18
ATOM     18  C   UNL     1      -8.405   0.326   0.000  0.00  0.00    +0.000 C 
ATOM     19  O   UNL     1      -9.122  -0.083   0.000  0.00  0.00    +0.000 OA
ENDBRANCH  15  18
ENDBRANCH  13  15
ENDBRANCH  10  13
ENDBRANCH   9  11
ENDBRANCH   8   9
ENDBRANCH   5   8
ENDBRANCH   4   6
ENDBRANCH   3   4
ENDBRANCH   2   3
ENDBRANCH   1   2
BRANCH   1  20
ATOM     20  C   UNL     1       1.071  -0.217   0.000  0.00  0.00    +0.000 C 
BRANCH  20  21
ATOM     21  C   UNL     1       1.788   0.192   0.000  0.00  0.00    +0.000 C 
BRANCH  21  23
ATOM     22  C   UNL     1       3.217   0.183   0.000  0.00  0.00    +0.000 C 
ATOM     23  N   UNL     1       2.501  -0.225   0.000  0.00  0.00    +0.000 NA
ATOM     24  O   UNL     1       3.222   1.008   0.000  0.00  0.00    +0.000 OA
BRANCH  22  25
ATOM     25  C   UNL     1       3.929  -0.234   0.000  0.00  0.00    +0.000 C 
BRANCH  25  26
ATOM     26  C   UNL     1       4.650   0.175   0.000  0.00  0.00    +0.000 C 
BRANCH  26  28
ATOM     27  C   UNL     1       6.261   0.095   0.000  0.00  0.00    +0.000 C 
ATOM     28  N   UNL     1       5.546  -0.317   0.000  0.00  0.00    +0.000 NA
ATOM     29  O   UNL     1       6.261   0.916   0.000  0.00  0.00    +0.000 OA
BRANCH  27  30
ATOM     30  C   UNL     1       6.979  -0.321   0.000  0.00  0.00    +0.000 C 
ATOM     31  O   UNL     1       6.979  -1.146   0.000  0.00  0.00    +0.000 OA
BRANCH  30  32
ATOM     32  C   UNL     1       7.693   0.095   0.000  0.00  0.00    +0.000 C 
ATOM     33  C   UNL     1       8.179   0.747   0.000  0.00  0.00    +0.000 C 
ATOM     34  C   UNL     1       7.281   0.688   0.000  0.00  0.00    +0.000 C 
BRANCH  32  35
ATOM     35  C   UNL     1       8.408  -0.317   0.000  0.00  0.00    +0.000 C 
ATOM     36  O   UNL     1       9.122   0.095   0.000  0.00  0.00    +0.000 OA
ENDBRANCH  32  35
ENDBRANCH  30  32
ENDBRANCH  27  30
ENDBRANCH  26  28
ENDBRANCH  25  26
ENDBRANCH  22  25
ENDBRANCH  21  23
ENDBRANCH  20  21
ENDBRANCH   1  20
TORSDOF 19
