REMARK  Name = 
REMARK  12 active torsions:
REMARK  status: ('A' for Active; 'I' for Inactive)
REMARK    1  A    between atoms: C_1  and  CA_3
REMARK    2  A    between atoms: N_2  and  CA_3
REMARK    3  A    between atoms: CA_3  and  C_4
REMARK    4  A    between atoms: C_4  and  C_5
REMARK    5  A    between atoms: C_8  and  N_13
REMARK    6  A    between atoms: C_14  and  C_18
REMARK    7  A    between atoms: C_24  and  C_26
REMARK    8  A    between atoms: N_25  and  S_36
REMARK    9  A    between atoms: C_28  and  N_31
REMARK   10  A    between atoms: N_31  and  C_32
REMARK   11  A    between atoms: S_36  and  C_39
REMARK   12  A    between atoms: C_41  and  C_45
REMARK                            x       y       z     vdW  Elec       q    Type
REMARK                         _______ _______ _______ _____ _____    ______ ____
ROOT
ATOM      1  N   UNL     1      -0.788  -0.421   0.000  0.00  0.00    +0.000 NA
ATOM      2  C   UNL     1      -1.502  -0.008   0.000  0.00  0.00    +0.000 C 
ATOM      3  O   UNL     1      -1.502   0.817   0.000  0.00  0.00    +0.000 OA
ENDROOT
BRANCH   2   5
ATOM      4  N   UNL     1      -2.303  -1.241   0.000  0.00  0.00    +0.000 NA
ATOM      5  C   UNL     1      -2.217  -0.421   0.000  0.00  0.00    +0.000 C 
ATOM      6  C   UNL     1      -2.970  -0.085   0.000  0.00  0.00    +0.000 C 
ATOM      7  C   UNL     1      -3.522  -0.698   0.000  0.00  0.00    +0.000 C 
ATOM      8  C   UNL     1      -3.110  -1.413   0.000  0.00  0.00    +0.000 C 
BRANCH   4   9
ATOM      9  S   UNL     1      -1.690  -1.793   0.000  0.00  0.00    +0.000 S 
ATOM     10  O   UNL     1      -1.138  -1.180   0.000  0.00  0.00    +0.000 OA
ATOM     11  O   UNL     1      -2.242  -2.406   0.000  0.00  0.00    +0.000 OA
BRANCH   9  12
ATOM     12  C   UNL     1      -1.077  -2.345   0.000  0.00  0.00    +0.000 A 
ATOM     13  C   UNL     1      -0.292  -2.090   0.000  0.00  0.00    +0.000 A 
ATOM     14  C   UNL     1       0.321  -2.642   0.000  0.00  0.00    +0.000 A 
ATOM     15  C   UNL     1       0.149  -3.449   0.000  0.00  0.00    +0.000 A 
ATOM     16  C   UNL     1      -0.635  -3.704   0.000  0.00  0.00    +0.000 A 
ATOM     17  C   UNL     1      -1.248  -3.152   0.000  0.00  0.00    +0.000 A 
BRANCH  14  18
ATOM     18  C   UNL     1       1.106  -2.387   0.000  0.00  0.00    +0.000 C 
ATOM     19  N   UNL     1       1.890  -2.132   0.000  0.00  0.00    +0.000 NA
ENDBRANCH  14  18
ENDBRANCH   9  12
ENDBRANCH   4   9
BRANCH   7  20
ATOM     20  N   UNL     1      -4.343  -0.612   0.000  0.00  0.00    +0.000 NA
BRANCH  20  21
ATOM     21  C   UNL     1      -4.828  -1.279   0.000  0.00  0.00    +0.000 C 
ATOM     22  C   UNL     1      -5.643  -1.408   0.000  0.00  0.00    +0.000 C 
ATOM     23  C   UNL     1      -5.513  -2.223   0.000  0.00  0.00    +0.000 C 
ATOM     24  C   UNL     1      -4.699  -2.094   0.000  0.00  0.00    +0.000 C 
ENDBRANCH  20  21
ENDBRANCH   7  20
ENDBRANCH   2   5
BRANCH   1  25
ATOM     25  CA  UNL     1      -0.073  -0.008   0.000  0.00  0.00    +0.000 C 
BRANCH  25  26
ATOM     26  C   UNL     1       0.641  -0.421   0.000  0.00  0.00    +0.000 C 
ATOM     27  O   UNL     1       0.641  -1.246   0.000  0.00  0.00    +0.000 OA
ATOM     28  OXT UNL     1       1.356  -0.008   0.000  0.00  0.00    +0.000 OA
ENDBRANCH  25  26
BRANCH  25  29
ATOM     29  C   UNL     1      -0.073   0.817   0.000  0.00  0.00    +0.000 C 
BRANCH  29  30
ATOM     30  C   UNL     1       0.641   1.229   0.000  0.00  0.00    +0.000 A 
ATOM     31  C   UNL     1       1.356   0.817   0.000  0.00  0.00    +0.000 A 
ATOM     32  C   UNL     1       2.070   1.229   0.000  0.00  0.00    +0.000 A 
ATOM     33  C   UNL     1       2.070   2.054   0.000  0.00  0.00    +0.000 A 
ATOM     34  C   UNL     1       1.356   2.467   0.000  0.00  0.00    +0.000 A 
ATOM     35  C   UNL     1       0.641   2.054   0.000  0.00  0.00    +0.000 A 
BRANCH  33  36
ATOM     36  N   UNL     1       2.785   2.467   0.000  0.00  0.00    +0.000 NA
ATOM     37  C   UNL     1       3.499   2.054   0.000  0.00  0.00    +0.000 C 
ATOM     38  O   UNL     1       3.499   1.229   0.000  0.00  0.00    +0.000 OA
BRANCH  37  41
ATOM     39  C   UNL     1       4.928   3.704   0.000  0.00  0.00    +0.000 A 
ATOM     40  C   UNL     1       4.213   3.292   0.000  0.00  0.00    +0.000 A 
ATOM     41  C   UNL     1       4.213   2.467   0.000  0.00  0.00    +0.000 A 
ATOM     42  C   UNL     1       4.928   2.054   0.000  0.00  0.00    +0.000 A 
ATOM     43  C   UNL     1       5.643   2.467   0.000  0.00  0.00    +0.000 A 
ATOM     44  N   UNL     1       5.643   3.292   0.000  0.00  0.00    +0.000 NA
ATOM     45 CL   UNL     1       4.928   1.229   0.000  0.00  0.00    +0.000 Cl
ATOM     46 CL   UNL     1       3.499   3.704   0.000  0.00  0.00    +0.000 Cl
ENDBRANCH  37  41
ENDBRANCH  33  36
ENDBRANCH  29  30
ENDBRANCH  25  29
ENDBRANCH   1  25
TORSDOF 12
