REMARK  Name = 
REMARK  3 active torsions:
REMARK  status: ('A' for Active; 'I' for Inactive)
REMARK    1  A    between atoms: C_3  and  C_7
REMARK    2  A    between atoms: C_5  and  C_10
REMARK    3  A    between atoms: C_9  and  O_14
REMARK                            x       y       z     vdW  Elec       q    Type
REMARK                         _______ _______ _______ _____ _____    ______ ____
ROOT
ATOM      1  C   UNL     1      -0.357  -0.412   0.000  0.00  0.00    +0.000 A 
ATOM      2  C   UNL     1      -1.072  -0.825   0.000  0.00  0.00    +0.000 A 
ATOM      3  C   UNL     1      -1.072   0.825   0.000  0.00  0.00    +0.000 A 
ATOM      4  C   UNL     1      -0.357   0.412   0.000  0.00  0.00    +0.000 A 
ATOM      5  C   UNL     1      -1.786   0.412   0.000  0.00  0.00    +0.000 A 
ATOM      6  C   UNL     1      -1.786  -0.412   0.000  0.00  0.00    +0.000 A 
ATOM      7  O   UNL     1      -2.501   0.825   0.000  0.00  0.00    +0.000 OA
ENDROOT
BRANCH   6   9
ATOM      8  C   UNL     1      -2.501  -1.650   0.000  0.00  0.00    +0.000 C 
ATOM      9  O   UNL     1      -2.501  -0.825   0.000  0.00  0.00    +0.000 OA
ENDBRANCH   6   9
BRANCH   4  10
ATOM     10  C   UNL     1       0.357   0.825   0.000  0.00  0.00    +0.000 C 
ATOM     11  C   UNL     1       1.072   0.412   0.000  0.00  0.00    +0.000 C 
BRANCH  11  12
ATOM     12  C   UNL     1       1.786   0.825   0.000  0.00  0.00    +0.000 C 
ATOM     13  O   UNL     1       1.786   1.650   0.000  0.00  0.00    +0.000 OA
ATOM     14  O   UNL     1       2.501   0.412   0.000  0.00  0.00    +0.000 OA
ENDBRANCH  11  12
ENDBRANCH   4  10
TORSDOF 3
