REMARK  Name = 
REMARK  4 active torsions:
REMARK  status: ('A' for Active; 'I' for Inactive)
REMARK    1  A    between atoms: O_2  and  C_3
REMARK    2  A    between atoms: C_10  and  S_13
REMARK    3  A    between atoms: S_13  and  N_16
REMARK    4  A    between atoms: N_16  and  C_17
REMARK                            x       y       z     vdW  Elec       q    Type
REMARK                         _______ _______ _______ _____ _____    ______ ____
ROOT
ATOM      1  C   UNL     1       3.279   1.238   0.000  0.00  0.00    +0.000 A 
ATOM      2  N   UNL     1       3.993   0.825   0.000  0.00  0.00    +0.000 NA
ATOM      3  C   UNL     1       3.993   0.000   0.000  0.00  0.00    +0.000 A 
ATOM      4  C   UNL     1       3.279  -0.412   0.000  0.00  0.00    +0.000 A 
ATOM      5  F   UNL     1       3.279  -1.238   0.000  0.00  0.00    +0.000 F 
ATOM      6  C   UNL     1       2.564   0.000   0.000  0.00  0.00    +0.000 A 
ATOM      7  N   UNL     1       1.780  -0.255   0.000  0.00  0.00    +0.000 NA
ATOM      8  C   UNL     1       1.295   0.412   0.000  0.00  0.00    +0.000 A 
ATOM      9  N   UNL     1       1.780   1.080   0.000  0.00  0.00    +0.000 NA
ATOM     10  N   UNL     1       2.564   0.825   0.000  0.00  0.00    +0.000 N 
ENDROOT
BRANCH   8  11
ATOM     11  S   UNL     1       0.470   0.412   0.000  0.00  0.00    +0.000 S 
ATOM     12  O   UNL     1       0.470   1.238   0.000  0.00  0.00    +0.000 OA
ATOM     13  O   UNL     1       0.470  -0.412   0.000  0.00  0.00    +0.000 OA
BRANCH  11  14
ATOM     14  N   UNL     1      -0.355   0.412   0.000  0.00  0.00    +0.000 NA
BRANCH  14  15
ATOM     15  C   UNL     1      -0.768   1.127   0.000  0.00  0.00    +0.000 A 
ATOM     16  C   UNL     1      -1.593   1.127   0.000  0.00  0.00    +0.000 A 
ATOM     17  F   UNL     1      -2.005   0.412   0.000  0.00  0.00    +0.000 F 
ATOM     18  C   UNL     1      -2.005   1.841   0.000  0.00  0.00    +0.000 A 
ATOM     19  C   UNL     1      -1.593   2.556   0.000  0.00  0.00    +0.000 A 
ATOM     20  C   UNL     1      -0.768   2.556   0.000  0.00  0.00    +0.000 A 
ATOM     21  C   UNL     1      -0.355   1.841   0.000  0.00  0.00    +0.000 A 
ATOM     22  F   UNL     1       0.470   1.841   0.000  0.00  0.00    +0.000 F 
ENDBRANCH  14  15
ENDBRANCH  11  14
ENDBRANCH   8  11
BRANCH   1  24
ATOM     23  C   UNL     1       3.993   2.475   0.000  0.00  0.00    +0.000 C 
ATOM     24  O   UNL     1       3.279   2.062   0.000  0.00  0.00    +0.000 OA
ENDBRANCH   1  24
TORSDOF 4
