REMARK  Name = 
REMARK  1 active torsions:
REMARK  status: ('A' for Active; 'I' for Inactive)
REMARK    1  A    between atoms: C_2  and  N_3
REMARK                            x       y       z     vdW  Elec       q    Type
REMARK                         _______ _______ _______ _____ _____    ______ ____
ROOT
ATOM      1  N   UNL     1       0.155  -0.155   0.000  0.00  0.00    +0.000 N 
ATOM      2  C   UNL     1      -0.100   0.629   0.000  0.00  0.00    +0.000 C 
ATOM      3  O   UNL     1      -0.884   0.884   0.000  0.00  0.00    +0.000 OA
ATOM      4  C   UNL     1       0.568   1.114   0.000  0.00  0.00    +0.000 C 
ATOM      5  O   UNL     1       1.235   0.629   0.000  0.00  0.00    +0.000 OA
ATOM      6  C   UNL     1       0.980  -0.155   0.000  0.00  0.00    +0.000 C 
ATOM      7  O   UNL     1       1.465  -0.823   0.000  0.00  0.00    +0.000 OA
ATOM      8  C   UNL     1       0.163   1.833   0.000  0.00  0.00    +0.000 C 
ATOM      9  C   UNL     1       0.973   1.833   0.000  0.00  0.00    +0.000 C 
ENDROOT
BRANCH   1  11
ATOM     10  C   UNL     1       0.006  -1.576   0.000  0.00  0.00    +0.000 C 
ATOM     11  C   UNL     1      -0.330  -0.823   0.000  0.00  0.00    +0.000 C 
ENDBRANCH   1  11
TORSDOF 1
