REMARK  Name = 
REMARK  9 active torsions:
REMARK  status: ('A' for Active; 'I' for Inactive)
REMARK    1  A    between atoms: O_1  and  C_8
REMARK    2  A    between atoms: O_2  and  C_9
REMARK    3  A    between atoms: O_4  and  C_16
REMARK    4  A    between atoms: O_4  and  C_23
REMARK    5  A    between atoms: N_5  and  C_15
REMARK    6  A    between atoms: N_6  and  C_24
REMARK    7  A    between atoms: C_7  and  C_11
REMARK    8  A    between atoms: C_14  and  C_15
REMARK    9  A    between atoms: C_23  and  C_24
REMARK                            x       y       z     vdW  Elec       q    Type
REMARK                         _______ _______ _______ _____ _____    ______ ____
ROOT
ATOM      1  O   UNL     1       1.062   2.362   0.000  0.00  0.00    +0.000 OA
ATOM      2  N   UNL     1       0.349   1.288   0.000  0.00  0.00    +0.000 NA
ATOM      3  C   UNL     1       1.063   1.702   0.000  0.00  0.00    +0.000 C 
ENDROOT
BRANCH   3   4
ATOM      4  C   UNL     1       1.778   1.290   0.000  0.00  0.00    +0.000 A 
ATOM      5  C   UNL     1       2.493   0.053   0.000  0.00  0.00    +0.000 A 
ATOM      6  C   UNL     1       3.207   0.465   0.000  0.00  0.00    +0.000 A 
ATOM      7  C   UNL     1       1.778   0.465   0.000  0.00  0.00    +0.000 A 
ATOM      8  C   UNL     1       2.493   1.703   0.000  0.00  0.00    +0.000 A 
ATOM      9  C   UNL     1       3.207   1.290   0.000  0.00  0.00    +0.000 A 
BRANCH   5  10
ATOM     10  O   UNL     1       2.491  -0.772   0.000  0.00  0.00    +0.000 OA
ATOM     11  C   UNL     1       1.919  -1.102   0.000  0.00  0.00    +0.000 C 
ENDBRANCH   5  10
BRANCH   6  12
ATOM     12  O   UNL     1       3.923   0.054   0.000  0.00  0.00    +0.000 OA
ATOM     13  C   UNL     1       4.494   0.385   0.000  0.00  0.00    +0.000 C 
ENDBRANCH   6  12
ENDBRANCH   3   4
BRANCH   2  14
ATOM     14  C   UNL     1      -0.367   1.699   0.000  0.00  0.00    +0.000 C 
BRANCH  14  15
ATOM     15  C   UNL     1      -1.081   1.286   0.000  0.00  0.00    +0.000 A 
ATOM     16  C   UNL     1      -2.507   0.456   0.000  0.00  0.00    +0.000 A 
ATOM     17  C   UNL     1      -1.797   1.696   0.000  0.00  0.00    +0.000 A 
ATOM     18  C   UNL     1      -1.079   0.460   0.000  0.00  0.00    +0.000 A 
ATOM     19  C   UNL     1      -2.510   1.281   0.000  0.00  0.00    +0.000 A 
ATOM     20  C   UNL     1      -1.792   0.045   0.000  0.00  0.00    +0.000 A 
BRANCH  16  21
ATOM     21  O   UNL     1      -3.220   0.039   0.000  0.00  0.00    +0.000 OA
BRANCH  21  22
ATOM     22  C   UNL     1      -3.216  -0.786   0.000  0.00  0.00    +0.000 C 
BRANCH  22  23
ATOM     23  C   UNL     1      -3.929  -1.203   0.000  0.00  0.00    +0.000 C 
BRANCH  23  24
ATOM     24  N   UNL     1      -3.925  -2.029   0.000  0.00  0.00    +0.000 NA
ATOM     25  C   UNL     1      -4.494  -2.362   0.000  0.00  0.00    +0.000 C 
ATOM     26  C   UNL     1      -3.351  -2.356   0.000  0.00  0.00    +0.000 C 
ENDBRANCH  23  24
ENDBRANCH  22  23
ENDBRANCH  21  22
ENDBRANCH  16  21
ENDBRANCH  14  15
ENDBRANCH   2  14
TORSDOF 9
