REMARK  Name = 
REMARK  1 active torsions:
REMARK  status: ('A' for Active; 'I' for Inactive)
REMARK    1  A    between atoms: C_6  and  C_7
REMARK                            x       y       z     vdW  Elec       q    Type
REMARK                         _______ _______ _______ _____ _____    ______ ____
ROOT
ATOM      1  C   UNL     1       0.006  -1.576   0.000  0.00  0.00    +0.000 C 
ATOM      2  C   UNL     1       1.235   0.629   0.000  0.00  0.00    +0.000 C 
ATOM      3  C   UNL     1      -0.100   0.629   0.000  0.00  0.00    +0.000 C 
ATOM      4  C   UNL     1      -0.330  -0.823   0.000  0.00  0.00    +0.000 C 
ATOM      5  C   UNL     1       0.568   1.114   0.000  0.00  0.00    +0.000 C 
ATOM      6  C   UNL     1       0.980  -0.155   0.000  0.00  0.00    +0.000 C 
ATOM      7  N   UNL     1       0.155  -0.155   0.000  0.00  0.00    +0.000 N 
ATOM      8  O   UNL     1      -1.150  -0.737   0.000  0.00  0.00    +0.000 OA
ATOM      9  O   UNL     1       0.568   1.939   0.000  0.00  0.00    +0.000 OA
ENDROOT
BRANCH   6  10
ATOM     10  C   UNL     1       1.465  -0.823   0.000  0.00  0.00    +0.000 C 
ATOM     11  O   UNL     1       1.130  -1.576   0.000  0.00  0.00    +0.000 OA
ATOM     12  O   UNL     1       2.286  -0.737   0.000  0.00  0.00    +0.000 OA
ENDBRANCH   6  10
TORSDOF 1
