REMARK  Name = 
REMARK  58 active torsions:
REMARK  status: ('A' for Active; 'I' for Inactive)
REMARK    1  A    between atoms: C_2  and  C_3
REMARK    2  A    between atoms: C_3  and  C_4
REMARK    3  A    between atoms: C_4  and  C_5
REMARK    4  A    between atoms: C_5  and  C_6
REMARK    5  A    between atoms: C_6  and  C_7
REMARK    6  A    between atoms: C_7  and  C_8
REMARK    7  A    between atoms: C_8  and  C_9
REMARK    8  A    between atoms: C_9  and  C_10
REMARK    9  A    between atoms: C_10  and  C_11
REMARK   10  A    between atoms: C_11  and  C_12
REMARK   11  A    between atoms: C_12  and  C_13
REMARK   12  A    between atoms: C_13  and  C_14
REMARK   13  A    between atoms: C_14  and  C_15
REMARK   14  A    between atoms: C_15  and  C_16
REMARK   15  A    between atoms: C_16  and  O_18
REMARK   16  A    between atoms: O_18  and  C_19
REMARK   17  A    between atoms: C_19  and  C_20
REMARK   18  A    between atoms: C_20  and  C_21
REMARK   19  A    between atoms: C_20  and  O_68
REMARK   20  A    between atoms: C_21  and  O_22
REMARK   21  A    between atoms: O_22  and  P_23
REMARK   22  A    between atoms: P_23  and  O_26
REMARK   23  A    between atoms: O_26  and  C_27
REMARK   24  A    between atoms: C_27  and  C_28
REMARK   25  A    between atoms: C_28  and  N_29
REMARK   26  A    between atoms: C_30  and  C_32
REMARK   27  A    between atoms: C_32  and  N_34
REMARK   28  A    between atoms: C_35  and  C_37
REMARK   29  A    between atoms: C_37  and  C_38
REMARK   30  A    between atoms: C_38  and  C_39
REMARK   31  A    between atoms: C_39  and  C_40
REMARK   32  A    between atoms: C_39  and  N_43
REMARK   33  A    between atoms: C_44  and  C_46
REMARK   34  A    between atoms: C_46  and  N_48
REMARK   35  A    between atoms: C_49  and  C_51
REMARK   36  A    between atoms: C_51  and  O_53
REMARK   37  A    between atoms: O_53  and  C_54
REMARK   38  A    between atoms: C_54  and  CA_55
REMARK   39  A    between atoms: C_54  and  C_62
REMARK   40  A    between atoms: CA_55  and  C_56
REMARK   41  A    between atoms: CA_55  and  N_58
REMARK   42  A    between atoms: C_62  and  C_63
REMARK   43  A    between atoms: C_63  and  C_64
REMARK   44  A    between atoms: O_68  and  C_69
REMARK   45  A    between atoms: C_69  and  C_71
REMARK   46  A    between atoms: C_71  and  C_72
REMARK   47  A    between atoms: C_72  and  C_73
REMARK   48  A    between atoms: C_73  and  C_74
REMARK   49  A    between atoms: C_74  and  C_75
REMARK   50  A    between atoms: C_75  and  C_76
REMARK   51  A    between atoms: C_76  and  C_77
REMARK   52  A    between atoms: C_77  and  C_78
REMARK   53  A    between atoms: C_78  and  C_79
REMARK   54  A    between atoms: C_79  and  C_80
REMARK   55  A    between atoms: C_80  and  C_81
REMARK   56  A    between atoms: C_81  and  C_82
REMARK   57  A    between atoms: C_82  and  C_83
REMARK   58  A    between atoms: C_83  and  C_84
REMARK                            x       y       z     vdW  Elec       q    Type
REMARK                         _______ _______ _______ _____ _____    ______ ____
ROOT
ATOM      1  P   UNL     1      -3.034  -0.558   0.000  0.00  0.00    +0.000 P 
ATOM      2  O   UNL     1      -2.320  -0.970   0.000  0.00  0.00    +0.000 OA
ATOM      3  O   UNL     1      -3.748  -0.145   0.000  0.00  0.00    +0.000 OA
ENDROOT
BRANCH   1   4
ATOM      4  O   UNL     1      -3.446  -1.272   0.000  0.00  0.00    +0.000 OA
BRANCH   4   5
ATOM      5  C   UNL     1      -4.271  -1.272   0.000  0.00  0.00    +0.000 C 
BRANCH   5   6
ATOM      6  C   UNL     1      -4.684  -1.987   0.000  0.00  0.00    +0.000 C 
BRANCH   6   7
ATOM      7  C   UNL     1      -5.509  -1.987   0.000  0.00  0.00    +0.000 C 
BRANCH   7   8
ATOM      8  O   UNL     1      -5.921  -2.701   0.000  0.00  0.00    +0.000 OA
BRANCH   8   9
ATOM      9  C   UNL     1      -6.747  -2.701   0.000  0.00  0.00    +0.000 C 
ATOM     10  O   UNL     1      -7.159  -1.987   0.000  0.00  0.00    +0.000 OA
BRANCH   9  11
ATOM     11  C   UNL     1      -7.159  -3.416   0.000  0.00  0.00    +0.000 C 
BRANCH  11  12
ATOM     12  C   UNL     1      -7.984  -3.416   0.000  0.00  0.00    +0.000 C 
BRANCH  12  13
ATOM     13  C   UNL     1      -8.396  -4.130   0.000  0.00  0.00    +0.000 C 
BRANCH  13  14
ATOM     14  C   UNL     1      -9.222  -4.130   0.000  0.00  0.00    +0.000 C 
BRANCH  14  15
ATOM     15  C   UNL     1      -9.634  -4.845   0.000  0.00  0.00    +0.000 C 
BRANCH  15  16
ATOM     16  C   UNL     1     -10.459  -4.845   0.000  0.00  0.00    +0.000 C 
BRANCH  16  17
ATOM     17  C   UNL     1     -10.871  -5.559   0.000  0.00  0.00    +0.000 C 
BRANCH  17  18
ATOM     18  C   UNL     1     -11.697  -5.559   0.000  0.00  0.00    +0.000 C 
BRANCH  18  19
ATOM     19  C   UNL     1     -12.109  -6.274   0.000  0.00  0.00    +0.000 C 
BRANCH  19  20
ATOM     20  C   UNL     1     -12.934  -6.274   0.000  0.00  0.00    +0.000 C 
BRANCH  20  21
ATOM     21  C   UNL     1     -13.347  -6.988   0.000  0.00  0.00    +0.000 C 
BRANCH  21  22
ATOM     22  C   UNL     1     -14.171  -6.988   0.000  0.00  0.00    +0.000 C 
BRANCH  22  23
ATOM     23  C   UNL     1     -14.584  -7.703   0.000  0.00  0.00    +0.000 C 
BRANCH  23  25
ATOM     24  C   UNL     1     -15.822  -8.417   0.000  0.00  0.00    +0.000 C 
ATOM     25  C   UNL     1     -15.409  -7.703   0.000  0.00  0.00    +0.000 C 
ENDBRANCH  23  25
ENDBRANCH  22  23
ENDBRANCH  21  22
ENDBRANCH  20  21
ENDBRANCH  19  20
ENDBRANCH  18  19
ENDBRANCH  17  18
ENDBRANCH  16  17
ENDBRANCH  15  16
ENDBRANCH  14  15
ENDBRANCH  13  14
ENDBRANCH  12  13
ENDBRANCH  11  12
ENDBRANCH   9  11
ENDBRANCH   8   9
ENDBRANCH   7   8
ENDBRANCH   6   7
BRANCH   6  26
ATOM     26  O   UNL     1      -4.271  -2.701   0.000  0.00  0.00    +0.000 OA
BRANCH  26  27
ATOM     27  C   UNL     1      -3.446  -2.701   0.000  0.00  0.00    +0.000 C 
ATOM     28  O   UNL     1      -3.034  -1.987   0.000  0.00  0.00    +0.000 OA
BRANCH  27  29
ATOM     29  C   UNL     1      -3.034  -3.416   0.000  0.00  0.00    +0.000 C 
BRANCH  29  30
ATOM     30  C   UNL     1      -2.209  -3.416   0.000  0.00  0.00    +0.000 C 
BRANCH  30  31
ATOM     31  C   UNL     1      -1.796  -4.130   0.000  0.00  0.00    +0.000 C 
BRANCH  31  32
ATOM     32  C   UNL     1      -0.972  -4.130   0.000  0.00  0.00    +0.000 C 
BRANCH  32  33
ATOM     33  C   UNL     1      -0.559  -4.845   0.000  0.00  0.00    +0.000 C 
BRANCH  33  34
ATOM     34  C   UNL     1       0.266  -4.845   0.000  0.00  0.00    +0.000 C 
BRANCH  34  35
ATOM     35  C   UNL     1       0.678  -5.559   0.000  0.00  0.00    +0.000 C 
BRANCH  35  36
ATOM     36  C   UNL     1       1.504  -5.559   0.000  0.00  0.00    +0.000 C 
BRANCH  36  37
ATOM     37  C   UNL     1       1.916  -6.274   0.000  0.00  0.00    +0.000 C 
BRANCH  37  38
ATOM     38  C   UNL     1       2.741  -6.274   0.000  0.00  0.00    +0.000 C 
BRANCH  38  39
ATOM     39  C   UNL     1       3.154  -6.988   0.000  0.00  0.00    +0.000 C 
BRANCH  39  40
ATOM     40  C   UNL     1       3.978  -6.988   0.000  0.00  0.00    +0.000 C 
BRANCH  40  41
ATOM     41  C   UNL     1       4.391  -7.703   0.000  0.00  0.00    +0.000 C 
BRANCH  41  42
ATOM     42  C   UNL     1       5.216  -7.703   0.000  0.00  0.00    +0.000 C 
ATOM     43  C   UNL     1       5.628  -8.417   0.000  0.00  0.00    +0.000 C 
ENDBRANCH  41  42
ENDBRANCH  40  41
ENDBRANCH  39  40
ENDBRANCH  38  39
ENDBRANCH  37  38
ENDBRANCH  36  37
ENDBRANCH  35  36
ENDBRANCH  34  35
ENDBRANCH  33  34
ENDBRANCH  32  33
ENDBRANCH  31  32
ENDBRANCH  30  31
ENDBRANCH  29  30
ENDBRANCH  27  29
ENDBRANCH  26  27
ENDBRANCH   6  26
ENDBRANCH   5   6
ENDBRANCH   4   5
ENDBRANCH   1   4
BRANCH   1  44
ATOM     44  O   UNL     1      -2.622   0.157   0.000  0.00  0.00    +0.000 OA
BRANCH  44  45
ATOM     45  C   UNL     1      -1.796   0.157   0.000  0.00  0.00    +0.000 C 
BRANCH  45  46
ATOM     46  C   UNL     1      -1.384   0.871   0.000  0.00  0.00    +0.000 C 
BRANCH  46  47
ATOM     47  N   UNL     1      -0.559   0.871   0.000  0.00  0.00    +0.000 NA
ATOM     48  C   UNL     1      -0.146   1.585   0.000  0.00  0.00    +0.000 C 
ATOM     49  O   UNL     1      -0.559   2.300   0.000  0.00  0.00    +0.000 OA
BRANCH  48  50
ATOM     50  C   UNL     1       0.678   1.585   0.000  0.00  0.00    +0.000 C 
ATOM     51  C   UNL     1       1.091   0.871   0.000  0.00  0.00    +0.000 C 
BRANCH  50  52
ATOM     52  N   UNL     1       1.091   2.300   0.000  0.00  0.00    +0.000 NA
ATOM     53  C   UNL     1       1.916   2.300   0.000  0.00  0.00    +0.000 C 
ATOM     54  O   UNL     1       2.329   1.585   0.000  0.00  0.00    +0.000 OA
BRANCH  53  55
ATOM     55  C   UNL     1       2.329   3.014   0.000  0.00  0.00    +0.000 C 
BRANCH  55  56
ATOM     56  C   UNL     1       3.154   3.014   0.000  0.00  0.00    +0.000 C 
BRANCH  56  57
ATOM     57  C   UNL     1       3.566   3.729   0.000  0.00  0.00    +0.000 C 
BRANCH  57  58
ATOM     58  N   UNL     1       4.391   3.729   0.000  0.00  0.00    +0.000 NA
ATOM     59  C   UNL     1       4.803   4.443   0.000  0.00  0.00    +0.000 C 
ATOM     60  O   UNL     1       4.391   5.158   0.000  0.00  0.00    +0.000 OA
BRANCH  59  61
ATOM     61  C   UNL     1       5.628   4.443   0.000  0.00  0.00    +0.000 C 
ATOM     62  C   UNL     1       6.041   3.729   0.000  0.00  0.00    +0.000 C 
BRANCH  61  63
ATOM     63  N   UNL     1       6.041   5.158   0.000  0.00  0.00    +0.000 NA
ATOM     64  C   UNL     1       6.866   5.158   0.000  0.00  0.00    +0.000 C 
ATOM     65  O   UNL     1       7.279   4.443   0.000  0.00  0.00    +0.000 OA
BRANCH  64  66
ATOM     66  C   UNL     1       7.279   5.872   0.000  0.00  0.00    +0.000 C 
ATOM     67  C   UNL     1       6.866   6.587   0.000  0.00  0.00    +0.000 C 
BRANCH  66  68
ATOM     68  O   UNL     1       8.104   5.872   0.000  0.00  0.00    +0.000 OA
BRANCH  68  69
ATOM     69  C   UNL     1       8.516   6.587   0.000  0.00  0.00    +0.000 C 
BRANCH  69  70
ATOM     70  C   UNL     1       8.104   7.301   0.000  0.00  0.00    +0.000 C 
ATOM     71  O   UNL     1       7.279   7.301   0.000  0.00  0.00    +0.000 OA
BRANCH  70  72
ATOM     72  C   UNL     1       8.516   8.016   0.000  0.00  0.00    +0.000 C 
ATOM     73  O   UNL     1       9.341   8.016   0.000  0.00  0.00    +0.000 OA
BRANCH  72  74
ATOM     74  C   UNL     1       8.104   8.730   0.000  0.00  0.00    +0.000 C 
ATOM     75  O   UNL     1       8.516   9.445   0.000  0.00  0.00    +0.000 OA
ENDBRANCH  72  74
ENDBRANCH  70  72
ENDBRANCH  69  70
BRANCH  69  76
ATOM     76  CA  UNL     1       9.341   6.587   0.000  0.00  0.00    +0.000 C 
BRANCH  76  77
ATOM     77  N   UNL     1       9.754   7.301   0.000  0.00  0.00    +0.000 NA
ATOM     78  C   UNL     1      10.579   7.301   0.000  0.00  0.00    +0.000 C 
ATOM     79  O   UNL     1      10.991   8.016   0.000  0.00  0.00    +0.000 OA
ATOM     80  C   UNL     1      10.991   6.587   0.000  0.00  0.00    +0.000 C 
ENDBRANCH  76  77
BRANCH  76  81
ATOM     81  C   UNL     1       9.754   5.872   0.000  0.00  0.00    +0.000 C 
ATOM     82  O   UNL     1       9.341   5.158   0.000  0.00  0.00    +0.000 OA
ENDBRANCH  76  81
ENDBRANCH  69  76
ENDBRANCH  68  69
ENDBRANCH  66  68
ENDBRANCH  64  66
ENDBRANCH  61  63
ENDBRANCH  59  61
ENDBRANCH  57  58
BRANCH  57  83
ATOM     83  C   UNL     1       3.154   4.443   0.000  0.00  0.00    +0.000 C 
ATOM     84  O   UNL     1       3.566   5.158   0.000  0.00  0.00    +0.000 OA
ATOM     85  N   UNL     1       2.329   4.443   0.000  0.00  0.00    +0.000 NA
ENDBRANCH  57  83
ENDBRANCH  56  57
ENDBRANCH  55  56
ENDBRANCH  53  55
ENDBRANCH  50  52
ENDBRANCH  48  50
ENDBRANCH  46  47
ENDBRANCH  45  46
ENDBRANCH  44  45
ENDBRANCH   1  44
TORSDOF 58
REMARK  Name = 
REMARK  58 active torsions:
REMARK  status: ('A' for Active; 'I' for Inactive)
REMARK    1  A    between atoms: C_2  and  C_3
REMARK    2  A    between atoms: C_3  and  C_4
REMARK    3  A    between atoms: C_4  and  C_5
REMARK    4  A    between atoms: C_5  and  C_6
REMARK    5  A    between atoms: C_6  and  C_7
REMARK    6  A    between atoms: C_7  and  C_8
REMARK    7  A    between atoms: C_8  and  C_9
REMARK    8  A    between atoms: C_9  and  C_10
REMARK    9  A    between atoms: C_10  and  C_11
REMARK   10  A    between atoms: C_11  and  C_12
REMARK   11  A    between atoms: C_12  and  C_13
REMARK   12  A    between atoms: C_13  and  C_14
REMARK   13  A    between atoms: C_14  and  C_15
REMARK   14  A    between atoms: C_15  and  C_16
REMARK   15  A    between atoms: C_16  and  O_18
REMARK   16  A    between atoms: O_18  and  C_19
REMARK   17  A    between atoms: C_19  and  C_20
REMARK   18  A    between atoms: C_20  and  C_21
REMARK   19  A    between atoms: C_20  and  O_68
REMARK   20  A    between atoms: C_21  and  O_22
REMARK   21  A    between atoms: O_22  and  P_23
REMARK   22  A    between atoms: P_23  and  O_26
REMARK   23  A    between atoms: O_26  and  C_27
REMARK   24  A    between atoms: C_27  and  C_28
REMARK   25  A    between atoms: C_28  and  N_29
REMARK   26  A    between atoms: C_30  and  C_32
REMARK   27  A    between atoms: C_32  and  N_34
REMARK   28  A    between atoms: C_35  and  C_37
REMARK   29  A    between atoms: C_37  and  C_38
REMARK   30  A    between atoms: C_38  and  C_39
REMARK   31  A    between atoms: C_39  and  C_40
REMARK   32  A    between atoms: C_39  and  N_43
REMARK   33  A    between atoms: C_44  and  C_46
REMARK   34  A    between atoms: C_46  and  N_48
REMARK   35  A    between atoms: C_49  and  C_51
REMARK   36  A    between atoms: C_51  and  O_53
REMARK   37  A    between atoms: O_53  and  C_54
REMARK   38  A    between atoms: C_54  and  CA_55
REMARK   39  A    between atoms: C_54  and  C_62
REMARK   40  A    between atoms: CA_55  and  C_56
REMARK   41  A    between atoms: CA_55  and  N_58
REMARK   42  A    between atoms: C_62  and  C_63
REMARK   43  A    between atoms: C_63  and  C_64
REMARK   44  A    between atoms: O_68  and  C_69
REMARK   45  A    between atoms: C_69  and  C_71
REMARK   46  A    between atoms: C_71  and  C_72
REMARK   47  A    between atoms: C_72  and  C_73
REMARK   48  A    between atoms: C_73  and  C_74
REMARK   49  A    between atoms: C_74  and  C_75
REMARK   50  A    between atoms: C_75  and  C_76
REMARK   51  A    between atoms: C_76  and  C_77
REMARK   52  A    between atoms: C_77  and  C_78
REMARK   53  A    between atoms: C_78  and  C_79
REMARK   54  A    between atoms: C_79  and  C_80
REMARK   55  A    between atoms: C_80  and  C_81
REMARK   56  A    between atoms: C_81  and  C_82
REMARK   57  A    between atoms: C_82  and  C_83
REMARK   58  A    between atoms: C_83  and  C_84
REMARK                            x       y       z     vdW  Elec       q    Type
REMARK                         _______ _______ _______ _____ _____    ______ ____
ROOT
ATOM      1  O   HOH     1      13.348   0.000   0.000  0.00  0.00    +0.000 OA
ENDROOT
TORSDOF 0
REMARK  Name = 
REMARK  58 active torsions:
REMARK  status: ('A' for Active; 'I' for Inactive)
REMARK    1  A    between atoms: C_2  and  C_3
REMARK    2  A    between atoms: C_3  and  C_4
REMARK    3  A    between atoms: C_4  and  C_5
REMARK    4  A    between atoms: C_5  and  C_6
REMARK    5  A    between atoms: C_6  and  C_7
REMARK    6  A    between atoms: C_7  and  C_8
REMARK    7  A    between atoms: C_8  and  C_9
REMARK    8  A    between atoms: C_9  and  C_10
REMARK    9  A    between atoms: C_10  and  C_11
REMARK   10  A    between atoms: C_11  and  C_12
REMARK   11  A    between atoms: C_12  and  C_13
REMARK   12  A    between atoms: C_13  and  C_14
REMARK   13  A    between atoms: C_14  and  C_15
REMARK   14  A    between atoms: C_15  and  C_16
REMARK   15  A    between atoms: C_16  and  O_18
REMARK   16  A    between atoms: O_18  and  C_19
REMARK   17  A    between atoms: C_19  and  C_20
REMARK   18  A    between atoms: C_20  and  C_21
REMARK   19  A    between atoms: C_20  and  O_68
REMARK   20  A    between atoms: C_21  and  O_22
REMARK   21  A    between atoms: O_22  and  P_23
REMARK   22  A    between atoms: P_23  and  O_26
REMARK   23  A    between atoms: O_26  and  C_27
REMARK   24  A    between atoms: C_27  and  C_28
REMARK   25  A    between atoms: C_28  and  N_29
REMARK   26  A    between atoms: C_30  and  C_32
REMARK   27  A    between atoms: C_32  and  N_34
REMARK   28  A    between atoms: C_35  and  C_37
REMARK   29  A    between atoms: C_37  and  C_38
REMARK   30  A    between atoms: C_38  and  C_39
REMARK   31  A    between atoms: C_39  and  C_40
REMARK   32  A    between atoms: C_39  and  N_43
REMARK   33  A    between atoms: C_44  and  C_46
REMARK   34  A    between atoms: C_46  and  N_48
REMARK   35  A    between atoms: C_49  and  C_51
REMARK   36  A    between atoms: C_51  and  O_53
REMARK   37  A    between atoms: O_53  and  C_54
REMARK   38  A    between atoms: C_54  and  CA_55
REMARK   39  A    between atoms: C_54  and  C_62
REMARK   40  A    between atoms: CA_55  and  C_56
REMARK   41  A    between atoms: CA_55  and  N_58
REMARK   42  A    between atoms: C_62  and  C_63
REMARK   43  A    between atoms: C_63  and  C_64
REMARK   44  A    between atoms: O_68  and  C_69
REMARK   45  A    between atoms: C_69  and  C_71
REMARK   46  A    between atoms: C_71  and  C_72
REMARK   47  A    between atoms: C_72  and  C_73
REMARK   48  A    between atoms: C_73  and  C_74
REMARK   49  A    between atoms: C_74  and  C_75
REMARK   50  A    between atoms: C_75  and  C_76
REMARK   51  A    between atoms: C_76  and  C_77
REMARK   52  A    between atoms: C_77  and  C_78
REMARK   53  A    between atoms: C_78  and  C_79
REMARK   54  A    between atoms: C_79  and  C_80
REMARK   55  A    between atoms: C_80  and  C_81
REMARK   56  A    between atoms: C_81  and  C_82
REMARK   57  A    between atoms: C_82  and  C_83
REMARK   58  A    between atoms: C_83  and  C_84
REMARK                            x       y       z     vdW  Elec       q    Type
REMARK                         _______ _______ _______ _____ _____    ______ ____
ROOT
ATOM      1 NA   UNL     1      -4.463   0.267   0.000  0.00  0.00    +0.000 Na
ENDROOT
TORSDOF 0
