REMARK  Name = 
REMARK  7 active torsions:
REMARK  status: ('A' for Active; 'I' for Inactive)
REMARK    1  A    between atoms: C_2  and  C_3
REMARK    2  A    between atoms: C_3  and  C_4
REMARK    3  A    between atoms: C_3  and  C_29
REMARK    4  A    between atoms: C_4  and  C_5
REMARK    5  A    between atoms: C_5  and  C_6
REMARK    6  A    between atoms: C_6  and  C_8
REMARK    7  A    between atoms: C_17  and  C_18
REMARK                            x       y       z     vdW  Elec       q    Type
REMARK                         _______ _______ _______ _____ _____    ______ ____
ROOT
ATOM      1  C   UNL     1      -1.833   0.334   0.000  0.00  0.00    +0.000 C 
ATOM      2  C   UNL     1      -1.497   1.088   0.000  0.00  0.00    +0.000 C 
ATOM      3  C   UNL     1      -2.110   1.640   0.000  0.00  0.00    +0.000 C 
ATOM      4  C   UNL     1      -2.825   1.227   0.000  0.00  0.00    +0.000 C 
ATOM      5  C   UNL     1      -2.653   0.420   0.000  0.00  0.00    +0.000 C 
ATOM      6  C   UNL     1      -3.266  -0.132   0.000  0.00  0.00    +0.000 C 
ATOM      7  C   UNL     1      -4.051   0.123   0.000  0.00  0.00    +0.000 C 
ATOM      8  C   UNL     1      -4.222   0.930   0.000  0.00  0.00    +0.000 C 
ATOM      9  C   UNL     1      -3.609   1.482   0.000  0.00  0.00    +0.000 C 
ATOM     10  C   UNL     1      -3.781   2.289   0.000  0.00  0.00    +0.000 C 
ATOM     11  C   UNL     1      -2.398  -0.364   0.000  0.00  0.00    +0.000 C 
ENDROOT
BRANCH  10  12
ATOM     12  C   UNL     1      -4.565   2.544   0.000  0.00  0.00    +0.000 C 
ATOM     13  C   UNL     1      -4.737   3.351   0.000  0.00  0.00    +0.000 C 
ATOM     14  C   UNL     1      -5.521   3.606   0.000  0.00  0.00    +0.000 C 
ATOM     15  C   UNL     1      -5.693   4.413   0.000  0.00  0.00    +0.000 C 
ATOM     16  C   UNL     1      -5.080   4.965   0.000  0.00  0.00    +0.000 C 
ATOM     17  C   UNL     1      -4.295   4.710   0.000  0.00  0.00    +0.000 C 
ATOM     18  C   UNL     1      -4.124   3.903   0.000  0.00  0.00    +0.000 C 
ATOM     19  C   UNL     1      -3.339   3.648   0.000  0.00  0.00    +0.000 C 
ATOM     20  O   UNL     1      -3.682   5.262   0.000  0.00  0.00    +0.000 OA
ATOM     21  O   UNL     1      -6.478   4.668   0.000  0.00  0.00    +0.000 OA
ENDBRANCH  10  12
BRANCH   1  22
ATOM     22  C   UNL     1      -1.420  -0.381   0.000  0.00  0.00    +0.000 C 
ATOM     23  C   UNL     1      -1.833  -1.095   0.000  0.00  0.00    +0.000 C 
BRANCH  22  24
ATOM     24  C   UNL     1      -0.595  -0.381   0.000  0.00  0.00    +0.000 C 
BRANCH  24  25
ATOM     25  C   UNL     1      -0.183  -1.095   0.000  0.00  0.00    +0.000 C 
BRANCH  25  26
ATOM     26  C   UNL     1       0.642  -1.095   0.000  0.00  0.00    +0.000 C 
BRANCH  26  27
ATOM     27  C   UNL     1       1.055  -0.381   0.000  0.00  0.00    +0.000 C 
ATOM     28  C   UNL     1       0.642   0.334   0.000  0.00  0.00    +0.000 C 
ATOM     29  C   UNL     1       1.880  -0.381   0.000  0.00  0.00    +0.000 C 
ENDBRANCH  26  27
BRANCH  26  31
ATOM     30  C   UNL     1       1.880  -1.809   0.000  0.00  0.00    +0.000 C 
ATOM     31  C   UNL     1       1.055  -1.809   0.000  0.00  0.00    +0.000 C 
ENDBRANCH  26  31
ENDBRANCH  25  26
ENDBRANCH  24  25
ENDBRANCH  22  24
ENDBRANCH   1  22
TORSDOF 7
