REMARK  Name = 
REMARK  2 active torsions:
REMARK  status: ('A' for Active; 'I' for Inactive)
REMARK    1  A    between atoms: C_2  and  N_3
REMARK    2  A    between atoms: C_5  and  C_19
REMARK                            x       y       z     vdW  Elec       q    Type
REMARK                         _______ _______ _______ _____ _____    ______ ____
ROOT
ATOM      1  N   UNL     1       1.429  -1.650   0.000  0.00  0.00    +0.000 N 
ATOM      2  C   UNL     1       0.715  -1.238   0.000  0.00  0.00    +0.000 A 
ATOM      3  C   UNL     1       0.715  -0.412   0.000  0.00  0.00    +0.000 A 
ATOM      4  C   UNL     1       1.429   0.000   0.000  0.00  0.00    +0.000 A 
ATOM      5  O   UNL     1       1.429   0.825   0.000  0.00  0.00    +0.000 OA
ATOM      6  C   UNL     1       2.143  -0.412   0.000  0.00  0.00    +0.000 A 
ATOM      7  C   UNL     1       2.858   0.000   0.000  0.00  0.00    +0.000 A 
ATOM      8  N   UNL     1       3.572  -0.412   0.000  0.00  0.00    +0.000 NA
ATOM      9  C   UNL     1       3.572  -1.238   0.000  0.00  0.00    +0.000 A 
ATOM     10  N   UNL     1       2.858  -1.650   0.000  0.00  0.00    +0.000 NA
ATOM     11  C   UNL     1       2.143  -1.238   0.000  0.00  0.00    +0.000 A 
ATOM     12  N   UNL     1       4.287  -1.650   0.000  0.00  0.00    +0.000 N 
ATOM     13  C   UNL     1       5.040  -1.314   0.000  0.00  0.00    +0.000 C 
ATOM     14  C   UNL     1       5.593  -1.927   0.000  0.00  0.00    +0.000 C 
ATOM     15  C   UNL     1       5.180  -2.642   0.000  0.00  0.00    +0.000 C 
ATOM     16  C   UNL     1       4.373  -2.470   0.000  0.00  0.00    +0.000 C 
ENDROOT
BRANCH   3  17
ATOM     17  C   UNL     1       0.000   0.000   0.000  0.00  0.00    +0.000 C 
ATOM     18  O   UNL     1      -0.715  -0.412   0.000  0.00  0.00    +0.000 OA
ATOM     19  O   UNL     1       0.000   0.825   0.000  0.00  0.00    +0.000 OA
ENDBRANCH   3  17
BRANCH   1  21
ATOM     20  C   UNL     1       2.143  -2.888   0.000  0.00  0.00    +0.000 C 
ATOM     21  C   UNL     1       1.429  -2.475   0.000  0.00  0.00    +0.000 C 
ENDBRANCH   1  21
TORSDOF 2
