REMARK  Name = 
REMARK  1 active torsions:
REMARK  status: ('A' for Active; 'I' for Inactive)
REMARK    1  A    between atoms: C_9  and  O_12
REMARK                            x       y       z     vdW  Elec       q    Type
REMARK                         _______ _______ _______ _____ _____    ______ ____
ROOT
ATOM      1  C   UNL     1      -0.009  -0.684   0.000  0.00  0.00    +0.000 C 
ATOM      2  N   UNL     1       0.798  -0.513   0.000  0.00  0.00    +0.000 N 
ATOM      3  C   UNL     1       1.053   0.272   0.000  0.00  0.00    +0.000 C 
ATOM      4  C   UNL     1       1.860   0.443   0.000  0.00  0.00    +0.000 C 
ATOM      5  N   UNL     1       2.412  -0.170   0.000  0.00  0.00    +0.000 N 
ATOM      6  C   UNL     1       3.237  -0.170   0.000  0.00  0.00    +0.000 A 
ATOM      7  C   UNL     1       3.492  -0.954   0.000  0.00  0.00    +0.000 A 
ATOM      8  C   UNL     1       4.299  -1.126   0.000  0.00  0.00    +0.000 A 
ATOM      9  C   UNL     1       4.851  -0.513   0.000  0.00  0.00    +0.000 A 
ATOM     10  C   UNL     1       4.596   0.272   0.000  0.00  0.00    +0.000 A 
ATOM     11  C   UNL     1       3.789   0.443   0.000  0.00  0.00    +0.000 A 
ATOM     12  C   UNL     1       2.825  -1.439   0.000  0.00  0.00    +0.000 A 
ATOM     13  C   UNL     1       2.157  -0.954   0.000  0.00  0.00    +0.000 A 
ATOM     14  C   UNL     1       1.350  -1.126   0.000  0.00  0.00    +0.000 C 
ATOM     15  N   UNL     1       1.317  -2.110   0.000  0.00  0.00    +0.000 NA
ATOM     16  C   UNL     1       1.985  -2.595   0.000  0.00  0.00    +0.000 C 
ATOM     17  C   UNL     1       2.738  -2.260   0.000  0.00  0.00    +0.000 C 
ENDROOT
BRANCH   9  18
ATOM     18  O   UNL     1       5.658  -0.684   0.000  0.00  0.00    +0.000 OA
ATOM     19  C   UNL     1       6.210  -0.071   0.000  0.00  0.00    +0.000 C 
ENDBRANCH   9  18
TORSDOF 1
