REMARK  Name = 
REMARK  65 active torsions:
REMARK  status: ('A' for Active; 'I' for Inactive)
REMARK    1  A    between atoms: C_1  and  C_2
REMARK    2  A    between atoms: C_1  and  O_24
REMARK    3  A    between atoms: C_2  and  C_3
REMARK    4  A    between atoms: C_2  and  O_42
REMARK    5  A    between atoms: C_3  and  S_4
REMARK    6  A    between atoms: S_4  and  C_5
REMARK    7  A    between atoms: C_5  and  C_6
REMARK    8  A    between atoms: C_6  and  C_7
REMARK    9  A    between atoms: N_8  and  CA_9
REMARK   10  A    between atoms: CA_9  and  C_10
REMARK   11  A    between atoms: CA_9  and  CB_62
REMARK   12  A    between atoms: N_11  and  CA_12
REMARK   13  A    between atoms: CA_12  and  C_13
REMARK   14  A    between atoms: CA_12  and  CB_65
REMARK   15  A    between atoms: N_14  and  CA_15
REMARK   16  A    between atoms: CA_15  and  C_16
REMARK   17  A    between atoms: CA_15  and  CB_71
REMARK   18  A    between atoms: N_17  and  CA_18
REMARK   19  A    between atoms: CA_18  and  C_19
REMARK   20  A    between atoms: CA_18  and  CB_77
REMARK   21  A    between atoms: N_20  and  CA_21
REMARK   22  A    between atoms: CA_21  and  C_22
REMARK   23  A    between atoms: CA_21  and  CB_83
REMARK   24  A    between atoms: O_24  and  C_25
REMARK   25  A    between atoms: C_25  and  C_26
REMARK   26  A    between atoms: C_26  and  C_27
REMARK   27  A    between atoms: C_27  and  C_28
REMARK   28  A    between atoms: C_28  and  C_29
REMARK   29  A    between atoms: C_29  and  C_30
REMARK   30  A    between atoms: C_30  and  C_31
REMARK   31  A    between atoms: C_31  and  C_32
REMARK   32  A    between atoms: C_32  and  C_33
REMARK   33  A    between atoms: C_33  and  C_34
REMARK   34  A    between atoms: C_34  and  C_35
REMARK   35  A    between atoms: C_35  and  C_36
REMARK   36  A    between atoms: C_36  and  C_37
REMARK   37  A    between atoms: C_37  and  C_38
REMARK   38  A    between atoms: C_38  and  C_39
REMARK   39  A    between atoms: O_42  and  C_43
REMARK   40  A    between atoms: C_43  and  C_44
REMARK   41  A    between atoms: C_44  and  C_45
REMARK   42  A    between atoms: C_45  and  C_46
REMARK   43  A    between atoms: C_46  and  C_47
REMARK   44  A    between atoms: C_47  and  C_48
REMARK   45  A    between atoms: C_48  and  C_49
REMARK   46  A    between atoms: C_49  and  C_50
REMARK   47  A    between atoms: C_50  and  C_51
REMARK   48  A    between atoms: C_51  and  C_52
REMARK   49  A    between atoms: C_52  and  C_53
REMARK   50  A    between atoms: C_53  and  C_54
REMARK   51  A    between atoms: C_54  and  C_55
REMARK   52  A    between atoms: C_55  and  C_56
REMARK   53  A    between atoms: C_56  and  C_57
REMARK   54  A    between atoms: CB_65  and  CG_66
REMARK   55  A    between atoms: CG_66  and  CD_67
REMARK   56  A    between atoms: CD_67  and  CE_68
REMARK   57  A    between atoms: CB_71  and  CG_72
REMARK   58  A    between atoms: CG_72  and  CD_73
REMARK   59  A    between atoms: CD_73  and  CE_74
REMARK   60  A    between atoms: CB_77  and  CG_78
REMARK   61  A    between atoms: CG_78  and  CD_79
REMARK   62  A    between atoms: CD_79  and  CE_80
REMARK   63  A    between atoms: CB_83  and  CG_84
REMARK   64  A    between atoms: CG_84  and  CD_85
REMARK   65  A    between atoms: CD_85  and  CE_86
REMARK                            x       y       z     vdW  Elec       q    Type
REMARK                         _______ _______ _______ _____ _____    ______ ____
ROOT
ATOM      1  C   UNK A   1      -0.715  -0.206   0.000  0.00  0.00    +0.000 C 
ATOM      2  N   SER A   2       0.000   0.206   0.000  0.00  0.00    +0.000 NA
ATOM      3  O   UNK A   1      -0.715  -1.031   0.000  0.00  0.00    +0.000 OA
ENDROOT
BRANCH   1   4
ATOM      4  C   UNK A   1      -1.429   0.206   0.000  0.00  0.00    +0.000 C 
ATOM      5  N   UNK A   1      -1.429   1.031   0.000  0.00  0.00    +0.000 NA
BRANCH   4   6
ATOM      6  C   UNK A   1      -2.143  -0.206   0.000  0.00  0.00    +0.000 C 
BRANCH   6   7
ATOM      7  S   UNK A   1      -2.858   0.206   0.000  0.00  0.00    +0.000 S 
BRANCH   7   8
ATOM      8  C   UNK A   1      -3.572  -0.206   0.000  0.00  0.00    +0.000 C 
BRANCH   8   9
ATOM      9  C   UNK A   1      -4.287   0.206   0.000  0.00  0.00    +0.000 C 
BRANCH   9  10
ATOM     10  C   UNK A   1      -5.001  -0.206   0.000  0.00  0.00    +0.000 C 
BRANCH  10  11
ATOM     11  O   UNK A   1      -5.001  -1.031   0.000  0.00  0.00    +0.000 OA
BRANCH  11  12
ATOM     12  C   UNK A   1      -5.716  -1.444   0.000  0.00  0.00    +0.000 C 
ATOM     13  O   UNK A   1      -6.430  -1.031   0.000  0.00  0.00    +0.000 OA
BRANCH  12  14
ATOM     14  C   UNK A   1      -5.716  -2.269   0.000  0.00  0.00    +0.000 C 
BRANCH  14  15
ATOM     15  C   UNK A   1      -6.430  -2.681   0.000  0.00  0.00    +0.000 C 
BRANCH  15  16
ATOM     16  C   UNK A   1      -6.430  -3.506   0.000  0.00  0.00    +0.000 C 
BRANCH  16  17
ATOM     17  C   UNK A   1      -7.145  -3.919   0.000  0.00  0.00    +0.000 C 
BRANCH  17  18
ATOM     18  C   UNK A   1      -7.145  -4.744   0.000  0.00  0.00    +0.000 C 
BRANCH  18  19
ATOM     19  C   UNK A   1      -7.859  -5.156   0.000  0.00  0.00    +0.000 C 
BRANCH  19  20
ATOM     20  C   UNK A   1      -7.859  -5.981   0.000  0.00  0.00    +0.000 C 
BRANCH  20  21
ATOM     21  C   UNK A   1      -8.574  -6.394   0.000  0.00  0.00    +0.000 C 
BRANCH  21  22
ATOM     22  C   UNK A   1      -8.574  -7.219   0.000  0.00  0.00    +0.000 C 
BRANCH  22  23
ATOM     23  C   UNK A   1      -9.288  -7.631   0.000  0.00  0.00    +0.000 C 
BRANCH  23  24
ATOM     24  C   UNK A   1      -9.288  -8.457   0.000  0.00  0.00    +0.000 C 
BRANCH  24  25
ATOM     25  C   UNK A   1     -10.003  -8.869   0.000  0.00  0.00    +0.000 C 
BRANCH  25  26
ATOM     26  C   UNK A   1     -10.003  -9.694   0.000  0.00  0.00    +0.000 C 
BRANCH  26  27
ATOM     27  C   UNK A   1     -10.717 -10.107   0.000  0.00  0.00    +0.000 C 
ATOM     28  C   UNK A   1     -10.717 -10.932   0.000  0.00  0.00    +0.000 C 
ENDBRANCH  26  27
ENDBRANCH  25  26
ENDBRANCH  24  25
ENDBRANCH  23  24
ENDBRANCH  22  23
ENDBRANCH  21  22
ENDBRANCH  20  21
ENDBRANCH  19  20
ENDBRANCH  18  19
ENDBRANCH  17  18
ENDBRANCH  16  17
ENDBRANCH  15  16
ENDBRANCH  14  15
ENDBRANCH  12  14
ENDBRANCH  11  12
ENDBRANCH  10  11
ENDBRANCH   9  10
BRANCH   9  29
ATOM     29  O   UNK A   1      -4.287   1.031   0.000  0.00  0.00    +0.000 OA
BRANCH  29  30
ATOM     30  C   UNK A   1      -3.572   1.444   0.000  0.00  0.00    +0.000 C 
ATOM     31  O   UNK A   1      -2.858   1.031   0.000  0.00  0.00    +0.000 OA
BRANCH  30  32
ATOM     32  C   UNK A   1      -3.572   2.269   0.000  0.00  0.00    +0.000 C 
BRANCH  32  33
ATOM     33  C   UNK A   1      -2.858   2.681   0.000  0.00  0.00    +0.000 C 
BRANCH  33  34
ATOM     34  C   UNK A   1      -2.858   3.506   0.000  0.00  0.00    +0.000 C 
BRANCH  34  35
ATOM     35  C   UNK A   1      -2.143   3.919   0.000  0.00  0.00    +0.000 C 
BRANCH  35  36
ATOM     36  C   UNK A   1      -2.143   4.744   0.000  0.00  0.00    +0.000 C 
BRANCH  36  37
ATOM     37  C   UNK A   1      -1.429   5.156   0.000  0.00  0.00    +0.000 C 
BRANCH  37  38
ATOM     38  C   UNK A   1      -1.429   5.981   0.000  0.00  0.00    +0.000 C 
BRANCH  38  39
ATOM     39  C   UNK A   1      -0.715   6.394   0.000  0.00  0.00    +0.000 C 
BRANCH  39  40
ATOM     40  C   UNK A   1      -0.715   7.219   0.000  0.00  0.00    +0.000 C 
BRANCH  40  41
ATOM     41  C   UNK A   1       0.000   7.631   0.000  0.00  0.00    +0.000 C 
BRANCH  41  42
ATOM     42  C   UNK A   1       0.000   8.457   0.000  0.00  0.00    +0.000 C 
BRANCH  42  43
ATOM     43  C   UNK A   1       0.715   8.869   0.000  0.00  0.00    +0.000 C 
BRANCH  43  44
ATOM     44  C   UNK A   1       0.715   9.694   0.000  0.00  0.00    +0.000 C 
BRANCH  44  45
ATOM     45  C   UNK A   1       1.429  10.107   0.000  0.00  0.00    +0.000 C 
ATOM     46  C   UNK A   1       1.429  10.932   0.000  0.00  0.00    +0.000 C 
ENDBRANCH  44  45
ENDBRANCH  43  44
ENDBRANCH  42  43
ENDBRANCH  41  42
ENDBRANCH  40  41
ENDBRANCH  39  40
ENDBRANCH  38  39
ENDBRANCH  37  38
ENDBRANCH  36  37
ENDBRANCH  35  36
ENDBRANCH  34  35
ENDBRANCH  33  34
ENDBRANCH  32  33
ENDBRANCH  30  32
ENDBRANCH  29  30
ENDBRANCH   9  29
ENDBRANCH   8   9
ENDBRANCH   7   8
ENDBRANCH   6   7
ENDBRANCH   4   6
ENDBRANCH   1   4
BRANCH   2  47
ATOM     47  CA  SER A   2       0.715  -0.206   0.000  0.00  0.00    +0.000 C 
BRANCH  47  48
ATOM     48  C   SER A   2       1.429   0.206   0.000  0.00  0.00    +0.000 C 
ATOM     49  N   LYS A   3       2.143  -0.206   0.000  0.00  0.00    +0.000 NA
ATOM     50  O   SER A   2       1.429   1.031   0.000  0.00  0.00    +0.000 OA
BRANCH  49  51
ATOM     51  CA  LYS A   3       2.858   0.206   0.000  0.00  0.00    +0.000 C 
BRANCH  51  52
ATOM     52  C   LYS A   3       3.572  -0.206   0.000  0.00  0.00    +0.000 C 
ATOM     53  N   LYS A   4       4.287   0.206   0.000  0.00  0.00    +0.000 NA
ATOM     54  O   LYS A   3       3.572  -1.031   0.000  0.00  0.00    +0.000 OA
BRANCH  53  55
ATOM     55  CA  LYS A   4       5.001  -0.206   0.000  0.00  0.00    +0.000 C 
BRANCH  55  56
ATOM     56  C   LYS A   4       5.716   0.206   0.000  0.00  0.00    +0.000 C 
ATOM     57  N   LYS A   5       6.430  -0.206   0.000  0.00  0.00    +0.000 NA
ATOM     58  O   LYS A   4       5.716   1.031   0.000  0.00  0.00    +0.000 OA
BRANCH  57  59
ATOM     59  CA  LYS A   5       7.145   0.206   0.000  0.00  0.00    +0.000 C 
BRANCH  59  60
ATOM     60  C   LYS A   5       7.859  -0.206   0.000  0.00  0.00    +0.000 C 
ATOM     61  N   LYS A   6       8.574   0.206   0.000  0.00  0.00    +0.000 NA
ATOM     62  O   LYS A   5       7.859  -1.031   0.000  0.00  0.00    +0.000 OA
BRANCH  61  63
ATOM     63  CA  LYS A   6       9.288  -0.206   0.000  0.00  0.00    +0.000 C 
BRANCH  63  64
ATOM     64  C   LYS A   6      10.003   0.206   0.000  0.00  0.00    +0.000 C 
ATOM     65  O   LYS A   6      10.717  -0.206   0.000  0.00  0.00    +0.000 OA
ATOM     66  OXT LYS A   6      10.003   1.031   0.000  0.00  0.00    +0.000 OA
ENDBRANCH  63  64
BRANCH  63  67
ATOM     67  CB  LYS A   6       9.288  -1.031   0.000  0.00  0.00    +0.000 C 
BRANCH  67  68
ATOM     68  CG  LYS A   6      10.003  -1.444   0.000  0.00  0.00    +0.000 C 
BRANCH  68  69
ATOM     69  CD  LYS A   6      10.003  -2.269   0.000  0.00  0.00    +0.000 C 
BRANCH  69  70
ATOM     70  CE  LYS A   6      10.717  -2.681   0.000  0.00  0.00    +0.000 C 
ATOM     71  NZ  LYS A   6      10.717  -3.506   0.000  0.00  0.00    +0.000 NA
ENDBRANCH  69  70
ENDBRANCH  68  69
ENDBRANCH  67  68
ENDBRANCH  63  67
ENDBRANCH  61  63
ENDBRANCH  59  60
BRANCH  59  72
ATOM     72  CB  LYS A   5       7.145   1.031   0.000  0.00  0.00    +0.000 C 
BRANCH  72  73
ATOM     73  CG  LYS A   5       7.859   1.444   0.000  0.00  0.00    +0.000 C 
BRANCH  73  74
ATOM     74  CD  LYS A   5       7.859   2.269   0.000  0.00  0.00    +0.000 C 
BRANCH  74  75
ATOM     75  CE  LYS A   5       8.574   2.681   0.000  0.00  0.00    +0.000 C 
ATOM     76  NZ  LYS A   5       8.574   3.506   0.000  0.00  0.00    +0.000 NA
ENDBRANCH  74  75
ENDBRANCH  73  74
ENDBRANCH  72  73
ENDBRANCH  59  72
ENDBRANCH  57  59
ENDBRANCH  55  56
BRANCH  55  77
ATOM     77  CB  LYS A   4       5.001  -1.031   0.000  0.00  0.00    +0.000 C 
BRANCH  77  78
ATOM     78  CG  LYS A   4       5.716  -1.444   0.000  0.00  0.00    +0.000 C 
BRANCH  78  79
ATOM     79  CD  LYS A   4       5.716  -2.269   0.000  0.00  0.00    +0.000 C 
BRANCH  79  80
ATOM     80  CE  LYS A   4       6.430  -2.681   0.000  0.00  0.00    +0.000 C 
ATOM     81  NZ  LYS A   4       6.430  -3.506   0.000  0.00  0.00    +0.000 NA
ENDBRANCH  79  80
ENDBRANCH  78  79
ENDBRANCH  77  78
ENDBRANCH  55  77
ENDBRANCH  53  55
ENDBRANCH  51  52
BRANCH  51  82
ATOM     82  CB  LYS A   3       2.858   1.031   0.000  0.00  0.00    +0.000 C 
BRANCH  82  83
ATOM     83  CG  LYS A   3       3.572   1.444   0.000  0.00  0.00    +0.000 C 
BRANCH  83  84
ATOM     84  CD  LYS A   3       3.572   2.269   0.000  0.00  0.00    +0.000 C 
BRANCH  84  85
ATOM     85  CE  LYS A   3       4.287   2.681   0.000  0.00  0.00    +0.000 C 
ATOM     86  NZ  LYS A   3       4.287   3.506   0.000  0.00  0.00    +0.000 NA
ENDBRANCH  84  85
ENDBRANCH  83  84
ENDBRANCH  82  83
ENDBRANCH  51  82
ENDBRANCH  49  51
ENDBRANCH  47  48
BRANCH  47  87
ATOM     87  CB  SER A   2       0.715  -1.031   0.000  0.00  0.00    +0.000 C 
ATOM     88  OG  SER A   2       1.429  -1.444   0.000  0.00  0.00    +0.000 OA
ENDBRANCH  47  87
ENDBRANCH   2  47
TORSDOF 65
