REMARK  Name = 
REMARK  4 active torsions:
REMARK  status: ('A' for Active; 'I' for Inactive)
REMARK    1  A    between atoms: C_1  and  C_3
REMARK    2  A    between atoms: C_6  and  O_16
REMARK    3  A    between atoms: N_10  and  C_14
REMARK    4  A    between atoms: O_16  and  C_19
REMARK                            x       y       z     vdW  Elec       q    Type
REMARK                         _______ _______ _______ _____ _____    ______ ____
ROOT
ATOM      1  C   UNL     1       1.493   1.150   0.000  0.00  0.00    +0.000 A 
ATOM      2  N   UNL     1       1.493   0.325   0.000  0.00  0.00    +0.000 NA
ATOM      3  N   UNL     1       0.777   1.566   0.000  0.00  0.00    +0.000 NA
ATOM      4  C   UNL     1       0.048   0.325   0.000  0.00  0.00    +0.000 A 
ATOM      5  C   UNL     1       0.048   1.150   0.000  0.00  0.00    +0.000 A 
ATOM      6  C   UNL     1      -0.668  -0.078   0.000  0.00  0.00    +0.000 A 
ATOM      7  C   UNL     1      -1.379   0.325   0.000  0.00  0.00    +0.000 A 
ATOM      8  C   UNL     1      -0.668   1.566   0.000  0.00  0.00    +0.000 A 
ATOM      9  C   UNL     1      -1.379   1.150   0.000  0.00  0.00    +0.000 A 
ENDROOT
BRANCH   1  10
ATOM     10  C   UNL     1       2.222   1.608   0.000  0.00  0.00    +0.000 A 
ATOM     11  N   UNL     1       3.523   1.608   0.000  0.00  0.00    +0.000 NA
ATOM     12  S   UNL     1       2.866   2.746   0.000  0.00  0.00    +0.000 S 
ATOM     13  C   UNL     1       3.523   2.325   0.000  0.00  0.00    +0.000 A 
ATOM     14  C   UNL     1       2.222   2.325   0.000  0.00  0.00    +0.000 A 
ENDBRANCH   1  10
BRANCH   7  16
ATOM     15  C   UNL     1      -2.114  -0.939   0.000  0.00  0.00    +0.000 C 
ATOM     16  N   UNL     1      -2.114  -0.078   0.000  0.00  0.00    +0.000 NA
ATOM     17  O   UNL     1      -1.373  -1.379   0.000  0.00  0.00    +0.000 OA
BRANCH  15  18
ATOM     18  O   UNL     1      -2.836  -1.409   0.000  0.00  0.00    +0.000 OA
BRANCH  18  19
ATOM     19  C   UNL     1      -2.836  -2.264   0.000  0.00  0.00    +0.000 C 
ATOM     20  C   UNL     1      -3.523  -2.746   0.000  0.00  0.00    +0.000 C 
ATOM     21  C   UNL     1      -2.078  -2.656   0.000  0.00  0.00    +0.000 C 
ENDBRANCH  18  19
ENDBRANCH  15  18
ENDBRANCH   7  16
TORSDOF 4
