REMARK  Name = 
REMARK  5 active torsions:
REMARK  status: ('A' for Active; 'I' for Inactive)
REMARK    1  A    between atoms: C_6  and  C_8
REMARK    2  A    between atoms: C_8  and  C_11
REMARK    3  A    between atoms: C_14  and  C_15
REMARK    4  A    between atoms: C_15  and  CA_17
REMARK    5  A    between atoms: CA_17  and  C_19
REMARK                            x       y       z     vdW  Elec       q    Type
REMARK                         _______ _______ _______ _____ _____    ______ ____
ROOT
ATOM      1  C   UNL     1      -0.276  -0.392   0.000  0.00  0.00    +0.000 A 
ATOM      2  C   UNL     1      -0.531   0.392   0.000  0.00  0.00    +0.000 A 
ATOM      3  C   UNL     1       0.021   1.005   0.000  0.00  0.00    +0.000 A 
ATOM      4  C   UNL     1       0.828   0.834   0.000  0.00  0.00    +0.000 A 
ATOM      5  C   UNL     1       1.083   0.049   0.000  0.00  0.00    +0.000 A 
ATOM      6  C   UNL     1       0.531  -0.564   0.000  0.00  0.00    +0.000 A 
ENDROOT
BRANCH   3   8
ATOM      7  O   UNL     1       0.318   2.403   0.000  0.00  0.00    +0.000 OA
ATOM      8  C   UNL     1      -0.234   1.790   0.000  0.00  0.00    +0.000 C 
BRANCH   8  14
ATOM      9  C   UNL     1      -1.296   2.746   0.000  0.00  0.00    +0.000 A 
ATOM     10  C   UNL     1      -2.103   2.918   0.000  0.00  0.00    +0.000 A 
ATOM     11  C   UNL     1      -2.655   2.305   0.000  0.00  0.00    +0.000 A 
ATOM     12  C   UNL     1      -2.400   1.520   0.000  0.00  0.00    +0.000 A 
ATOM     13  C   UNL     1      -1.593   1.349   0.000  0.00  0.00    +0.000 A 
ATOM     14  C   UNL     1      -1.041   1.962   0.000  0.00  0.00    +0.000 A 
ENDBRANCH   8  14
ENDBRANCH   3   8
BRANCH   6  15
ATOM     15  C   UNL     1       0.786  -1.349   0.000  0.00  0.00    +0.000 C 
BRANCH  15  17
ATOM     16  N   UNL     1       2.145  -0.907   0.000  0.00  0.00    +0.000 NA
ATOM     17  CA  UNL     1       1.593  -1.520   0.000  0.00  0.00    +0.000 C 
BRANCH  17  19
ATOM     18  O   UNL     1       1.296  -2.918   0.000  0.00  0.00    +0.000 OA
ATOM     19  C   UNL     1       1.848  -2.305   0.000  0.00  0.00    +0.000 C 
ATOM     20  OXT UNL     1       2.655  -2.476   0.000  0.00  0.00    +0.000 OA
ENDBRANCH  17  19
ENDBRANCH  15  17
ENDBRANCH   6  15
TORSDOF 5
