REMARK  Name = 
REMARK  9 active torsions:
REMARK  status: ('A' for Active; 'I' for Inactive)
REMARK    1  A    between atoms: C_4  and  O_54
REMARK    2  A    between atoms: C_6  and  O_8
REMARK    3  A    between atoms: O_8  and  C_9
REMARK    4  A    between atoms: C_12  and  O_16
REMARK    5  A    between atoms: O_16  and  C_17
REMARK    6  A    between atoms: C_20  and  O_24
REMARK    7  A    between atoms: O_24  and  C_25
REMARK    8  A    between atoms: C_41  and  C_42
REMARK    9  A    between atoms: O_54  and  C_55
REMARK                            x       y       z     vdW  Elec       q    Type
REMARK                         _______ _______ _______ _____ _____    ______ ____
ROOT
ATOM      1  C   UNL     1       8.104   3.031   0.000  0.00  0.00    +0.000 C 
ATOM      2  C   UNL     1       8.636   2.400   0.000  0.00  0.00    +0.000 C 
ATOM      3  O   UNL     1       8.356   1.624   0.000  0.00  0.00    +0.000 OA
ATOM      4  C   UNL     1       7.543   1.479   0.000  0.00  0.00    +0.000 C 
ATOM      5  C   UNL     1       7.012   2.110   0.000  0.00  0.00    +0.000 C 
ATOM      6  C   UNL     1       7.292   2.885   0.000  0.00  0.00    +0.000 C 
ATOM      7  O   UNL     1       6.760   3.516   0.000  0.00  0.00    +0.000 OA
ATOM      8  C   UNL     1       9.448   2.545   0.000  0.00  0.00    +0.000 C 
ENDROOT
BRANCH   1   9
ATOM      9  O   UNL     1       8.384   3.807   0.000  0.00  0.00    +0.000 OA
BRANCH   9  13
ATOM     10  C   UNL     1      10.821   4.242   0.000  0.00  0.00    +0.000 C 
ATOM     11  C   UNL     1      10.540   3.466   0.000  0.00  0.00    +0.000 C 
ATOM     12  O   UNL     1       9.728   3.321   0.000  0.00  0.00    +0.000 OA
ATOM     13  C   UNL     1       9.197   3.952   0.000  0.00  0.00    +0.000 C 
ATOM     14  C   UNL     1       9.477   4.728   0.000  0.00  0.00    +0.000 C 
ATOM     15  C   UNL     1      10.289   4.873   0.000  0.00  0.00    +0.000 C 
ATOM     16  O   UNL     1      10.569   5.649   0.000  0.00  0.00    +0.000 OA
ATOM     17  C   UNL     1      11.072   2.836   0.000  0.00  0.00    +0.000 C 
BRANCH  10  18
ATOM     18  O   UNL     1      11.633   4.388   0.000  0.00  0.00    +0.000 OA
BRANCH  18  24
ATOM     19  C   UNL     1      11.130   7.201   0.000  0.00  0.00    +0.000 C 
ATOM     20  C   UNL     1      11.662   6.570   0.000  0.00  0.00    +0.000 C 
ATOM     21  C   UNL     1      12.474   6.715   0.000  0.00  0.00    +0.000 C 
ATOM     22  C   UNL     1      13.006   6.085   0.000  0.00  0.00    +0.000 C 
ATOM     23  C   UNL     1      12.725   5.309   0.000  0.00  0.00    +0.000 C 
ATOM     24  C   UNL     1      11.913   5.163   0.000  0.00  0.00    +0.000 C 
ATOM     25  O   UNL     1      11.381   5.794   0.000  0.00  0.00    +0.000 OA
ATOM     26  O   UNL     1      12.754   7.491   0.000  0.00  0.00    +0.000 OA
BRANCH  22  27
ATOM     27  O   UNL     1      13.818   6.230   0.000  0.00  0.00    +0.000 OA
BRANCH  27  28
ATOM     28  C   UNL     1      14.350   5.599   0.000  0.00  0.00    +0.000 C 
ATOM     29  O   UNL     1      15.162   5.744   0.000  0.00  0.00    +0.000 OA
ATOM     30  C   UNL     1      14.069   4.823   0.000  0.00  0.00    +0.000 C 
ENDBRANCH  27  28
ENDBRANCH  22  27
ENDBRANCH  18  24
ENDBRANCH  10  18
ENDBRANCH   9  13
ENDBRANCH   1   9
BRANCH   4  31
ATOM     31  O   UNL     1       7.263   0.703   0.000  0.00  0.00    +0.000 OA
BRANCH  31  32
ATOM     32  C   UNL     1       6.451   0.558   0.000  0.00  0.00    +0.000 C 
ATOM     33  C   UNL     1       6.171  -0.218   0.000  0.00  0.00    +0.000 C 
ATOM     34  C   UNL     1       5.359  -0.363   0.000  0.00  0.00    +0.000 C 
ATOM     35  C   UNL     1       4.827   0.267   0.000  0.00  0.00    +0.000 C 
ATOM     36  C   UNL     1       5.107   1.043   0.000  0.00  0.00    +0.000 C 
ATOM     37  C   UNL     1       5.919   1.188   0.000  0.00  0.00    +0.000 C 
ATOM     38  C   UNL     1       4.575   1.674   0.000  0.00  0.00    +0.000 C 
ATOM     39  C   UNL     1       3.763   1.529   0.000  0.00  0.00    +0.000 C 
ATOM     40  C   UNL     1       3.483   0.753   0.000  0.00  0.00    +0.000 C 
ATOM     41  C   UNL     1       4.015   0.122   0.000  0.00  0.00    +0.000 C 
ATOM     42  C   UNL     1       3.735  -0.654   0.000  0.00  0.00    +0.000 C 
ATOM     43  C   UNL     1       2.922  -0.799   0.000  0.00  0.00    +0.000 C 
ATOM     44  C   UNL     1       2.390  -0.168   0.000  0.00  0.00    +0.000 C 
ATOM     45  C   UNL     1       2.671   0.608   0.000  0.00  0.00    +0.000 C 
ATOM     46  C   UNL     1       2.019   1.114   0.000  0.00  0.00    +0.000 C 
ATOM     47  C   UNL     1       1.337   0.651   0.000  0.00  0.00    +0.000 C 
ATOM     48  C   UNL     1       1.566  -0.142   0.000  0.00  0.00    +0.000 C 
ATOM     49  O   UNL     1       2.869   1.409   0.000  0.00  0.00    +0.000 OA
ATOM     50  C   UNL     1       2.031  -0.911   0.000  0.00  0.00    +0.000 C 
ATOM     51  O   UNL     1       2.642  -1.575   0.000  0.00  0.00    +0.000 OA
ATOM     52  C   UNL     1       4.547  -0.509   0.000  0.00  0.00    +0.000 C 
BRANCH  48  53
ATOM     53  C   UNL     1       1.060  -0.793   0.000  0.00  0.00    +0.000 C 
ATOM     54  C   UNL     1       1.289  -1.585   0.000  0.00  0.00    +0.000 C 
ATOM     55  C   UNL     1       0.606  -2.048   0.000  0.00  0.00    +0.000 C 
ATOM     56  O   UNL     1       0.579  -2.873   0.000  0.00  0.00    +0.000 OA
ATOM     57  O   UNL     1      -0.045  -1.542   0.000  0.00  0.00    +0.000 OA
ATOM     58  C   UNL     1       0.235  -0.766   0.000  0.00  0.00    +0.000 C 
ENDBRANCH  48  53
ENDBRANCH  31  32
ENDBRANCH   4  31
TORSDOF 9
