REMARK  Name = 
REMARK  3 active torsions:
REMARK  status: ('A' for Active; 'I' for Inactive)
REMARK    1  A    between atoms: N_1  and  C_7
REMARK    2  A    between atoms: C_8  and  S_13
REMARK    3  A    between atoms: S_13  and  C_14
REMARK                            x       y       z     vdW  Elec       q    Type
REMARK                         _______ _______ _______ _____ _____    ______ ____
ROOT
ATOM      1  C   UNL     1       1.778  -0.400   0.000  0.00  0.00    +0.000 A 
ATOM      2  C   UNL     1       1.066  -0.817   0.000  0.00  0.00    +0.000 A 
ATOM      3  C   UNL     1       1.072  -1.643   0.000  0.00  0.00    +0.000 A 
ATOM      4  C   UNL     1       1.787  -2.049   0.000  0.00  0.00    +0.000 A 
ATOM      5  C   UNL     1       2.499  -1.632   0.000  0.00  0.00    +0.000 A 
ATOM      6  C   UNL     1       2.496  -0.810   0.000  0.00  0.00    +0.000 A 
ENDROOT
BRANCH   1   7
ATOM      7  N   UNL     1       1.773   0.426   0.000  0.00  0.00    +0.000 N 
ATOM      8  C   UNL     1       2.485   0.842   0.000  0.00  0.00    +0.000 C 
ATOM      9  C   UNL     1       2.481   1.665   0.000  0.00  0.00    +0.000 C 
ATOM     10  N   UNL     1       1.764   2.074   0.000  0.00  0.00    +0.000 NA
ATOM     11  C   UNL     1       1.052   1.658   0.000  0.00  0.00    +0.000 C 
ATOM     12  C   UNL     1       1.057   0.832   0.000  0.00  0.00    +0.000 C 
ENDBRANCH   1   7
BRANCH   2  13
ATOM     13  S   UNL     1       0.349  -0.408   0.000  0.00  0.00    +0.000 S 
BRANCH  13  14
ATOM     14  C   UNL     1      -0.363  -0.824   0.000  0.00  0.00    +0.000 A 
ATOM     15  C   UNL     1      -1.079  -0.418   0.000  0.00  0.00    +0.000 A 
ATOM     16  C   UNL     1      -1.791  -0.835   0.000  0.00  0.00    +0.000 A 
ATOM     17  C   UNL     1      -1.787  -1.658   0.000  0.00  0.00    +0.000 A 
ATOM     18  C   UNL     1      -1.070  -2.067   0.000  0.00  0.00    +0.000 A 
ATOM     19  C   UNL     1      -0.358  -1.650   0.000  0.00  0.00    +0.000 A 
ATOM     20  C   UNL     1      -2.499  -2.074   0.000  0.00  0.00    +0.000 C 
ATOM     21  C   UNL     1      -1.084   0.408   0.000  0.00  0.00    +0.000 C 
ENDBRANCH  13  14
ENDBRANCH   2  13
TORSDOF 3
