REMARK  Name = 
REMARK  2 active torsions:
REMARK  status: ('A' for Active; 'I' for Inactive)
REMARK    1  A    between atoms: C_6  and  C_7
REMARK    2  A    between atoms: C_7  and  C_8
REMARK                            x       y       z     vdW  Elec       q    Type
REMARK                         _______ _______ _______ _____ _____    ______ ____
ROOT
ATOM      1  C   UNL     1       0.715  -0.412   0.000  0.00  0.00    +0.000 A 
ATOM      2  C   UNL     1       1.429   0.000   0.000  0.00  0.00    +0.000 A 
ATOM      3  C   UNL     1       0.000   0.000   0.000  0.00  0.00    +0.000 A 
ATOM      4  C   UNL     1       1.429   0.825   0.000  0.00  0.00    +0.000 A 
ATOM      5  C   UNL     1       0.000   0.825   0.000  0.00  0.00    +0.000 A 
ATOM      6  C   UNL     1       0.715   1.238   0.000  0.00  0.00    +0.000 A 
ENDROOT
BRANCH   6   7
ATOM      7  C   UNL     1       0.715   2.062   0.000  0.00  0.00    +0.000 C 
ATOM      8  O   UNL     1       0.000   2.475   0.000  0.00  0.00    +0.000 OA
BRANCH   7   9
ATOM      9  C   UNL     1       1.429   2.475   0.000  0.00  0.00    +0.000 C 
ATOM     10  O   UNL     1       1.429   3.300   0.000  0.00  0.00    +0.000 OA
ATOM     11  O   UNL     1       2.143   2.062   0.000  0.00  0.00    +0.000 OA
ENDBRANCH   7   9
ENDBRANCH   6   7
TORSDOF 2
