REMARK  Name = 
REMARK  3 active torsions:
REMARK  status: ('A' for Active; 'I' for Inactive)
REMARK    1  A    between atoms: C_2  and  O_4
REMARK    2  A    between atoms: O_4  and  C_5
REMARK    3  A    between atoms: C_27  and  C_31
REMARK                            x       y       z     vdW  Elec       q    Type
REMARK                         _______ _______ _______ _____ _____    ______ ____
ROOT
ATOM      1  C   UNL     1       6.489   0.412   0.000  0.00  0.00    +0.000 C 
ATOM      2  C   UNL     1       6.077  -0.302   0.000  0.00  0.00    +0.000 C 
ATOM      3  C   UNL     1       5.252  -0.302   0.000  0.00  0.00    +0.000 C 
ATOM      4  C   UNL     1       4.840   0.412   0.000  0.00  0.00    +0.000 C 
ATOM      5  C   UNL     1       5.252   1.127   0.000  0.00  0.00    +0.000 C 
ATOM      6  C   UNL     1       6.077   1.127   0.000  0.00  0.00    +0.000 C 
ATOM      7  C   UNL     1       6.106   1.952   0.000  0.00  0.00    +0.000 C 
ATOM      8  C   UNL     1       6.777   1.564   0.000  0.00  0.00    +0.000 C 
ATOM      9  C   UNL     1       4.840   1.841   0.000  0.00  0.00    +0.000 C 
ATOM     10  C   UNL     1       4.014   1.841   0.000  0.00  0.00    +0.000 C 
ATOM     11  C   UNL     1       3.602   1.127   0.000  0.00  0.00    +0.000 C 
ATOM     12  C   UNL     1       4.014   0.412   0.000  0.00  0.00    +0.000 C 
ATOM     13  C   UNL     1       3.602  -0.302   0.000  0.00  0.00    +0.000 C 
ATOM     14  O   UNL     1       4.014  -1.016   0.000  0.00  0.00    +0.000 OA
ATOM     15  C   UNL     1       2.777  -0.302   0.000  0.00  0.00    +0.000 C 
ATOM     16  C   UNL     1       2.365   0.412   0.000  0.00  0.00    +0.000 C 
ATOM     17  C   UNL     1       2.777   1.127   0.000  0.00  0.00    +0.000 C 
ATOM     18  C   UNL     1       2.365   1.841   0.000  0.00  0.00    +0.000 C 
ATOM     19  C   UNL     1       1.540   1.841   0.000  0.00  0.00    +0.000 C 
ATOM     20  C   UNL     1       1.127   1.127   0.000  0.00  0.00    +0.000 C 
ATOM     21  C   UNL     1       1.540   0.412   0.000  0.00  0.00    +0.000 C 
ATOM     22  C   UNL     1       1.127  -0.302   0.000  0.00  0.00    +0.000 C 
ATOM     23  C   UNL     1       0.302  -0.302   0.000  0.00  0.00    +0.000 C 
ATOM     24  C   UNL     1      -0.111   0.412   0.000  0.00  0.00    +0.000 C 
ATOM     25  C   UNL     1       0.302   1.127   0.000  0.00  0.00    +0.000 C 
ATOM     26  C   UNL     1       0.273  -1.127   0.000  0.00  0.00    +0.000 C 
ATOM     27  C   UNL     1       0.715   1.841   0.000  0.00  0.00    +0.000 C 
ATOM     28  C   UNL     1       3.189   1.841   0.000  0.00  0.00    +0.000 C 
ATOM     29  C   UNL     1       3.688   1.948   0.000  0.00  0.00    +0.000 C 
ATOM     30  C   UNL     1       4.427  -0.302   0.000  0.00  0.00    +0.000 C 
ENDROOT
BRANCH  23  31
ATOM     31  C   UNL     1      -0.398  -0.739   0.000  0.00  0.00    +0.000 C 
ATOM     32  O   UNL     1      -0.369  -1.564   0.000  0.00  0.00    +0.000 OA
ATOM     33  O   UNL     1      -1.126  -0.352   0.000  0.00  0.00    +0.000 OA
ENDBRANCH  23  31
BRANCH   1  34
ATOM     34  O   UNL     1       7.314   0.412   0.000  0.00  0.00    +0.000 OA
BRANCH  34  36
ATOM     35  C   UNL     1       7.314  -1.016   0.000  0.00  0.00    +0.000 C 
ATOM     36  C   UNL     1       7.727  -0.302   0.000  0.00  0.00    +0.000 C 
ATOM     37  O   UNL     1       8.552  -0.302   0.000  0.00  0.00    +0.000 OA
ENDBRANCH  34  36
ENDBRANCH   1  34
TORSDOF 3
