REMARK  Name = 
REMARK  16 active torsions:
REMARK  status: ('A' for Active; 'I' for Inactive)
REMARK    1  A    between atoms: C_1  and  C_3
REMARK    2  A    between atoms: C_21  and  C_22
REMARK    3  A    between atoms: C_25  and  O_28
REMARK    4  A    between atoms: O_28  and  C_29
REMARK    5  A    between atoms: C_30  and  O_31
REMARK    6  A    between atoms: O_31  and  C_32
REMARK    7  A    between atoms: C_34  and  C_35
REMARK    8  A    between atoms: C_46  and  O_52
REMARK    9  A    between atoms: C_47  and  C_49
REMARK   10  A    between atoms: O_52  and  C_53
REMARK   11  A    between atoms: C_55  and  C_56
REMARK   12  A    between atoms: C_70  and  O_73
REMARK   13  A    between atoms: C_71  and  O_72
REMARK   14  A    between atoms: O_72  and  C_85
REMARK   15  A    between atoms: O_73  and  C_74
REMARK   16  A    between atoms: C_74  and  C_75
REMARK                            x       y       z     vdW  Elec       q    Type
REMARK                         _______ _______ _______ _____ _____    ______ ____
ROOT
ATOM      1  C   UNL     1      -1.545  -3.797   0.000  0.00  0.00    +0.000 C 
ATOM      2  C   UNL     1      -1.545  -2.972   0.000  0.00  0.00    +0.000 C 
ATOM      3  C   UNL     1      -0.831  -2.559   0.000  0.00  0.00    +0.000 C 
ATOM      4  C   UNL     1      -0.116  -2.972   0.000  0.00  0.00    +0.000 C 
ATOM      5  C   UNL     1      -0.116  -3.797   0.000  0.00  0.00    +0.000 C 
ATOM      6  C   UNL     1      -0.831  -4.209   0.000  0.00  0.00    +0.000 C 
ATOM      7  O   UNL     1      -0.831  -5.034   0.000  0.00  0.00    +0.000 OA
ATOM      8  C   UNL     1      -0.116  -2.147   0.000  0.00  0.00    +0.000 C 
ATOM      9  C   UNL     1       0.598  -2.559   0.000  0.00  0.00    +0.000 C 
ATOM     10  C   UNL     1       0.598  -3.384   0.000  0.00  0.00    +0.000 C 
ATOM     11  C   UNL     1       0.598  -1.734   0.000  0.00  0.00    +0.000 C 
ATOM     12  C   UNL     1      -0.116  -1.322   0.000  0.00  0.00    +0.000 C 
ATOM     13  C   UNL     1      -0.831  -1.734   0.000  0.00  0.00    +0.000 C 
ATOM     14  C   UNL     1       1.313  -1.322   0.000  0.00  0.00    +0.000 C 
ATOM     15  C   UNL     1       1.313  -2.147   0.000  0.00  0.00    +0.000 C 
ATOM     16  C   UNL     1       2.027  -1.734   0.000  0.00  0.00    +0.000 C 
ATOM     17  C   UNL     1       2.027  -2.559   0.000  0.00  0.00    +0.000 C 
ATOM     18  C   UNL     1       1.313  -2.972   0.000  0.00  0.00    +0.000 C 
ATOM     19  C   UNL     1       2.742  -1.322   0.000  0.00  0.00    +0.000 C 
ATOM     20  C   UNL     1       3.024  -2.097   0.000  0.00  0.00    +0.000 C 
ATOM     21  C   UNL     1       2.742  -0.497   0.000  0.00  0.00    +0.000 C 
ATOM     22  C   UNL     1       2.027  -0.084   0.000  0.00  0.00    +0.000 C 
ATOM     23  C   UNL     1       1.313  -0.497   0.000  0.00  0.00    +0.000 C 
ATOM     24  C   UNL     1      -2.259  -2.559   0.000  0.00  0.00    +0.000 C 
ATOM     25  C   UNL     1      -2.974  -2.972   0.000  0.00  0.00    +0.000 C 
ATOM     26  C   UNL     1      -2.974  -3.797   0.000  0.00  0.00    +0.000 C 
ATOM     27  C   UNL     1      -2.259  -4.209   0.000  0.00  0.00    +0.000 C 
ATOM     28  C   UNL     1      -3.256  -2.196   0.000  0.00  0.00    +0.000 C 
ATOM     29  C   UNL     1      -3.786  -3.115   0.000  0.00  0.00    +0.000 C 
ENDROOT
BRANCH  19  30
ATOM     30  C   UNL     1       3.554  -1.178   0.000  0.00  0.00    +0.000 C 
ATOM     31  O   UNL     1       4.085  -1.810   0.000  0.00  0.00    +0.000 OA
ENDBRANCH  19  30
BRANCH   1  32
ATOM     32  C   UNL     1      -1.827  -4.572   0.000  0.00  0.00    +0.000 C 
ATOM     33  O   UNL     1      -1.297  -5.204   0.000  0.00  0.00    +0.000 OA
ENDBRANCH   1  32
BRANCH  27  34
ATOM     34  O   UNL     1      -2.259  -5.034   0.000  0.00  0.00    +0.000 OA
BRANCH  34  37
ATOM     35  O   UNL     1      -2.974  -6.272   0.000  0.00  0.00    +0.000 OA
ATOM     36  C   UNL     1      -3.688  -5.034   0.000  0.00  0.00    +0.000 C 
ATOM     37  C   UNL     1      -2.974  -5.447   0.000  0.00  0.00    +0.000 C 
ENDBRANCH  34  37
ENDBRANCH  27  34
BRANCH  26  38
ATOM     38  O   UNL     1      -3.688  -4.209   0.000  0.00  0.00    +0.000 OA
BRANCH  38  39
ATOM     39  C   UNL     1      -4.403  -3.797   0.000  0.00  0.00    +0.000 C 
ATOM     40  O   UNL     1      -4.403  -2.972   0.000  0.00  0.00    +0.000 OA
BRANCH  39  41
ATOM     41  C   UNL     1      -5.117  -4.209   0.000  0.00  0.00    +0.000 C 
ATOM     42  C   UNL     1      -5.832  -3.797   0.000  0.00  0.00    +0.000 C 
ATOM     43  C   UNL     1      -5.760  -2.969   0.000  0.00  0.00    +0.000 C 
ATOM     44  C   UNL     1      -5.117  -5.034   0.000  0.00  0.00    +0.000 C 
ENDBRANCH  39  41
ENDBRANCH  38  39
ENDBRANCH  26  38
BRANCH  21  45
ATOM     45  O   UNL     1       3.456  -0.084   0.000  0.00  0.00    +0.000 OA
BRANCH  45  46
ATOM     46  C   UNL     1       3.313   0.728   0.000  0.00  0.00    +0.000 C 
ATOM     47  C   UNL     1       2.900   1.443   0.000  0.00  0.00    +0.000 C 
ATOM     48  C   UNL     1       3.313   2.157   0.000  0.00  0.00    +0.000 C 
ATOM     49  O   UNL     1       2.900   2.872   0.000  0.00  0.00    +0.000 OA
ATOM     50  C   UNL     1       4.138   2.157   0.000  0.00  0.00    +0.000 C 
ATOM     51  C   UNL     1       4.550   1.443   0.000  0.00  0.00    +0.000 C 
ATOM     52  O   UNL     1       4.138   0.728   0.000  0.00  0.00    +0.000 OA
BRANCH  51  53
ATOM     53  C   UNL     1       5.375   1.443   0.000  0.00  0.00    +0.000 C 
ATOM     54  O   UNL     1       5.788   2.157   0.000  0.00  0.00    +0.000 OA
ATOM     55  O   UNL     1       5.788   0.728   0.000  0.00  0.00    +0.000 OA
ENDBRANCH  51  53
BRANCH  50  56
ATOM     56  O   UNL     1       4.550   2.872   0.000  0.00  0.00    +0.000 OA
BRANCH  56  57
ATOM     57  C   UNL     1       4.138   3.586   0.000  0.00  0.00    +0.000 C 
ATOM     58  O   UNL     1       3.506   4.116   0.000  0.00  0.00    +0.000 OA
ATOM     59  C   UNL     1       3.649   4.929   0.000  0.00  0.00    +0.000 C 
ATOM     60  C   UNL     1       4.425   5.211   0.000  0.00  0.00    +0.000 C 
ATOM     61  C   UNL     1       5.056   4.681   0.000  0.00  0.00    +0.000 C 
ATOM     62  C   UNL     1       4.913   3.868   0.000  0.00  0.00    +0.000 C 
ATOM     63  O   UNL     1       5.545   3.338   0.000  0.00  0.00    +0.000 OA
ATOM     64  O   UNL     1       5.832   4.963   0.000  0.00  0.00    +0.000 OA
ATOM     65  O   UNL     1       4.568   6.023   0.000  0.00  0.00    +0.000 OA
BRANCH  59  66
ATOM     66  C   UNL     1       3.017   5.459   0.000  0.00  0.00    +0.000 C 
ATOM     67  O   UNL     1       3.160   6.272   0.000  0.00  0.00    +0.000 OA
ENDBRANCH  59  66
ENDBRANCH  56  57
ENDBRANCH  50  56
BRANCH  47  68
ATOM     68  O   UNL     1       2.075   1.443   0.000  0.00  0.00    +0.000 OA
BRANCH  68  69
ATOM     69  C   UNL     1       1.793   2.218   0.000  0.00  0.00    +0.000 C 
ATOM     70  O   UNL     1       1.793   3.043   0.000  0.00  0.00    +0.000 OA
ATOM     71  C   UNL     1       1.079   3.455   0.000  0.00  0.00    +0.000 C 
ATOM     72  C   UNL     1       0.364   3.043   0.000  0.00  0.00    +0.000 C 
ATOM     73  C   UNL     1       0.364   2.218   0.000  0.00  0.00    +0.000 C 
ATOM     74  C   UNL     1       1.079   1.805   0.000  0.00  0.00    +0.000 C 
ATOM     75  O   UNL     1       1.079   0.981   0.000  0.00  0.00    +0.000 OA
ATOM     76  O   UNL     1      -0.350   1.805   0.000  0.00  0.00    +0.000 OA
ATOM     77  O   UNL     1      -0.350   3.455   0.000  0.00  0.00    +0.000 OA
BRANCH  71  78
ATOM     78  C   UNL     1       1.079   4.280   0.000  0.00  0.00    +0.000 C 
ATOM     79  O   UNL     1       0.364   4.693   0.000  0.00  0.00    +0.000 OA
ENDBRANCH  71  78
ENDBRANCH  68  69
ENDBRANCH  47  68
ENDBRANCH  45  46
ENDBRANCH  21  45
TORSDOF 16
