REMARK  Name = 
REMARK  10 active torsions:
REMARK  status: ('A' for Active; 'I' for Inactive)
REMARK    1  A    between atoms: C_2  and  C_3
REMARK    2  A    between atoms: C_5  and  C_17
REMARK    3  A    between atoms: C_8  and  C_9
REMARK    4  A    between atoms: C_9  and  N_10
REMARK    5  A    between atoms: C_12  and  C_14
REMARK    6  A    between atoms: N_18  and  O_19
REMARK    7  A    between atoms: O_19  and  C_20
REMARK    8  A    between atoms: C_20  and  C_21
REMARK    9  A    between atoms: C_24  and  C_31
REMARK   10  A    between atoms: C_25  and  C_27
REMARK                            x       y       z     vdW  Elec       q    Type
REMARK                         _______ _______ _______ _____ _____    ______ ____
ROOT
ATOM      1  C   UNL     1       4.792  -6.308   0.000  0.00  0.00    +0.000 C 
ATOM      2  N   UNL     1       5.506  -6.721   0.000  0.00  0.00    +0.000 NA
ATOM      3  C   UNL     1       4.792  -5.483   0.000  0.00  0.00    +0.000 C 
ENDROOT
BRANCH   1   6
ATOM      4  C   UNL     1       2.649  -6.721   0.000  0.00  0.00    +0.000 A 
ATOM      5  C   UNL     1       3.363  -6.308   0.000  0.00  0.00    +0.000 A 
ATOM      6  C   UNL     1       4.078  -6.721   0.000  0.00  0.00    +0.000 A 
ATOM      7  C   UNL     1       4.078  -7.546   0.000  0.00  0.00    +0.000 A 
ATOM      8  C   UNL     1       3.363  -7.958   0.000  0.00  0.00    +0.000 A 
ATOM      9  C   UNL     1       2.649  -7.546   0.000  0.00  0.00    +0.000 A 
BRANCH   4  11
ATOM     10  C   UNL     1       1.220  -6.721   0.000  0.00  0.00    +0.000 C 
ATOM     11  C   UNL     1       1.934  -6.308   0.000  0.00  0.00    +0.000 C 
ENDBRANCH   4  11
BRANCH   9  12
ATOM     12  C   UNL     1       1.934  -7.958   0.000  0.00  0.00    +0.000 C 
BRANCH  12  13
ATOM     13  N   UNL     1       1.934  -8.783   0.000  0.00  0.00    +0.000 NA
ATOM     14  C   UNL     1       2.518  -9.367   0.000  0.00  0.00    +0.000 C 
ATOM     15  C   UNL     1       1.934  -9.950   0.000  0.00  0.00    +0.000 C 
ATOM     16  C   UNL     1       1.351  -9.367   0.000  0.00  0.00    +0.000 C 
BRANCH  15  17
ATOM     17  C   UNL     1       1.934 -10.775   0.000  0.00  0.00    +0.000 C 
ATOM     18  O   UNL     1       1.220 -11.188   0.000  0.00  0.00    +0.000 OA
ATOM     19  O   UNL     1       2.649 -11.188   0.000  0.00  0.00    +0.000 OA
ENDBRANCH  15  17
ENDBRANCH  12  13
ENDBRANCH   9  12
ENDBRANCH   1   6
BRANCH   2  20
ATOM     20  O   UNL     1       6.221  -6.308   0.000  0.00  0.00    +0.000 OA
BRANCH  20  21
ATOM     21  C   UNL     1       6.221  -5.483   0.000  0.00  0.00    +0.000 C 
BRANCH  21  22
ATOM     22  C   UNL     1       6.935  -5.071   0.000  0.00  0.00    +0.000 A 
ATOM     23  C   UNL     1       6.935  -4.246   0.000  0.00  0.00    +0.000 A 
ATOM     24  C   UNL     1       7.650  -3.833   0.000  0.00  0.00    +0.000 A 
ATOM     25  C   UNL     1       8.364  -4.246   0.000  0.00  0.00    +0.000 A 
ATOM     26  C   UNL     1       8.364  -5.071   0.000  0.00  0.00    +0.000 A 
ATOM     27  C   UNL     1       7.650  -5.483   0.000  0.00  0.00    +0.000 A 
BRANCH  25  28
ATOM     28  C   UNL     1       9.079  -3.833   0.000  0.00  0.00    +0.000 C 
ATOM     29  C   UNL     1       9.079  -3.008   0.000  0.00  0.00    +0.000 C 
ATOM     30  C   UNL     1       9.793  -2.596   0.000  0.00  0.00    +0.000 C 
ATOM     31  C   UNL     1      10.508  -3.008   0.000  0.00  0.00    +0.000 C 
ATOM     32  C   UNL     1      10.508  -3.833   0.000  0.00  0.00    +0.000 C 
ATOM     33  C   UNL     1       9.793  -4.246   0.000  0.00  0.00    +0.000 C 
ENDBRANCH  25  28
BRANCH  26  34
ATOM     34  C   UNL     1       9.079  -5.483   0.000  0.00  0.00    +0.000 C 
ATOM     35  F   UNL     1       9.793  -5.896   0.000  0.00  0.00    +0.000 F 
ATOM     36  F   UNL     1       8.666  -6.198   0.000  0.00  0.00    +0.000 F 
ATOM     37  F   UNL     1       9.491  -4.769   0.000  0.00  0.00    +0.000 F 
ENDBRANCH  26  34
ENDBRANCH  21  22
ENDBRANCH  20  21
ENDBRANCH   2  20
TORSDOF 10
