REMARK  Name = 
REMARK  4 active torsions:
REMARK  status: ('A' for Active; 'I' for Inactive)
REMARK    1  A    between atoms: C_1  and  C_5
REMARK    2  A    between atoms: C_5  and  C_32
REMARK    3  A    between atoms: C_32  and  O_33
REMARK    4  A    between atoms: O_33  and  C_34
REMARK                            x       y       z     vdW  Elec       q    Type
REMARK                         _______ _______ _______ _____ _____    ______ ____
ROOT
ATOM      1  C   UNL     1       1.491   0.062   0.000  0.00  0.00    +0.000 C 
ATOM      2  C   UNL     1       0.706  -0.193   0.000  0.00  0.00    +0.000 C 
ATOM      3  C   UNL     1       1.976  -0.606   0.000  0.00  0.00    +0.000 C 
ATOM      4  O   UNL     1       1.976   0.729   0.000  0.00  0.00    +0.000 OA
ATOM      5  C   UNL     1       0.706  -1.018   0.000  0.00  0.00    +0.000 C 
ATOM      6  C   UNL     1      -0.008   0.219   0.000  0.00  0.00    +0.000 C 
ATOM      7  C   UNL     1       0.692   0.636   0.000  0.00  0.00    +0.000 C 
ATOM      8  C   UNL     1       1.491  -1.273   0.000  0.00  0.00    +0.000 C 
ATOM      9  O   UNL     1       2.760  -0.351   0.000  0.00  0.00    +0.000 OA
ATOM     10  C   UNL     1       2.760   0.474   0.000  0.00  0.00    +0.000 C 
ATOM     11  C   UNL     1      -0.008  -1.431   0.000  0.00  0.00    +0.000 C 
ATOM     12  C   UNL     1      -0.723  -0.193   0.000  0.00  0.00    +0.000 C 
ATOM     13  C   UNL     1       2.932   1.281   0.000  0.00  0.00    +0.000 C 
ATOM     14  C   UNL     1       3.581   0.388   0.000  0.00  0.00    +0.000 C 
ATOM     15  C   UNL     1      -0.723  -1.018   0.000  0.00  0.00    +0.000 C 
ATOM     16  C   UNL     1      -0.008  -2.256   0.000  0.00  0.00    +0.000 C 
ATOM     17  O   UNL     1      -1.437   0.219   0.000  0.00  0.00    +0.000 OA
ATOM     18  C   UNL     1      -1.437  -1.431   0.000  0.00  0.00    +0.000 C 
ATOM     19  F   UNL     1      -0.719  -1.908   0.000  0.00  0.00    +0.000 F 
ATOM     20  C   UNL     1      -0.723  -2.668   0.000  0.00  0.00    +0.000 C 
ATOM     21  C   UNL     1      -1.437  -2.256   0.000  0.00  0.00    +0.000 C 
ATOM     22  C   UNL     1      -2.152  -1.018   0.000  0.00  0.00    +0.000 C 
ATOM     23  C   UNL     1      -1.473  -0.628   0.000  0.00  0.00    +0.000 C 
ATOM     24  F   UNL     1      -0.723  -3.493   0.000  0.00  0.00    +0.000 F 
ATOM     25  C   UNL     1      -2.152  -2.668   0.000  0.00  0.00    +0.000 C 
ATOM     26  C   UNL     1      -2.866  -1.431   0.000  0.00  0.00    +0.000 C 
ATOM     27  C   UNL     1      -2.866  -2.256   0.000  0.00  0.00    +0.000 C 
ATOM     28  O   UNL     1      -3.581  -2.668   0.000  0.00  0.00    +0.000 OA
ENDROOT
BRANCH   1  29
ATOM     29  C   UNL     1       1.404   0.882   0.000  0.00  0.00    +0.000 C 
ATOM     30  O   UNL     1       0.791   1.434   0.000  0.00  0.00    +0.000 OA
BRANCH  29  31
ATOM     31  C   UNL     1       2.072   1.367   0.000  0.00  0.00    +0.000 C 
BRANCH  31  32
ATOM     32  O   UNL     1       1.986   2.188   0.000  0.00  0.00    +0.000 OA
BRANCH  32  33
ATOM     33  C   UNL     1       2.653   2.673   0.000  0.00  0.00    +0.000 C 
ATOM     34  O   UNL     1       2.567   3.493   0.000  0.00  0.00    +0.000 OA
ATOM     35  C   UNL     1       3.407   2.337   0.000  0.00  0.00    +0.000 C 
ENDBRANCH  32  33
ENDBRANCH  31  32
ENDBRANCH  29  31
ENDBRANCH   1  29
TORSDOF 4
