REMARK  Name = 
REMARK  6 active torsions:
REMARK  status: ('A' for Active; 'I' for Inactive)
REMARK    1  A    between atoms: C_3  and  C_6
REMARK    2  A    between atoms: N_5  and  C_9
REMARK    3  A    between atoms: C_9  and  C_10
REMARK    4  A    between atoms: C_9  and  C_12
REMARK    5  A    between atoms: C_12  and  C_13
REMARK    6  A    between atoms: C_13  and  C_14
REMARK                            x       y       z     vdW  Elec       q    Type
REMARK                         _______ _______ _______ _____ _____    ______ ____
ROOT
ATOM      1  C   UNL     1       0.948   1.154   0.000  0.00  0.00    +0.000 C 
ENDROOT
BRANCH   1   6
ATOM      2  C   UNL     1       0.147   2.387   0.000  0.00  0.00    +0.000 A 
ATOM      3  N   UNL     1      -0.659   2.558   0.000  0.00  0.00    +0.000 NA
ATOM      4  C   UNL     1      -1.072   1.844   0.000  0.00  0.00    +0.000 A 
ATOM      5  C   UNL     1      -0.520   1.231   0.000  0.00  0.00    +0.000 A 
ATOM      6  N   UNL     1       0.234   1.567   0.000  0.00  0.00    +0.000 N 
BRANCH   4   7
ATOM      7  C   UNL     1      -1.892   1.758   0.000  0.00  0.00    +0.000 C 
ATOM      8  O   UNL     1      -2.228   1.004   0.000  0.00  0.00    +0.000 OA
ATOM      9  N   UNL     1      -2.377   2.425   0.000  0.00  0.00    +0.000 NA
ENDBRANCH   4   7
ENDBRANCH   1   6
BRANCH   1  10
ATOM     10  C   UNL     1       1.663   1.567   0.000  0.00  0.00    +0.000 C 
ATOM     11  C   UNL     1       1.663   2.391   0.000  0.00  0.00    +0.000 C 
ATOM     12  O   UNL     1       2.377   1.154   0.000  0.00  0.00    +0.000 OA
ENDBRANCH   1  10
BRANCH   1  13
ATOM     13  C   UNL     1       0.948   0.329   0.000  0.00  0.00    +0.000 C 
BRANCH  13  14
ATOM     14  C   UNL     1       0.234  -0.083   0.000  0.00  0.00    +0.000 C 
BRANCH  14  15
ATOM     15  C   UNL     1       0.234  -0.908   0.000  0.00  0.00    +0.000 A 
ATOM     16  C   UNL     1       0.948  -1.321   0.000  0.00  0.00    +0.000 A 
ATOM     17  C   UNL     1       0.948  -2.146   0.000  0.00  0.00    +0.000 A 
ATOM     18  C   UNL     1       0.234  -2.558   0.000  0.00  0.00    +0.000 A 
ATOM     19  C   UNL     1      -0.480  -2.146   0.000  0.00  0.00    +0.000 A 
ATOM     20  C   UNL     1      -1.195  -2.558   0.000  0.00  0.00    +0.000 A 
ATOM     21  C   UNL     1      -1.909  -2.146   0.000  0.00  0.00    +0.000 A 
ATOM     22  C   UNL     1      -1.909  -1.321   0.000  0.00  0.00    +0.000 A 
ATOM     23  C   UNL     1      -1.195  -0.908   0.000  0.00  0.00    +0.000 A 
ATOM     24  C   UNL     1      -0.480  -1.321   0.000  0.00  0.00    +0.000 A 
ENDBRANCH  14  15
ENDBRANCH  13  14
ENDBRANCH   1  13
TORSDOF 6
