REMARK  Name = 
REMARK  9 active torsions:
REMARK  status: ('A' for Active; 'I' for Inactive)
REMARK    1  A    between atoms: C_2  and  C_3
REMARK    2  A    between atoms: C_4  and  C_25
REMARK    3  A    between atoms: N_7  and  C_8
REMARK    4  A    between atoms: C_8  and  C_9
REMARK    5  A    between atoms: C_18  and  O_19
REMARK    6  A    between atoms: O_19  and  C_20
REMARK    7  A    between atoms: C_20  and  C_21
REMARK    8  A    between atoms: C_21  and  O_23
REMARK    9  A    between atoms: C_25  and  C_27
REMARK                            x       y       z     vdW  Elec       q    Type
REMARK                         _______ _______ _______ _____ _____    ______ ____
ROOT
ATOM      1  C   UNL     1       0.159   2.062   0.000  0.00  0.00    +0.000 A 
ATOM      2  C   UNL     1       0.644   1.395   0.000  0.00  0.00    +0.000 A 
ATOM      3  C   UNL     1       1.429   1.650   0.000  0.00  0.00    +0.000 A 
ATOM      4  C   UNL     1       1.429   2.475   0.000  0.00  0.00    +0.000 A 
ATOM      5  N   UNL     1       0.644   2.730   0.000  0.00  0.00    +0.000 N 
ATOM      6  C   UNL     1       2.143   2.888   0.000  0.00  0.00    +0.000 A 
ATOM      7  C   UNL     1       2.858   2.475   0.000  0.00  0.00    +0.000 A 
ATOM      8  C   UNL     1       2.858   1.650   0.000  0.00  0.00    +0.000 A 
ATOM      9  C   UNL     1       2.143   1.238   0.000  0.00  0.00    +0.000 A 
ENDROOT
BRANCH   1  11
ATOM     10  C   UNL     1      -1.078   1.348   0.000  0.00  0.00    +0.000 C 
ATOM     11  C   UNL     1      -0.666   2.062   0.000  0.00  0.00    +0.000 C 
ENDBRANCH   1  11
BRANCH   2  12
ATOM     12  C   UNL     1       0.389   0.610   0.000  0.00  0.00    +0.000 C 
ATOM     13  O   UNL     1      -0.418   0.439   0.000  0.00  0.00    +0.000 OA
BRANCH  12  14
ATOM     14  C   UNL     1       0.941  -0.003   0.000  0.00  0.00    +0.000 C 
ATOM     15  O   UNL     1       0.686  -0.787   0.000  0.00  0.00    +0.000 OA
ATOM     16  N   UNL     1       1.748   0.169   0.000  0.00  0.00    +0.000 NA
ENDBRANCH  12  14
ENDBRANCH   2  12
BRANCH   9  17
ATOM     17  O   UNL     1       2.143   0.412   0.000  0.00  0.00    +0.000 OA
BRANCH  17  18
ATOM     18  C   UNL     1       2.858   0.000   0.000  0.00  0.00    +0.000 C 
BRANCH  18  19
ATOM     19  C   UNL     1       3.572   0.412   0.000  0.00  0.00    +0.000 C 
ATOM     20  O   UNL     1       3.572   1.238   0.000  0.00  0.00    +0.000 OA
BRANCH  19  21
ATOM     21  O   UNL     1       4.287   0.000   0.000  0.00  0.00    +0.000 OA
ATOM     22  C   UNL     1       5.001   0.412   0.000  0.00  0.00    +0.000 C 
ENDBRANCH  19  21
ENDBRANCH  18  19
ENDBRANCH  17  18
ENDBRANCH   9  17
BRANCH   5  23
ATOM     23  C   UNL     1       0.389   3.515   0.000  0.00  0.00    +0.000 C 
BRANCH  23  24
ATOM     24  C   UNL     1      -0.418   3.686   0.000  0.00  0.00    +0.000 A 
ATOM     25  C   UNL     1      -0.970   3.073   0.000  0.00  0.00    +0.000 A 
ATOM     26  C   UNL     1      -1.777   3.244   0.000  0.00  0.00    +0.000 A 
ATOM     27  C   UNL     1      -2.031   4.029   0.000  0.00  0.00    +0.000 A 
ATOM     28  C   UNL     1      -1.480   4.642   0.000  0.00  0.00    +0.000 A 
ATOM     29  C   UNL     1      -0.672   4.471   0.000  0.00  0.00    +0.000 A 
ENDBRANCH  23  24
ENDBRANCH   5  23
TORSDOF 9
