REMARK  Name = 
REMARK  0 active torsions:
REMARK  status: ('A' for Active; 'I' for Inactive)
REMARK                            x       y       z     vdW  Elec       q    Type
REMARK                         _______ _______ _______ _____ _____    ______ ____
ROOT
ATOM      1  C   UNL     1       0.414   0.632   0.000  0.00  0.00    +0.000 C 
ATOM      2  C   UNL     1      -0.412   0.632   0.000  0.00  0.00    +0.000 C 
ATOM      3  C   UNL     1       0.667  -0.143   0.000  0.00  0.00    +0.000 C 
ATOM      4  C   UNL     1      -0.667  -0.153   0.000  0.00  0.00    +0.000 C 
ATOM      5  N   UNL     1       0.003  -0.632   0.000  0.00  0.00    +0.000 NA
ENDROOT
TORSDOF 0
