REMARK  Name = 
REMARK  4 active torsions:
REMARK  status: ('A' for Active; 'I' for Inactive)
REMARK    1  A    between atoms: C_15  and  C_26
REMARK    2  A    between atoms: C_26  and  C_27
REMARK    3  A    between atoms: C_27  and  C_28
REMARK    4  A    between atoms: C_28  and  C_29
REMARK                            x       y       z     vdW  Elec       q    Type
REMARK                         _______ _______ _______ _____ _____    ______ ____
ROOT
ATOM      1  C   UNL     1      -2.534  -0.300   0.000  0.00  0.00    +0.000 C 
ATOM      2  C   UNL     1      -3.254  -0.704   0.000  0.00  0.00    +0.000 C 
ATOM      3  C   UNL     1      -3.265  -1.529   0.000  0.00  0.00    +0.000 C 
ATOM      4  C   UNL     1      -2.556  -1.950   0.000  0.00  0.00    +0.000 C 
ATOM      5  C   UNL     1      -1.836  -1.547   0.000  0.00  0.00    +0.000 C 
ATOM      6  C   UNL     1      -1.825  -0.722   0.000  0.00  0.00    +0.000 C 
ATOM      7  C   UNL     1      -1.106  -0.319   0.000  0.00  0.00    +0.000 C 
ATOM      8  C   UNL     1      -1.127  -1.969   0.000  0.00  0.00    +0.000 C 
ATOM      9  C   UNL     1      -0.407  -1.566   0.000  0.00  0.00    +0.000 C 
ATOM     10  C   UNL     1      -0.397  -0.741   0.000  0.00  0.00    +0.000 C 
ATOM     11  C   UNL     1      -0.375   0.909   0.000  0.00  0.00    +0.000 C 
ATOM     12  C   UNL     1      -1.095   0.506   0.000  0.00  0.00    +0.000 C 
ATOM     13  C   UNL     1       0.323  -0.338   0.000  0.00  0.00    +0.000 C 
ATOM     14  C   UNL     1       0.334   0.487   0.000  0.00  0.00    +0.000 C 
ATOM     15  C   UNL     1       1.122   0.732   0.000  0.00  0.00    +0.000 C 
ATOM     16  C   UNL     1       1.104  -0.603   0.000  0.00  0.00    +0.000 C 
ATOM     17  C   UNL     1       1.598   0.058   0.000  0.00  0.00    +0.000 C 
ATOM     18  O   UNL     1      -3.980  -1.941   0.000  0.00  0.00    +0.000 OA
ATOM     19  O   UNL     1      -1.127  -2.794   0.000  0.00  0.00    +0.000 OA
ATOM     20  C   UNL     1      -1.825   0.103   0.000  0.00  0.00    +0.000 C 
ATOM     21  C   UNL     1       0.334   1.312   0.000  0.00  0.00    +0.000 C 
ENDROOT
BRANCH  15  22
ATOM     22  C   UNL     1       1.122   1.557   0.000  0.00  0.00    +0.000 C 
ATOM     23  C   UNL     1       0.407   1.969   0.000  0.00  0.00    +0.000 C 
BRANCH  22  24
ATOM     24  C   UNL     1       1.836   1.969   0.000  0.00  0.00    +0.000 C 
BRANCH  24  25
ATOM     25  C   UNL     1       2.551   1.557   0.000  0.00  0.00    +0.000 C 
BRANCH  25  26
ATOM     26  C   UNL     1       3.265   1.969   0.000  0.00  0.00    +0.000 C 
ATOM     27  O   UNL     1       3.980   1.557   0.000  0.00  0.00    +0.000 OA
ATOM     28  O   UNL     1       3.265   2.794   0.000  0.00  0.00    +0.000 OA
ENDBRANCH  25  26
ENDBRANCH  24  25
ENDBRANCH  22  24
ENDBRANCH  15  22
TORSDOF 4
