REMARK  Name = 
REMARK  6 active torsions:
REMARK  status: ('A' for Active; 'I' for Inactive)
REMARK    1  A    between atoms: N_6  and  C_7
REMARK    2  A    between atoms: C_7  and  C_8
REMARK    3  A    between atoms: C_8  and  C_9
REMARK    4  A    between atoms: C_9  and  O_10
REMARK    5  A    between atoms: O_10  and  C_11
REMARK    6  A    between atoms: C_14  and  C_17
REMARK                            x       y       z     vdW  Elec       q    Type
REMARK                         _______ _______ _______ _____ _____    ______ ____
ROOT
ATOM      1  C   UNL     1       3.572  -5.362   0.000  0.00  0.00    +0.000 A 
ATOM      2  C   UNL     1       4.287  -4.950   0.000  0.00  0.00    +0.000 A 
ATOM      3  C   UNL     1       5.001  -5.362   0.000  0.00  0.00    +0.000 A 
ATOM      4  C   UNL     1       5.001  -6.188   0.000  0.00  0.00    +0.000 A 
ATOM      5  C   UNL     1       4.287  -6.600   0.000  0.00  0.00    +0.000 A 
ATOM      6  C   UNL     1       3.572  -6.188   0.000  0.00  0.00    +0.000 A 
ENDROOT
BRANCH   4   7
ATOM      7  C   UNL     1       5.716  -6.600   0.000  0.00  0.00    +0.000 A 
ATOM      8  C   UNL     1       6.430  -6.188   0.000  0.00  0.00    +0.000 A 
ATOM      9  C   UNL     1       7.145  -6.600   0.000  0.00  0.00    +0.000 A 
ATOM     10  C   UNL     1       7.145  -7.425   0.000  0.00  0.00    +0.000 A 
ATOM     11  O   UNL     1       7.859  -7.838   0.000  0.00  0.00    +0.000 OA
ATOM     12  N   UNL     1       6.430  -7.838   0.000  0.00  0.00    +0.000 NA
ATOM     13  N   UNL     1       5.716  -7.425   0.000  0.00  0.00    +0.000 NA
ENDBRANCH   4   7
BRANCH   1  14
ATOM     14  O   UNL     1       2.858  -4.950   0.000  0.00  0.00    +0.000 OA
BRANCH  14  15
ATOM     15  C   UNL     1       2.143  -5.362   0.000  0.00  0.00    +0.000 C 
BRANCH  15  16
ATOM     16  C   UNL     1       1.429  -4.950   0.000  0.00  0.00    +0.000 C 
BRANCH  16  17
ATOM     17  C   UNL     1       0.715  -5.362   0.000  0.00  0.00    +0.000 C 
BRANCH  17  23
ATOM     18  C   UNL     1      -0.925  -6.093   0.000  0.00  0.00    +0.000 C 
ATOM     19  C   UNL     1      -0.754  -5.286   0.000  0.00  0.00    +0.000 C 
ATOM     20  C   UNL     1      -1.306  -4.673   0.000  0.00  0.00    +0.000 C 
ATOM     21  C   UNL     1      -0.893  -3.958   0.000  0.00  0.00    +0.000 C 
ATOM     22  C   UNL     1      -0.086  -4.130   0.000  0.00  0.00    +0.000 C 
ATOM     23  N   UNL     1       0.000  -4.950   0.000  0.00  0.00    +0.000 NA
ENDBRANCH  17  23
ENDBRANCH  16  17
ENDBRANCH  15  16
ENDBRANCH  14  15
ENDBRANCH   1  14
TORSDOF 6
