REMARK  Name = 
REMARK  0 active torsions:
REMARK  status: ('A' for Active; 'I' for Inactive)
REMARK                            x       y       z     vdW  Elec       q    Type
REMARK                         _______ _______ _______ _____ _____    ______ ____
ROOT
ATOM      1  O   UNL     1       2.132   1.855   0.000  0.00  0.00    +0.000 OA
ATOM      2  O   UNL     1      -2.850  -1.855   0.000  0.00  0.00    +0.000 OA
ATOM      3  C   UNL     1       1.419  -0.208   0.000  0.00  0.00    +0.000 C 
ATOM      4  C   UNL     1       1.419   0.618   0.000  0.00  0.00    +0.000 C 
ATOM      5  C   UNL     1       0.707  -0.618   0.000  0.00  0.00    +0.000 C 
ATOM      6  C   UNL     1      -0.011  -0.202   0.000  0.00  0.00    +0.000 C 
ATOM      7  C   UNL     1       0.707   1.035   0.000  0.00  0.00    +0.000 C 
ATOM      8  C   UNL     1      -0.011   0.618   0.000  0.00  0.00    +0.000 C 
ATOM      9  C   UNL     1       2.132   1.035   0.000  0.00  0.00    +0.000 C 
ATOM     10  C   UNL     1       0.707  -1.439   0.000  0.00  0.00    +0.000 C 
ATOM     11  C   UNL     1       2.850  -0.208   0.000  0.00  0.00    +0.000 C 
ATOM     12  C   UNL     1      -0.718  -0.618   0.000  0.00  0.00    +0.000 C 
ATOM     13  C   UNL     1       2.850   0.618   0.000  0.00  0.00    +0.000 C 
ATOM     14  C   UNL     1      -0.006  -1.850   0.000  0.00  0.00    +0.000 C 
ATOM     15  C   UNL     1       1.419   1.439   0.000  0.00  0.00    +0.000 C 
ATOM     16  C   UNL     1      -0.718  -1.445   0.000  0.00  0.00    +0.000 C 
ATOM     17  C   UNL     1      -1.431  -0.202   0.000  0.00  0.00    +0.000 C 
ATOM     18  C   UNL     1       1.414  -1.850   0.000  0.00  0.00    +0.000 C 
ATOM     19  C   UNL     1      -2.143  -0.618   0.000  0.00  0.00    +0.000 C 
ATOM     20  C   UNL     1      -1.431  -1.850   0.000  0.00  0.00    +0.000 C 
ATOM     21  C   UNL     1      -2.143  -1.445   0.000  0.00  0.00    +0.000 C 
ENDROOT
TORSDOF 0
