REMARK  Name = 
REMARK  7 active torsions:
REMARK  status: ('A' for Active; 'I' for Inactive)
REMARK    1  A    between atoms: C_4  and  C_5
REMARK    2  A    between atoms: C_5  and  C_6
REMARK    3  A    between atoms: C_6  and  O_7
REMARK    4  A    between atoms: C_6  and  C_28
REMARK    5  A    between atoms: O_7  and  C_8
REMARK    6  A    between atoms: C_13  and  N_16
REMARK    7  A    between atoms: C_33  and  N_36
REMARK                            x       y       z     vdW  Elec       q    Type
REMARK                         _______ _______ _______ _____ _____    ______ ____
ROOT
ATOM      1  C   UNL     1       8.265   2.659   0.000  0.00  0.00    +0.000 C 
ENDROOT
BRANCH   1   2
ATOM      2  C   UNL     1       8.678   3.373   0.000  0.00  0.00    +0.000 C 
ATOM      3  O   UNL     1       9.503   3.373   0.000  0.00  0.00    +0.000 OA
ATOM      4  N   UNL     1       8.265   4.088   0.000  0.00  0.00    +0.000 N 
ATOM      5  C   UNL     1       7.440   4.088   0.000  0.00  0.00    +0.000 C 
ATOM      6  C   UNL     1       7.028   4.802   0.000  0.00  0.00    +0.000 C 
ATOM      7  C   UNL     1       7.440   5.516   0.000  0.00  0.00    +0.000 C 
ATOM      8  C   UNL     1       8.265   5.516   0.000  0.00  0.00    +0.000 C 
ATOM      9  C   UNL     1       8.678   4.802   0.000  0.00  0.00    +0.000 C 
BRANCH   7  10
ATOM     10  N   UNL     1       7.028   6.231   0.000  0.00  0.00    +0.000 NA
ATOM     11  C   UNL     1       6.203   6.231   0.000  0.00  0.00    +0.000 C 
ATOM     12  C   UNL     1       5.790   6.945   0.000  0.00  0.00    +0.000 C 
ATOM     13  O   UNL     1       6.203   7.660   0.000  0.00  0.00    +0.000 OA
ATOM     14  C   UNL     1       7.028   7.660   0.000  0.00  0.00    +0.000 C 
ATOM     15  C   UNL     1       7.440   6.945   0.000  0.00  0.00    +0.000 C 
ENDBRANCH   7  10
ENDBRANCH   1   2
BRANCH   1  16
ATOM     16  O   UNL     1       7.440   2.659   0.000  0.00  0.00    +0.000 OA
BRANCH  16  17
ATOM     17  C   UNL     1       7.028   1.944   0.000  0.00  0.00    +0.000 C 
ATOM     18  O   UNL     1       7.440   1.230   0.000  0.00  0.00    +0.000 OA
ATOM     19  N   UNL     1       6.203   1.944   0.000  0.00  0.00    +0.000 N 
ATOM     20  C   UNL     1       5.790   1.230   0.000  0.00  0.00    +0.000 C 
ATOM     21  C   UNL     1       4.965   1.230   0.000  0.00  0.00    +0.000 C 
ATOM     22  C   UNL     1       4.553   1.944   0.000  0.00  0.00    +0.000 C 
ATOM     23  C   UNL     1       4.965   2.659   0.000  0.00  0.00    +0.000 C 
ATOM     24  C   UNL     1       5.790   2.659   0.000  0.00  0.00    +0.000 C 
BRANCH  22  25
ATOM     25  N   UNL     1       3.728   1.944   0.000  0.00  0.00    +0.000 N 
ATOM     26  C   UNL     1       3.370   1.201   0.000  0.00  0.00    +0.000 C 
ATOM     27  C   UNL     1       2.566   1.017   0.000  0.00  0.00    +0.000 C 
ATOM     28  C   UNL     1       1.921   1.532   0.000  0.00  0.00    +0.000 A 
ATOM     29  C   UNL     1       1.921   2.357   0.000  0.00  0.00    +0.000 A 
ATOM     30  N   UNL     1       2.566   2.871   0.000  0.00  0.00    +0.000 NA
ATOM     31  C   UNL     1       3.370   2.687   0.000  0.00  0.00    +0.000 C 
ATOM     32  O   UNL     1       3.884   3.333   0.000  0.00  0.00    +0.000 OA
ATOM     33  C   UNL     1       1.206   2.769   0.000  0.00  0.00    +0.000 A 
ATOM     34  C   UNL     1       0.492   2.357   0.000  0.00  0.00    +0.000 A 
ATOM     35  C   UNL     1       0.492   1.532   0.000  0.00  0.00    +0.000 A 
ATOM     36  C   UNL     1       1.206   1.119   0.000  0.00  0.00    +0.000 A 
ENDBRANCH  22  25
ENDBRANCH  16  17
ENDBRANCH   1  16
BRANCH   1  37
ATOM     37  C   UNL     1       8.678   1.944   0.000  0.00  0.00    +0.000 C 
BRANCH  37  41
ATOM     38  C   UNL     1      11.153   0.515   0.000  0.00  0.00    +0.000 C 
ATOM     39  C   UNL     1      10.740   1.230   0.000  0.00  0.00    +0.000 A 
ATOM     40  C   UNL     1       9.915   1.230   0.000  0.00  0.00    +0.000 A 
ATOM     41  C   UNL     1       9.503   1.944   0.000  0.00  0.00    +0.000 A 
ATOM     42  C   UNL     1       9.915   2.659   0.000  0.00  0.00    +0.000 A 
ATOM     43  C   UNL     1      10.740   2.659   0.000  0.00  0.00    +0.000 A 
ATOM     44  C   UNL     1      11.153   3.373   0.000  0.00  0.00    +0.000 C 
ATOM     45  C   UNL     1      11.153   1.944   0.000  0.00  0.00    +0.000 A 
ATOM     46  O   UNL     1      11.978   1.944   0.000  0.00  0.00    +0.000 OA
ENDBRANCH  37  41
ENDBRANCH   1  37
TORSDOF 7
