REMARK  Name = 
REMARK  11 active torsions:
REMARK  status: ('A' for Active; 'I' for Inactive)
REMARK    1  A    between atoms: O_1  and  C_21
REMARK    2  A    between atoms: O_1  and  C_22
REMARK    3  A    between atoms: O_4  and  C_29
REMARK    4  A    between atoms: O_4  and  C_32
REMARK    5  A    between atoms: N_20  and  C_23
REMARK    6  A    between atoms: C_21  and  C_35
REMARK    7  A    between atoms: C_24  and  C_31
REMARK    8  A    between atoms: C_30  and  C_38
REMARK    9  A    between atoms: C_31  and  C_36
REMARK   10  A    between atoms: C_34  and  C_40
REMARK   11  A    between atoms: C_36  and  C_41
REMARK                            x       y       z     vdW  Elec       q    Type
REMARK                         _______ _______ _______ _____ _____    ______ ____
ROOT
ATOM      1  O   UNL     1      -0.151  -0.262   0.000  0.00  0.00    +0.000 OA
ENDROOT
BRANCH   1   5
ATOM      2  O   UNL     1       1.992   0.976   0.000  0.00  0.00    +0.000 OA
ATOM      3  O   UNL     1      -0.151   1.389   0.000  0.00  0.00    +0.000 OA
ATOM      4  O   UNL     1       1.278  -1.087   0.000  0.00  0.00    +0.000 OA
ATOM      5  C   UNL     1       0.564   0.151   0.000  0.00  0.00    +0.000 C 
ATOM      6  C   UNL     1       0.564   0.976   0.000  0.00  0.00    +0.000 C 
ATOM      7  C   UNL     1       1.278  -0.262   0.000  0.00  0.00    +0.000 C 
ATOM      8  C   UNL     1       1.278   1.389   0.000  0.00  0.00    +0.000 C 
ATOM      9  C   UNL     1       1.992   0.151   0.000  0.00  0.00    +0.000 C 
BRANCH   9  11
ATOM     10  O   UNL     1       3.421   0.151   0.000  0.00  0.00    +0.000 OA
ATOM     11  C   UNL     1       2.707  -0.262   0.000  0.00  0.00    +0.000 C 
ENDBRANCH   9  11
BRANCH   8  12
ATOM     12  O   UNL     1       1.278   2.213   0.000  0.00  0.00    +0.000 OA
BRANCH  12  17
ATOM     13  O   UNL     1       2.707   3.864   0.000  0.00  0.00    +0.000 OA
ATOM     14  O   UNL     1       2.707   1.389   0.000  0.00  0.00    +0.000 OA
ATOM     15  O   UNL     1       4.136   2.213   0.000  0.00  0.00    +0.000 OA
ATOM     16  O   UNL     1       4.136   3.864   0.000  0.00  0.00    +0.000 OA
ATOM     17  C   UNL     1       1.992   2.626   0.000  0.00  0.00    +0.000 C 
ATOM     18  C   UNL     1       2.707   2.213   0.000  0.00  0.00    +0.000 C 
ATOM     19  C   UNL     1       1.992   3.451   0.000  0.00  0.00    +0.000 C 
ATOM     20  C   UNL     1       3.421   2.626   0.000  0.00  0.00    +0.000 C 
ATOM     21  C   UNL     1       3.421   3.451   0.000  0.00  0.00    +0.000 C 
BRANCH  19  23
ATOM     22  O   UNL     1       1.278   4.689   0.000  0.00  0.00    +0.000 OA
ATOM     23  C   UNL     1       1.278   3.864   0.000  0.00  0.00    +0.000 C 
ENDBRANCH  19  23
ENDBRANCH  12  17
ENDBRANCH   8  12
ENDBRANCH   1   5
BRANCH   1  26
ATOM     24  O   UNL     1      -1.278  -1.389   0.000  0.00  0.00    +0.000 OA
ATOM     25  O   UNL     1       0.865  -2.626   0.000  0.00  0.00    +0.000 OA
ATOM     26  C   UNL     1      -0.563  -0.976   0.000  0.00  0.00    +0.000 C 
ATOM     27  C   UNL     1      -0.563  -2.626   0.000  0.00  0.00    +0.000 C 
ATOM     28  C   UNL     1      -1.278  -2.213   0.000  0.00  0.00    +0.000 C 
ATOM     29  C   UNL     1       0.151  -2.213   0.000  0.00  0.00    +0.000 C 
ATOM     30  C   UNL     1       0.151  -1.389   0.000  0.00  0.00    +0.000 C 
BRANCH  27  32
ATOM     31  O   UNL     1       0.865  -3.451   0.000  0.00  0.00    +0.000 OA
ATOM     32  N   UNL     1      -0.563  -3.451   0.000  0.00  0.00    +0.000 N 
ATOM     33  C   UNL     1       0.151  -3.864   0.000  0.00  0.00    +0.000 C 
ATOM     34  C   UNL     1       0.151  -4.689   0.000  0.00  0.00    +0.000 C 
ATOM     35  H   UNL     1      -1.006  -3.707   0.000  0.00  0.00    +0.000 HD
ENDBRANCH  27  32
BRANCH  26  38
ATOM     36  O   UNL     1      -1.801  -0.262   0.000  0.00  0.00    +0.000 OA
ATOM     37  O   UNL     1      -0.563   0.453   0.000  0.00  0.00    +0.000 OA
ATOM     38  C   UNL     1      -0.976  -0.262   0.000  0.00  0.00    +0.000 C 
ENDBRANCH  26  38
BRANCH  28  40
ATOM     39  O   UNL     1      -1.992  -3.451   0.000  0.00  0.00    +0.000 OA
ATOM     40  C   UNL     1      -1.992  -2.626   0.000  0.00  0.00    +0.000 C 
BRANCH  40  42
ATOM     41  O   UNL     1      -2.707  -1.389   0.000  0.00  0.00    +0.000 OA
ATOM     42  C   UNL     1      -2.707  -2.213   0.000  0.00  0.00    +0.000 C 
BRANCH  42  44
ATOM     43  O   UNL     1      -4.136  -2.213   0.000  0.00  0.00    +0.000 OA
ATOM     44  C   UNL     1      -3.421  -2.626   0.000  0.00  0.00    +0.000 C 
ENDBRANCH  42  44
ENDBRANCH  40  42
ENDBRANCH  28  40
ENDBRANCH   1  26
TORSDOF 11
