REMARK  Name = 
REMARK  4 active torsions:
REMARK  status: ('A' for Active; 'I' for Inactive)
REMARK    1  A    between atoms: C_4  and  C_6
REMARK    2  A    between atoms: C_9  and  O_10
REMARK    3  A    between atoms: O_10  and  C_11
REMARK    4  A    between atoms: C_13  and  C_21
REMARK                            x       y       z     vdW  Elec       q    Type
REMARK                         _______ _______ _______ _____ _____    ______ ____
ROOT
ATOM      1  C   UNL     1       3.279   1.238   0.000  0.00  0.00    +0.000 A 
ATOM      2  C   UNL     1       3.993   0.825   0.000  0.00  0.00    +0.000 A 
ATOM      3  C   UNL     1       3.993   0.000   0.000  0.00  0.00    +0.000 A 
ATOM      4  C   UNL     1       3.279  -0.412   0.000  0.00  0.00    +0.000 A 
ATOM      5  C   UNL     1       2.564   0.000   0.000  0.00  0.00    +0.000 A 
ATOM      6  C   UNL     1       2.564   0.825   0.000  0.00  0.00    +0.000 A 
ATOM      7  C   UNL     1       1.780   1.080   0.000  0.00  0.00    +0.000 A 
ATOM      8  C   UNL     1       1.295   0.412   0.000  0.00  0.00    +0.000 A 
ATOM      9  C   UNL     1       0.470   0.412   0.000  0.00  0.00    +0.000 C 
ATOM     10  O   UNL     1       1.780  -0.255   0.000  0.00  0.00    +0.000 OA
ENDROOT
BRANCH   3  11
ATOM     11  C   UNL     1       4.708  -0.412   0.000  0.00  0.00    +0.000 C 
ATOM     12  O   UNL     1       4.708  -1.238   0.000  0.00  0.00    +0.000 OA
ATOM     13  N   UNL     1       5.422   0.000   0.000  0.00  0.00    +0.000 NA
ATOM     14  C   UNL     1       6.137  -0.412   0.000  0.00  0.00    +0.000 A 
ATOM     15  N   UNL     1       6.851   0.000   0.000  0.00  0.00    +0.000 NA
ATOM     16  C   UNL     1       7.566  -0.412   0.000  0.00  0.00    +0.000 A 
ATOM     17  C   UNL     1       7.566  -1.238   0.000  0.00  0.00    +0.000 A 
ATOM     18  C   UNL     1       8.280  -1.650   0.000  0.00  0.00    +0.000 C 
ATOM     19  N   UNL     1       6.851  -1.650   0.000  0.00  0.00    +0.000 NA
ATOM     20  C   UNL     1       6.137  -1.238   0.000  0.00  0.00    +0.000 A 
ENDBRANCH   3  11
BRANCH   1  21
ATOM     21  O   UNL     1       3.279   2.062   0.000  0.00  0.00    +0.000 OA
BRANCH  21  25
ATOM     22  C   UNL     1       1.135   3.300   0.000  0.00  0.00    +0.000 A 
ATOM     23  N   UNL     1       1.850   3.712   0.000  0.00  0.00    +0.000 NA
ATOM     24  C   UNL     1       2.564   3.300   0.000  0.00  0.00    +0.000 A 
ATOM     25  C   UNL     1       2.564   2.475   0.000  0.00  0.00    +0.000 A 
ATOM     26  C   UNL     1       1.850   2.062   0.000  0.00  0.00    +0.000 A 
ATOM     27  N   UNL     1       1.135   2.475   0.000  0.00  0.00    +0.000 NA
BRANCH  22  31
ATOM     28  C   UNL     1      -1.008   3.712   0.000  0.00  0.00    +0.000 C 
ATOM     29  N   UNL     1      -0.293   3.300   0.000  0.00  0.00    +0.000 N 
ATOM     30  C   UNL     1      -0.293   2.475   0.000  0.00  0.00    +0.000 C 
ATOM     31  C   UNL     1       0.421   3.712   0.000  0.00  0.00    +0.000 C 
ATOM     32  O   UNL     1       0.421   4.537   0.000  0.00  0.00    +0.000 OA
ENDBRANCH  22  31
ENDBRANCH  21  25
ENDBRANCH   1  21
TORSDOF 4
