REMARK  Name = 
REMARK  0 active torsions:
REMARK  status: ('A' for Active; 'I' for Inactive)
REMARK                            x       y       z     vdW  Elec       q    Type
REMARK                         _______ _______ _______ _____ _____    ______ ____
ROOT
ATOM      1  N   UNL     1       1.405   0.413   0.000  0.00  0.00    +0.000 N 
ATOM      2  C   UNL     1       0.690   0.825   0.000  0.00  0.00    +0.000 A 
ATOM      3  C   UNL     1      -0.024   0.413   0.000  0.00  0.00    +0.000 A 
ATOM      4  C   UNL     1      -0.024  -0.412   0.000  0.00  0.00    +0.000 A 
ATOM      5  N   UNL     1       0.690  -0.825   0.000  0.00  0.00    +0.000 N 
ATOM      6  C   UNL     1       1.405  -0.412   0.000  0.00  0.00    +0.000 A 
ATOM      7  N   UNL     1      -0.809   0.667   0.000  0.00  0.00    +0.000 NA
ATOM      8  C   UNL     1      -1.294   0.000   0.000  0.00  0.00    +0.000 A 
ATOM      9  N   UNL     1      -0.809  -0.667   0.000  0.00  0.00    +0.000 NA
ATOM     10  C   UNL     1       0.690  -1.650   0.000  0.00  0.00    +0.000 C 
ATOM     11  C   UNL     1       2.119   0.825   0.000  0.00  0.00    +0.000 C 
ATOM     12  O   UNL     1       2.119  -0.825   0.000  0.00  0.00    +0.000 OA
ATOM     13  O   UNL     1       0.690   1.650   0.000  0.00  0.00    +0.000 OA
ATOM     14 CL   UNL     1      -2.119   0.000   0.000  0.00  0.00    +0.000 Cl
ENDROOT
TORSDOF 0
