REMARK  Name = 
REMARK  7 active torsions:
REMARK  status: ('A' for Active; 'I' for Inactive)
REMARK    1  A    between atoms: CB_2  and  CA_4
REMARK    2  A    between atoms: CA_4  and  C_6
REMARK    3  A    between atoms: CA_12  and  C_13
REMARK    4  A    between atoms: CA_19  and  C_20
REMARK    5  A    between atoms: N_22  and  CA_23
REMARK    6  A    between atoms: CA_23  and  CB_24
REMARK    7  A    between atoms: CA_23  and  C_27
REMARK                            x       y       z     vdW  Elec       q    Type
REMARK                         _______ _______ _______ _____ _____    ______ ____
ROOT
ATOM      1  C   PRO A   2       0.867  -0.207   0.000  0.00  0.00    +0.000 C 
ATOM      2  O   PRO A   2       1.480  -0.759   0.000  0.00  0.00    +0.000 OA
ATOM      3  N   PRO A   3       1.039   0.600   0.000  0.00  0.00    +0.000 N 
ATOM      4  CD  PRO A   3       0.487   1.213   0.000  0.00  0.00    +0.000 C 
ATOM      5  CG  PRO A   3       0.899   1.927   0.000  0.00  0.00    +0.000 C 
ATOM      6  CB  PRO A   3       1.706   1.756   0.000  0.00  0.00    +0.000 C 
ATOM      7  CA  PRO A   3       1.793   0.935   0.000  0.00  0.00    +0.000 C 
ENDROOT
BRANCH   1  14
ATOM      8  C   THR A   1       0.313  -1.914   0.000  0.00  0.00    +0.000 C 
ATOM      9  O   THR A   1       1.133  -1.828   0.000  0.00  0.00    +0.000 OA
ATOM     10  N   PRO A   2      -0.172  -1.247   0.000  0.00  0.00    +0.000 N 
ATOM     11  CD  PRO A   2      -0.997  -1.247   0.000  0.00  0.00    +0.000 C 
ATOM     12  CG  PRO A   2      -1.252  -0.462   0.000  0.00  0.00    +0.000 C 
ATOM     13  CB  PRO A   2      -0.585   0.023   0.000  0.00  0.00    +0.000 C 
ATOM     14  CA  PRO A   2       0.083  -0.462   0.000  0.00  0.00    +0.000 C 
BRANCH   8  15
ATOM     15  CA  THR A   1      -0.023  -2.668   0.000  0.00  0.00    +0.000 C 
ATOM     16  N   THR A   1      -0.843  -2.754   0.000  0.00  0.00    +0.000 NA
BRANCH  15  18
ATOM     17  CG2 THR A   1       0.127  -4.089   0.000  0.00  0.00    +0.000 C 
ATOM     18  CB  THR A   1       0.462  -3.335   0.000  0.00  0.00    +0.000 C 
ATOM     19  OG1 THR A   1       1.283  -3.249   0.000  0.00  0.00    +0.000 OA
ENDBRANCH  15  18
ENDBRANCH   8  15
ENDBRANCH   1  14
BRANCH   7  20
ATOM     20  C   PRO A   3       2.507   0.523   0.000  0.00  0.00    +0.000 C 
ATOM     21  O   PRO A   3       3.221   0.935   0.000  0.00  0.00    +0.000 OA
ATOM     22  N   THR A   4       2.507  -0.302   0.000  0.00  0.00    +0.000 NA
BRANCH  22  23
ATOM     23  CA  THR A   4       3.221  -0.715   0.000  0.00  0.00    +0.000 C 
BRANCH  23  24
ATOM     24  CB  THR A   4       3.221  -1.540   0.000  0.00  0.00    +0.000 C 
ATOM     25  CG2 THR A   4       3.936  -1.952   0.000  0.00  0.00    +0.000 C 
ATOM     26  OG1 THR A   4       2.507  -1.952   0.000  0.00  0.00    +0.000 OA
ENDBRANCH  23  24
BRANCH  23  27
ATOM     27  C   THR A   4       3.936  -0.302   0.000  0.00  0.00    +0.000 C 
ATOM     28  O   THR A   4       3.936   0.523   0.000  0.00  0.00    +0.000 OA
ATOM     29  OXT THR A   4       4.651  -0.715   0.000  0.00  0.00    +0.000 OA
ENDBRANCH  23  27
ENDBRANCH  22  23
ENDBRANCH   7  20
TORSDOF 7
