REMARK  Name = 
REMARK  15 active torsions:
REMARK  status: ('A' for Active; 'I' for Inactive)
REMARK    1  A    between atoms: C_1  and  C_2
REMARK    2  A    between atoms: C_4  and  C_16
REMARK    3  A    between atoms: C_7  and  C_9
REMARK    4  A    between atoms: C_8  and  C_18
REMARK    5  A    between atoms: C_9  and  C_19
REMARK    6  A    between atoms: C_11  and  C_16
REMARK    7  A    between atoms: C_12  and  C_20
REMARK    8  A    between atoms: C_18  and  C_22
REMARK    9  A    between atoms: C_19  and  C_23
REMARK   10  A    between atoms: C_20  and  C_22
REMARK   11  A    between atoms: C_23  and  C_25
REMARK   12  A    between atoms: C_24  and  C_25
REMARK   13  A    between atoms: C_27  and  C_29
REMARK   14  A    between atoms: C_27  and  C_30
REMARK   15  A    between atoms: C_27  and  C_31
REMARK                            x       y       z     vdW  Elec       q    Type
REMARK                         _______ _______ _______ _____ _____    ______ ____
ROOT
ATOM      1  C   UNL     1      -4.699  -1.100   0.000  0.00  0.00    +0.000 C 
ATOM      2  C   UNL     1      -5.976  -0.695   0.000  0.00  0.00    +0.000 C 
ATOM      3  C   UNL     1      -4.707  -0.274   0.000  0.00  0.00    +0.000 C 
ATOM      4  C   UNL     1      -5.488  -1.363   0.000  0.00  0.00    +0.000 C 
ATOM      5  C   UNL     1      -5.496  -0.023   0.000  0.00  0.00    +0.000 C 
ATOM      6  O   UNL     1      -5.901  -2.073   0.000  0.00  0.00    +0.000 OA
ATOM      7  O   UNL     1      -5.914   0.695   0.000  0.00  0.00    +0.000 OA
ENDROOT
BRANCH   1   8
ATOM      8  C   UNL     1      -3.985  -1.509   0.000  0.00  0.00    +0.000 C 
ATOM      9  C   UNL     1      -3.271  -1.096   0.000  0.00  0.00    +0.000 C 
BRANCH   9  10
ATOM     10  C   UNL     1      -2.557  -1.509   0.000  0.00  0.00    +0.000 C 
ATOM     11  O   UNL     1      -2.152  -2.223   0.000  0.00  0.00    +0.000 OA
ATOM     12  C   UNL     1      -2.979  -2.223   0.000  0.00  0.00    +0.000 C 
BRANCH  10  13
ATOM     13  C   UNL     1      -1.843  -1.088   0.000  0.00  0.00    +0.000 C 
BRANCH  13  14
ATOM     14  C   UNL     1      -1.129  -1.501   0.000  0.00  0.00    +0.000 C 
BRANCH  14  15
ATOM     15  C   UNL     1      -0.415  -1.083   0.000  0.00  0.00    +0.000 C 
BRANCH  15  16
ATOM     16  C   UNL     1       0.298  -1.497   0.000  0.00  0.00    +0.000 C 
ATOM     17  C   UNL     1       1.012  -1.083   0.000  0.00  0.00    +0.000 C 
ENDBRANCH  15  16
ENDBRANCH  14  15
ENDBRANCH  13  14
ENDBRANCH  10  13
ENDBRANCH   9  10
ENDBRANCH   1   8
BRANCH   3  18
ATOM     18  C   UNL     1      -3.993   0.144   0.000  0.00  0.00    +0.000 C 
BRANCH  18  19
ATOM     19  C   UNL     1      -3.998   0.971   0.000  0.00  0.00    +0.000 C 
ATOM     20  C   UNL     1      -3.284   1.392   0.000  0.00  0.00    +0.000 C 
BRANCH  20  21
ATOM     21  C   UNL     1      -2.570   0.979   0.000  0.00  0.00    +0.000 C 
BRANCH  21  22
ATOM     22  C   UNL     1      -1.856   1.397   0.000  0.00  0.00    +0.000 C 
BRANCH  22  23
ATOM     23  C   UNL     1      -1.142   0.983   0.000  0.00  0.00    +0.000 C 
BRANCH  23  24
ATOM     24  C   UNL     1      -0.428   1.397   0.000  0.00  0.00    +0.000 C 
ATOM     25  O   UNL     1      -0.428   2.223   0.000  0.00  0.00    +0.000 OA
ATOM     26  O   UNL     1       0.286   0.983   0.000  0.00  0.00    +0.000 OA
ENDBRANCH  23  24
ENDBRANCH  22  23
ENDBRANCH  21  22
ENDBRANCH  20  21
ENDBRANCH  18  19
ENDBRANCH   3  18
TORSDOF 12
REMARK  Name = 
REMARK  15 active torsions:
REMARK  status: ('A' for Active; 'I' for Inactive)
REMARK    1  A    between atoms: C_1  and  C_2
REMARK    2  A    between atoms: C_4  and  C_16
REMARK    3  A    between atoms: C_7  and  C_9
REMARK    4  A    between atoms: C_8  and  C_18
REMARK    5  A    between atoms: C_9  and  C_19
REMARK    6  A    between atoms: C_11  and  C_16
REMARK    7  A    between atoms: C_12  and  C_20
REMARK    8  A    between atoms: C_18  and  C_22
REMARK    9  A    between atoms: C_19  and  C_23
REMARK   10  A    between atoms: C_20  and  C_22
REMARK   11  A    between atoms: C_23  and  C_25
REMARK   12  A    between atoms: C_24  and  C_25
REMARK   13  A    between atoms: C_27  and  C_29
REMARK   14  A    between atoms: C_27  and  C_30
REMARK   15  A    between atoms: C_27  and  C_31
REMARK                            x       y       z     vdW  Elec       q    Type
REMARK                         _______ _______ _______ _____ _____    ______ ____
ROOT
ATOM      1  C   UNL     1       4.549   0.278   0.000  0.00  0.00    +0.000 C 
ATOM      2  N   UNL     1       4.962  -0.436   0.000  0.00  0.00    +0.000 NA
ENDROOT
BRANCH   1   3
ATOM      3  C   UNL     1       5.263   0.691   0.000  0.00  0.00    +0.000 C 
ATOM      4  O   UNL     1       5.976   0.282   0.000  0.00  0.00    +0.000 OA
ENDBRANCH   1   3
BRANCH   1   5
ATOM      5  C   UNL     1       4.135  -0.436   0.000  0.00  0.00    +0.000 C 
ATOM      6  O   UNL     1       3.309  -0.432   0.000  0.00  0.00    +0.000 OA
ENDBRANCH   1   5
BRANCH   1   7
ATOM      7  C   UNL     1       3.835   0.691   0.000  0.00  0.00    +0.000 C 
ATOM      8  O   UNL     1       3.121   0.278   0.000  0.00  0.00    +0.000 OA
ENDBRANCH   1   7
TORSDOF 3
