REMARK  Name = 
REMARK  4 active torsions:
REMARK  status: ('A' for Active; 'I' for Inactive)
REMARK    1  A    between atoms: N_2  and  C_10
REMARK    2  A    between atoms: N_3  and  C_12
REMARK    3  A    between atoms: C_10  and  C_11
REMARK    4  A    between atoms: C_11  and  C_13
REMARK                            x       y       z     vdW  Elec       q    Type
REMARK                         _______ _______ _______ _____ _____    ______ ____
ROOT
ATOM      1  N   UNL     1       0.091   0.063   0.000  0.00  0.00    +0.000 NA
ATOM      2  N   UNL     1       0.091  -1.587   0.000  0.00  0.00    +0.000 N 
ATOM      3  C   UNL     1       0.806  -0.350   0.000  0.00  0.00    +0.000 C 
ATOM      4  C   UNL     1      -0.623  -0.350   0.000  0.00  0.00    +0.000 C 
ATOM      5  C   UNL     1       0.806  -1.175   0.000  0.00  0.00    +0.000 C 
ATOM      6  C   UNL     1      -0.623  -1.175   0.000  0.00  0.00    +0.000 C 
ENDROOT
BRANCH   2   8
ATOM      7 CL   UNL     1       1.520  -4.062   0.000  0.00  0.00    +0.000 Cl
ATOM      8  C   UNL     1       0.091  -2.412   0.000  0.00  0.00    +0.000 A 
ATOM      9  C   UNL     1       0.806  -2.825   0.000  0.00  0.00    +0.000 A 
ATOM     10  C   UNL     1      -0.623  -2.825   0.000  0.00  0.00    +0.000 A 
ATOM     11  C   UNL     1       0.806  -3.650   0.000  0.00  0.00    +0.000 A 
ATOM     12  C   UNL     1      -0.623  -3.650   0.000  0.00  0.00    +0.000 A 
ATOM     13  C   UNL     1       0.091  -4.062   0.000  0.00  0.00    +0.000 A 
ENDBRANCH   2   8
BRANCH   1  14
ATOM     14  C   UNL     1       0.091   0.888   0.000  0.00  0.00    +0.000 C 
BRANCH  14  15
ATOM     15  C   UNL     1      -0.623   1.300   0.000  0.00  0.00    +0.000 C 
BRANCH  15  18
ATOM     16  N   UNL     1       0.044   2.610   0.000  0.00  0.00    +0.000 NA
ATOM     17  N   UNL     1      -0.210   3.395   0.000  0.00  0.00    +0.000 N 
ATOM     18  C   UNL     1      -0.623   2.125   0.000  0.00  0.00    +0.000 A 
ATOM     19  C   UNL     1      -1.290   2.610   0.000  0.00  0.00    +0.000 A 
ATOM     20  C   UNL     1      -1.036   3.395   0.000  0.00  0.00    +0.000 A 
ATOM     21  C   UNL     1      -1.520   4.062   0.000  0.00  0.00    +0.000 C 
ATOM     22  H   UNL     1       0.090   3.809   0.000  0.00  0.00    +0.000 HD
ENDBRANCH  15  18
ENDBRANCH  14  15
ENDBRANCH   1  14
TORSDOF 4
