REMARK  Name = 
REMARK  11 active torsions:
REMARK  status: ('A' for Active; 'I' for Inactive)
REMARK    1  A    between atoms: C_7  and  C_11
REMARK    2  A    between atoms: N_13  and  C_14
REMARK    3  A    between atoms: C_14  and  C_19
REMARK    4  A    between atoms: N_21  and  C_22
REMARK    5  A    between atoms: C_22  and  C_23
REMARK    6  A    between atoms: C_22  and  C_30
REMARK    7  A    between atoms: C_23  and  C_24
REMARK    8  A    between atoms: N_32  and  C_33
REMARK    9  A    between atoms: C_33  and  C_34
REMARK   10  A    between atoms: N_37  and  C_40
REMARK   11  A    between atoms: C_40  and  C_41
REMARK                            x       y       z     vdW  Elec       q    Type
REMARK                         _______ _______ _______ _____ _____    ______ ____
ROOT
ATOM      1  C   UNL     1      -0.483  -1.168   0.000  0.00  0.00    +0.000 C 
ENDROOT
BRANCH   1   2
ATOM      2  C   UNL     1       0.271  -1.504   0.000  0.00  0.00    +0.000 C 
ATOM      3  O   UNL     1       0.939  -1.019   0.000  0.00  0.00    +0.000 OA
ATOM      4  N   UNL     1       0.357  -2.324   0.000  0.00  0.00    +0.000 NA
BRANCH   4   5
ATOM      5  C   UNL     1       1.111  -2.660   0.000  0.00  0.00    +0.000 C 
BRANCH   5   6
ATOM      6  C   UNL     1       1.197  -3.480   0.000  0.00  0.00    +0.000 C 
ATOM      7  C   UNL     1       1.951  -3.816   0.000  0.00  0.00    +0.000 C 
ATOM      8  C   UNL     1       2.037  -4.636   0.000  0.00  0.00    +0.000 C 
ATOM      9  N   UNL     1       1.370  -5.121   0.000  0.00  0.00    +0.000 NA
ATOM     10  C   UNL     1       0.616  -4.785   0.000  0.00  0.00    +0.000 C 
ATOM     11  C   UNL     1       0.530  -3.965   0.000  0.00  0.00    +0.000 C 
BRANCH   9  12
ATOM     12  C   UNL     1       1.456  -5.942   0.000  0.00  0.00    +0.000 C 
BRANCH  12  13
ATOM     13  C   UNL     1       2.210  -6.277   0.000  0.00  0.00    +0.000 C 
ATOM     14  C   UNL     1       2.877  -5.792   0.000  0.00  0.00    +0.000 C 
ATOM     15  C   UNL     1       3.631  -6.128   0.000  0.00  0.00    +0.000 C 
ATOM     16  O   UNL     1       3.717  -6.948   0.000  0.00  0.00    +0.000 OA
ATOM     17  C   UNL     1       3.050  -7.433   0.000  0.00  0.00    +0.000 C 
ATOM     18  C   UNL     1       2.296  -7.098   0.000  0.00  0.00    +0.000 C 
ENDBRANCH  12  13
ENDBRANCH   9  12
ENDBRANCH   5   6
ENDBRANCH   4   5
ENDBRANCH   1   2
BRANCH   1  21
ATOM     19  C   UNL     1      -1.323  -0.012   0.000  0.00  0.00    +0.000 C 
ATOM     20  O   UNL     1      -1.990  -0.497   0.000  0.00  0.00    +0.000 OA
ATOM     21  N   UNL     1      -0.569  -0.348   0.000  0.00  0.00    +0.000 NA
BRANCH  19  22
ATOM     22  C   UNL     1      -1.409   0.808   0.000  0.00  0.00    +0.000 C 
ATOM     23  C   UNL     1      -2.216   0.637   0.000  0.00  0.00    +0.000 C 
ATOM     24  C   UNL     1      -2.628   1.351   0.000  0.00  0.00    +0.000 C 
ATOM     25  C   UNL     1      -2.076   1.964   0.000  0.00  0.00    +0.000 C 
ATOM     26  C   UNL     1      -1.323   1.629   0.000  0.00  0.00    +0.000 C 
BRANCH  22  29
ATOM     27  C   UNL     1      -0.171   1.523   0.000  0.00  0.00    +0.000 C 
ATOM     28  O   UNL     1      -0.584   2.237   0.000  0.00  0.00    +0.000 OA
ATOM     29  N   UNL     1      -0.584   0.808   0.000  0.00  0.00    +0.000 NA
BRANCH  27  36
ATOM     30  C   UNL     1       4.067   2.348   0.000  0.00  0.00    +0.000 C 
ATOM     31  C   UNL     1       3.352   1.935   0.000  0.00  0.00    +0.000 A 
ATOM     32  C   UNL     1       3.352   1.110   0.000  0.00  0.00    +0.000 A 
ATOM     33  C   UNL     1       2.638   0.698   0.000  0.00  0.00    +0.000 A 
ATOM     34  C   UNL     1       1.923   1.110   0.000  0.00  0.00    +0.000 A 
ATOM     35  C   UNL     1       1.139   0.856   0.000  0.00  0.00    +0.000 A 
ATOM     36  C   UNL     1       0.654   1.523   0.000  0.00  0.00    +0.000 A 
ATOM     37  S   UNL     1       1.139   2.190   0.000  0.00  0.00    +0.000 S 
ATOM     38  C   UNL     1       1.923   1.935   0.000  0.00  0.00    +0.000 A 
ATOM     39  C   UNL     1       2.638   2.348   0.000  0.00  0.00    +0.000 A 
ENDBRANCH  27  36
ENDBRANCH  22  29
ENDBRANCH  19  22
ENDBRANCH   1  21
BRANCH   1  40
ATOM     40  C   UNL     1      -1.150  -1.653   0.000  0.00  0.00    +0.000 C 
BRANCH  40  41
ATOM     41  C   UNL     1      -1.064  -2.474   0.000  0.00  0.00    +0.000 A 
ATOM     42  C   UNL     1      -0.310  -2.809   0.000  0.00  0.00    +0.000 A 
ATOM     43  C   UNL     1      -0.224  -3.630   0.000  0.00  0.00    +0.000 A 
ATOM     44  C   UNL     1      -0.891  -4.114   0.000  0.00  0.00    +0.000 A 
ATOM     45  C   UNL     1      -1.645  -3.779   0.000  0.00  0.00    +0.000 A 
ATOM     46  C   UNL     1      -1.731  -2.958   0.000  0.00  0.00    +0.000 A 
ENDBRANCH  40  41
ENDBRANCH   1  40
TORSDOF 11
