REMARK  Name = 
REMARK  6 active torsions:
REMARK  status: ('A' for Active; 'I' for Inactive)
REMARK    1  A    between atoms: C_13  and  C_18
REMARK    2  A    between atoms: C_16  and  C_18
REMARK    3  A    between atoms: C_16  and  C_21
REMARK    4  A    between atoms: C_24  and  O_65
REMARK    5  A    between atoms: C_34  and  O_35
REMARK    6  A    between atoms: C_48  and  O_49
REMARK                            x       y       z     vdW  Elec       q    Type
REMARK                         _______ _______ _______ _____ _____    ______ ____
ROOT
ATOM      1  C   UNL     1      -2.144   4.295   0.000  0.00  0.00    +0.000 C 
ATOM      2  C   UNL     1      -2.144   3.470   0.000  0.00  0.00    +0.000 C 
ATOM      3  C   UNL     1      -2.858   4.707   0.000  0.00  0.00    +0.000 C 
ATOM      4  N   UNL     1      -2.858   3.057   0.000  0.00  0.00    +0.000 N 
ATOM      5  C   UNL     1      -3.573   4.295   0.000  0.00  0.00    +0.000 C 
ATOM      6  C   UNL     1      -3.573   3.470   0.000  0.00  0.00    +0.000 C 
ATOM      7  C   UNL     1      -1.429   3.057   0.000  0.00  0.00    +0.000 C 
ATOM      8  O   UNL     1      -1.429   2.232   0.000  0.00  0.00    +0.000 OA
ATOM      9  O   UNL     1      -2.144   1.819   0.000  0.00  0.00    +0.000 OA
ATOM     10  C   UNL     1      -2.858   2.232   0.000  0.00  0.00    +0.000 C 
ATOM     11  C   UNL     1      -3.573   1.819   0.000  0.00  0.00    +0.000 C 
ATOM     12  O   UNL     1      -4.287   2.232   0.000  0.00  0.00    +0.000 OA
ATOM     13  C   UNL     1       0.000   3.057   0.000  0.00  0.00    +0.000 C 
ATOM     14  C   UNL     1       0.000   2.232   0.000  0.00  0.00    +0.000 C 
ATOM     15  O   UNL     1      -0.715   3.470   0.000  0.00  0.00    +0.000 OA
ATOM     16  O   UNL     1       1.429   2.232   0.000  0.00  0.00    +0.000 OA
ATOM     17  C   UNL     1       0.714   1.819   0.000  0.00  0.00    +0.000 C 
ATOM     18  O   UNL     1      -2.858   0.582   0.000  0.00  0.00    +0.000 OA
ATOM     19  C   UNL     1      -3.573   0.995   0.000  0.00  0.00    +0.000 C 
ATOM     20  C   UNL     1      -2.858  -0.243   0.000  0.00  0.00    +0.000 C 
ATOM     21  C   UNL     1      -3.573  -0.655   0.000  0.00  0.00    +0.000 C 
ATOM     22  C   UNL     1      -4.287   0.582   0.000  0.00  0.00    +0.000 C 
ATOM     23  C   UNL     1      -4.287  -0.243   0.000  0.00  0.00    +0.000 C 
ATOM     24  C   UNL     1      -2.144  -0.655   0.000  0.00  0.00    +0.000 C 
ATOM     25  C   UNL     1      -2.144  -1.480   0.000  0.00  0.00    +0.000 C 
ATOM     26  C   UNL     1      -0.715  -1.480   0.000  0.00  0.00    +0.000 C 
ATOM     27  C   UNL     1      -1.429  -1.893   0.000  0.00  0.00    +0.000 C 
ATOM     28  C   UNL     1      -1.429  -2.718   0.000  0.00  0.00    +0.000 C 
ATOM     29  C   UNL     1      -5.002   0.995   0.000  0.00  0.00    +0.000 C 
ATOM     30  C   UNL     1       0.714   0.994   0.000  0.00  0.00    +0.000 C 
ATOM     31  C   UNL     1      -0.000   0.582   0.000  0.00  0.00    +0.000 C 
ATOM     32  C   UNL     1       1.429   0.582   0.000  0.00  0.00    +0.000 C 
ATOM     33  C   UNL     1       1.429  -0.243   0.000  0.00  0.00    +0.000 C 
ATOM     34  C   UNL     1       0.714  -0.656   0.000  0.00  0.00    +0.000 C 
ATOM     35  C   UNL     1       2.143  -0.656   0.000  0.00  0.00    +0.000 C 
ATOM     36  C   UNL     1       2.143  -1.481   0.000  0.00  0.00    +0.000 C 
ATOM     37  O   UNL     1       2.858  -0.243   0.000  0.00  0.00    +0.000 OA
ATOM     38  C   UNL     1       2.858  -1.893   0.000  0.00  0.00    +0.000 C 
ATOM     39  C   UNL     1      -0.721  -3.150   0.000  0.00  0.00    +0.000 C 
ATOM     40  C   UNL     1      -0.721  -4.109   0.000  0.00  0.00    +0.000 C 
ATOM     41  C   UNL     1       2.858  -2.718   0.000  0.00  0.00    +0.000 C 
ATOM     42  C   UNL     1       2.120  -3.115   0.000  0.00  0.00    +0.000 C 
ATOM     43  O   UNL     1       3.572  -1.481   0.000  0.00  0.00    +0.000 OA
ATOM     44  C   UNL     1      -0.061  -4.478   0.000  0.00  0.00    +0.000 C 
ATOM     45  C   UNL     1       0.654  -3.983   0.000  0.00  0.00    +0.000 C 
ATOM     46  C   UNL     1       1.563  -3.983   0.000  0.00  0.00    +0.000 C 
ATOM     47  C   UNL     1       3.577  -3.103   0.000  0.00  0.00    +0.000 C 
ATOM     48  O   UNL     1      -2.909   1.405   0.000  0.00  0.00    +0.000 OA
ATOM     49  C   UNL     1       1.959  -4.707   0.000  0.00  0.00    +0.000 C 
ENDROOT
BRANCH  13  50
ATOM     50  C   UNL     1       0.714   3.470   0.000  0.00  0.00    +0.000 C 
ATOM     51  C   UNL     1       0.715   4.295   0.000  0.00  0.00    +0.000 C 
BRANCH  50  52
ATOM     52  C   UNL     1       1.429   3.057   0.000  0.00  0.00    +0.000 C 
BRANCH  52  54
ATOM     53  C   UNL     1       2.143   4.295   0.000  0.00  0.00    +0.000 C 
ATOM     54  C   UNL     1       2.143   3.470   0.000  0.00  0.00    +0.000 C 
ATOM     55  C   UNL     1       3.573   4.295   0.000  0.00  0.00    +0.000 C 
ATOM     56  C   UNL     1       3.573   3.470   0.000  0.00  0.00    +0.000 C 
ATOM     57  C   UNL     1       2.858   4.707   0.000  0.00  0.00    +0.000 C 
ATOM     58  C   UNL     1       2.858   3.057   0.000  0.00  0.00    +0.000 C 
ATOM     59  O   UNL     1       4.287   4.707   0.000  0.00  0.00    +0.000 OA
BRANCH  56  60
ATOM     60  O   UNL     1       4.287   3.057   0.000  0.00  0.00    +0.000 OA
ATOM     61  C   UNL     1       5.002   3.470   0.000  0.00  0.00    +0.000 C 
ENDBRANCH  56  60
ENDBRANCH  52  54
ENDBRANCH  50  52
ENDBRANCH  13  50
BRANCH  25  62
ATOM     62  O   UNL     1      -2.858  -1.893   0.000  0.00  0.00    +0.000 OA
ATOM     63  C   UNL     1      -2.858  -2.718   0.000  0.00  0.00    +0.000 C 
ENDBRANCH  25  62
BRANCH  36  64
ATOM     64  O   UNL     1       1.429  -1.893   0.000  0.00  0.00    +0.000 OA
ATOM     65  C   UNL     1       1.429  -2.718   0.000  0.00  0.00    +0.000 C 
ENDBRANCH  36  64
TORSDOF 6
