REMARK  Name = 
REMARK  5 active torsions:
REMARK  status: ('A' for Active; 'I' for Inactive)
REMARK    1  A    between atoms: CA_3  and  C_24
REMARK    2  A    between atoms: CA_7  and  N_10
REMARK    3  A    between atoms: C_11  and  C_13
REMARK    4  A    between atoms: C_13  and  C_14
REMARK    5  A    between atoms: C_13  and  O_22
REMARK                            x       y       z     vdW  Elec       q    Type
REMARK                         _______ _______ _______ _____ _____    ______ ____
ROOT
ATOM      1  N   UNL     1       0.455   2.466   0.000  0.00  0.00    +0.000 NA
ATOM      2  C   UNL     1       0.455   3.292   0.000  0.00  0.00    +0.000 C 
ATOM      3  O   UNL     1      -0.260   3.704   0.000  0.00  0.00    +0.000 OA
ENDROOT
BRANCH   1  10
ATOM      4  C   UNL     1      -0.826  -0.597   0.000  0.00  0.00    +0.000 C 
ATOM      5  C   UNL     1      -1.200   0.138   0.000  0.00  0.00    +0.000 C 
ATOM      6  CA  UNL     1      -1.719   0.779   0.000  0.00  0.00    +0.000 C 
ATOM      7  N   UNL     1      -1.270   1.471   0.000  0.00  0.00    +0.000 N 
ATOM      8  C   UNL     1      -0.473   1.257   0.000  0.00  0.00    +0.000 C 
ATOM      9  S   UNL     1      -0.430   0.433   0.000  0.00  0.00    +0.000 S 
ATOM     10  CA  UNL     1      -0.260   2.054   0.000  0.00  0.00    +0.000 C 
ATOM     11  C   UNL     1      -1.056   2.268   0.000  0.00  0.00    +0.000 C 
ATOM     12  O   UNL     1      -1.469   2.982   0.000  0.00  0.00    +0.000 OA
ATOM     13  C   UNL     1      -1.892  -0.312   0.000  0.00  0.00    +0.000 C 
BRANCH   6  14
ATOM     14  C   UNL     1      -2.543   0.736   0.000  0.00  0.00    +0.000 C 
ATOM     15  O   UNL     1      -2.918   0.001   0.000  0.00  0.00    +0.000 OA
ATOM     16  OXT UNL     1      -2.993   1.427   0.000  0.00  0.00    +0.000 OA
ENDBRANCH   6  14
ENDBRANCH   1  10
BRANCH   2  17
ATOM     17  C   UNL     1       1.169   3.704   0.000  0.00  0.00    +0.000 C 
BRANCH  17  18
ATOM     18  C   UNL     1       1.169   4.529   0.000  0.00  0.00    +0.000 A 
ATOM     19  C   UNL     1       0.455   4.941   0.000  0.00  0.00    +0.000 A 
ATOM     20  C   UNL     1       0.455   5.766   0.000  0.00  0.00    +0.000 A 
ATOM     21  C   UNL     1       1.169   6.179   0.000  0.00  0.00    +0.000 A 
ATOM     22  C   UNL     1       1.884   5.766   0.000  0.00  0.00    +0.000 A 
ATOM     23  C   UNL     1       1.884   4.941   0.000  0.00  0.00    +0.000 A 
ATOM     24 CL   UNL     1       2.598   6.179   0.000  0.00  0.00    +0.000 Cl
ATOM     25 CL   UNL     1       1.169   7.004   0.000  0.00  0.00    +0.000 Cl
ENDBRANCH  17  18
BRANCH  17  26
ATOM     26  O   UNL     1       1.884   3.292   0.000  0.00  0.00    +0.000 OA
ATOM     27  C   UNL     1       1.884   2.466   0.000  0.00  0.00    +0.000 C 
ENDBRANCH  17  26
ENDBRANCH   2  17
TORSDOF 5
