REMARK  Name = 
REMARK  2 active torsions:
REMARK  status: ('A' for Active; 'I' for Inactive)
REMARK    1  A    between atoms: C_2  and  O_5
REMARK    2  A    between atoms: O_5  and  C_10
REMARK                            x       y       z     vdW  Elec       q    Type
REMARK                         _______ _______ _______ _____ _____    ______ ____
ROOT
ATOM      1  C   UNL     1      -0.722  -0.609   0.000  0.00  0.00    +0.000 A 
ATOM      2  C   UNL     1      -0.003  -0.198   0.000  0.00  0.00    +0.000 A 
ATOM      3  C   UNL     1      -0.722  -1.438   0.000  0.00  0.00    +0.000 A 
ATOM      4  C   UNL     1      -1.407  -0.198   0.000  0.00  0.00    +0.000 A 
ATOM      5  C   UNL     1       0.705  -0.609   0.000  0.00  0.00    +0.000 A 
ATOM      6  C   UNL     1      -0.003  -1.849   0.000  0.00  0.00    +0.000 A 
ATOM      7  C   UNL     1      -1.407  -1.849   0.000  0.00  0.00    +0.000 A 
ATOM      8  C   UNL     1      -2.122  -0.609   0.000  0.00  0.00    +0.000 A 
ATOM      9  C   UNL     1       0.705  -1.438   0.000  0.00  0.00    +0.000 A 
ATOM     10  C   UNL     1      -2.122  -1.438   0.000  0.00  0.00    +0.000 A 
ENDROOT
BRANCH   2  11
ATOM     11  O   UNL     1      -0.003   0.620   0.000  0.00  0.00    +0.000 OA
BRANCH  11  12
ATOM     12  C   UNL     1       0.705   1.030   0.000  0.00  0.00    +0.000 C 
ATOM     13  N   UNL     1       1.414   0.620   0.000  0.00  0.00    +0.000 NA
ATOM     14  O   UNL     1       0.705   1.849   0.000  0.00  0.00    +0.000 OA
ATOM     15  C   UNL     1       2.122   1.030   0.000  0.00  0.00    +0.000 C 
ENDBRANCH  11  12
ENDBRANCH   2  11
TORSDOF 2
