REMARK  Name = 
REMARK  9 active torsions:
REMARK  status: ('A' for Active; 'I' for Inactive)
REMARK    1  A    between atoms: C_3  and  N_27
REMARK    2  A    between atoms: C_8  and  S_39
REMARK    3  A    between atoms: C_12  and  C_13
REMARK    4  A    between atoms: C_14  and  C_24
REMARK    5  A    between atoms: C_16  and  O_22
REMARK    6  A    between atoms: N_20  and  S_39
REMARK    7  A    between atoms: C_23  and  C_24
REMARK    8  A    between atoms: C_28  and  O_29
REMARK    9  A    between atoms: O_29  and  C_30
REMARK                            x       y       z     vdW  Elec       q    Type
REMARK                         _______ _______ _______ _____ _____    ______ ____
ROOT
ATOM      1  C   UNL     1       1.278   1.441   0.000  0.00  0.00    +0.000 A 
ATOM      2  C   UNL     1       2.382   0.215   0.000  0.00  0.00    +0.000 A 
ATOM      3  C   UNL     1       1.575   0.043   0.000  0.00  0.00    +0.000 A 
ATOM      4  C   UNL     1       2.636   0.999   0.000  0.00  0.00    +0.000 A 
ATOM      5  C   UNL     1       1.023   0.656   0.000  0.00  0.00    +0.000 A 
ATOM      6  C   UNL     1       2.084   1.612   0.000  0.00  0.00    +0.000 A 
ENDROOT
BRANCH   1   7
ATOM      7  C   UNL     1       0.725   2.054   0.000  0.00  0.00    +0.000 C 
ATOM      8  O   UNL     1       0.980   2.838   0.000  0.00  0.00    +0.000 OA
ATOM      9  N   UNL     1      -0.082   1.882   0.000  0.00  0.00    +0.000 NA
BRANCH   9  10
ATOM     10  S   UNL     1      -0.633   2.495   0.000  0.00  0.00    +0.000 S 
ATOM     11  O   UNL     1      -0.805   3.303   0.000  0.00  0.00    +0.000 OA
ATOM     12  O   UNL     1      -0.020   3.047   0.000  0.00  0.00    +0.000 OA
BRANCH  10  14
ATOM     13  C   UNL     1      -1.992   2.937   0.000  0.00  0.00    +0.000 A 
ATOM     14  C   UNL     1      -1.440   2.324   0.000  0.00  0.00    +0.000 A 
ATOM     15  C   UNL     1      -2.800   2.765   0.000  0.00  0.00    +0.000 A 
ATOM     16  C   UNL     1      -3.054   1.981   0.000  0.00  0.00    +0.000 A 
ATOM     17  C   UNL     1      -2.502   1.368   0.000  0.00  0.00    +0.000 A 
ATOM     18  C   UNL     1      -1.695   1.539   0.000  0.00  0.00    +0.000 A 
ATOM     19  C   UNL     1      -1.143   0.926   0.000  0.00  0.00    +0.000 C 
ENDBRANCH  10  14
ENDBRANCH   9  10
ENDBRANCH   1   7
BRANCH   4  21
ATOM     20  C   UNL     1       3.699   1.955   0.000  0.00  0.00    +0.000 C 
ATOM     21  O   UNL     1       3.443   1.171   0.000  0.00  0.00    +0.000 OA
ENDBRANCH   4  21
BRANCH   2  22
ATOM     22  C   UNL     1       2.934  -0.398   0.000  0.00  0.00    +0.000 C 
BRANCH  22  29
ATOM     23  C   UNL     1       0.465  -2.263   0.000  0.00  0.00    +0.000 A 
ATOM     24  C   UNL     1       1.180  -2.675   0.000  0.00  0.00    +0.000 A 
ATOM     25  C   UNL     1       0.465  -1.438   0.000  0.00  0.00    +0.000 A 
ATOM     26  C   UNL     1       1.180  -1.025   0.000  0.00  0.00    +0.000 A 
ATOM     27  C   UNL     1       1.894  -2.263   0.000  0.00  0.00    +0.000 A 
ATOM     28  C   UNL     1       1.894  -1.438   0.000  0.00  0.00    +0.000 A 
ATOM     29  C   UNL     1       2.679  -1.183   0.000  0.00  0.00    +0.000 A 
ATOM     30  N   UNL     1       2.679  -2.518   0.000  0.00  0.00    +0.000 N 
ATOM     31  C   UNL     1       2.934  -3.303   0.000  0.00  0.00    +0.000 C 
ATOM     32  C   UNL     1       3.164  -1.850   0.000  0.00  0.00    +0.000 A 
BRANCH  25  33
ATOM     33  N   UNL     1      -0.249  -1.025   0.000  0.00  0.00    +0.000 NA
ATOM     34  C   UNL     1      -0.964  -1.438   0.000  0.00  0.00    +0.000 C 
ATOM     35  O   UNL     1      -0.964  -2.263   0.000  0.00  0.00    +0.000 OA
BRANCH  34  36
ATOM     36  O   UNL     1      -1.678  -1.025   0.000  0.00  0.00    +0.000 OA
BRANCH  36  37
ATOM     37  C   UNL     1      -2.393  -1.438   0.000  0.00  0.00    +0.000 C 
ATOM     38  C   UNL     1      -3.147  -1.103   0.000  0.00  0.00    +0.000 C 
ATOM     39  C   UNL     1      -3.699  -1.716   0.000  0.00  0.00    +0.000 C 
ATOM     40  C   UNL     1      -3.286  -2.430   0.000  0.00  0.00    +0.000 C 
ATOM     41  C   UNL     1      -2.479  -2.259   0.000  0.00  0.00    +0.000 C 
ENDBRANCH  36  37
ENDBRANCH  34  36
ENDBRANCH  25  33
ENDBRANCH  22  29
ENDBRANCH   2  22
TORSDOF 9
