REMARK  Name = 
REMARK  0 active torsions:
REMARK  status: ('A' for Active; 'I' for Inactive)
REMARK                            x       y       z     vdW  Elec       q    Type
REMARK                         _______ _______ _______ _____ _____    ______ ____
ROOT
ATOM      1  C   UNL     1      -0.619   0.000   0.000  0.00  0.00    +0.000 C 
ATOM      2  P   UNL     1       0.206   0.000   0.000  0.00  0.00    +0.000 P 
ATOM      3  O   UNL     1       0.619  -0.714   0.000  0.00  0.00    +0.000 OA
ATOM      4  O   UNL     1       0.619   0.714   0.000  0.00  0.00    +0.000 OA
ENDROOT
TORSDOF 0
