REMARK  Name = 
REMARK  5 active torsions:
REMARK  status: ('A' for Active; 'I' for Inactive)
REMARK    1  A    between atoms: C_4  and  O_10
REMARK    2  A    between atoms: C_5  and  O_7
REMARK    3  A    between atoms: O_7  and  C_8
REMARK    4  A    between atoms: C_8  and  C_9
REMARK    5  A    between atoms: O_10  and  C_11
REMARK                            x       y       z     vdW  Elec       q    Type
REMARK                         _______ _______ _______ _____ _____    ______ ____
ROOT
ATOM      1  C   UNL     1      -2.516   0.206   0.000  0.00  0.00    +0.000 A 
ATOM      2  C   UNL     1      -2.516   1.031   0.000  0.00  0.00    +0.000 A 
ATOM      3  C   UNL     1      -1.815   1.444   0.000  0.00  0.00    +0.000 A 
ATOM      4  C   UNL     1      -1.073   1.031   0.000  0.00  0.00    +0.000 A 
ATOM      5  C   UNL     1      -1.073   0.206   0.000  0.00  0.00    +0.000 A 
ATOM      6  C   UNL     1      -1.815  -0.206   0.000  0.00  0.00    +0.000 A 
ENDROOT
BRANCH   5   7
ATOM      7  O   UNL     1      -0.371  -0.206   0.000  0.00  0.00    +0.000 OA
BRANCH   7   8
ATOM      8  C   UNL     1       0.371   0.206   0.000  0.00  0.00    +0.000 C 
BRANCH   8   9
ATOM      9  C   UNL     1       1.073  -0.206   0.000  0.00  0.00    +0.000 C 
ATOM     10  O   UNL     1       1.774   0.206   0.000  0.00  0.00    +0.000 OA
ATOM     11  C   UNL     1       2.516  -0.206   0.000  0.00  0.00    +0.000 C 
ATOM     12  C   UNL     1       2.516  -1.031   0.000  0.00  0.00    +0.000 C 
ATOM     13  N   UNL     1       1.774  -1.444   0.000  0.00  0.00    +0.000 NA
ATOM     14  C   UNL     1       1.073  -1.031   0.000  0.00  0.00    +0.000 C 
ENDBRANCH   8   9
ENDBRANCH   7   8
ENDBRANCH   5   7
BRANCH   4  15
ATOM     15  O   UNL     1      -0.371   1.444   0.000  0.00  0.00    +0.000 OA
BRANCH  15  16
ATOM     16  C   UNL     1       0.371   1.031   0.000  0.00  0.00    +0.000 C 
ATOM     17  C   UNL     1       1.073   1.444   0.000  0.00  0.00    +0.000 C 
ENDBRANCH  15  16
ENDBRANCH   4  15
TORSDOF 5
