REMARK  Name = 
REMARK  2 active torsions:
REMARK  status: ('A' for Active; 'I' for Inactive)
REMARK    1  A    between atoms: C_11  and  S_16
REMARK    2  A    between atoms: N_13  and  S_16
REMARK                            x       y       z     vdW  Elec       q    Type
REMARK                         _______ _______ _______ _____ _____    ______ ____
ROOT
ATOM      1  C   UNL     1       2.587   0.247   0.000  0.00  0.00    +0.000 A 
ATOM      2  C   UNL     1       2.587   1.072   0.000  0.00  0.00    +0.000 A 
ATOM      3  C   UNL     1       1.872  -0.166   0.000  0.00  0.00    +0.000 A 
ATOM      4  C   UNL     1       1.872   1.484   0.000  0.00  0.00    +0.000 A 
ATOM      5  C   UNL     1       1.158   0.247   0.000  0.00  0.00    +0.000 A 
ATOM      6  C   UNL     1       1.158   1.072   0.000  0.00  0.00    +0.000 A 
ATOM      7  C   UNL     1      -0.112   0.659   0.000  0.00  0.00    +0.000 A 
ATOM      8  N   UNL     1       0.373  -0.008   0.000  0.00  0.00    +0.000 NA
ATOM      9  S   UNL     1       0.373   1.327   0.000  0.00  0.00    +0.000 S 
ENDROOT
BRANCH   7  10
ATOM     10  S   UNL     1      -0.937   0.659   0.000  0.00  0.00    +0.000 S 
BRANCH  10  15
ATOM     11  C   UNL     1      -2.174  -0.055   0.000  0.00  0.00    +0.000 C 
ATOM     12  C   UNL     1      -0.937  -0.770   0.000  0.00  0.00    +0.000 C 
ATOM     13  C   UNL     1      -2.587  -0.770   0.000  0.00  0.00    +0.000 C 
ATOM     14  C   UNL     1      -1.349  -1.484   0.000  0.00  0.00    +0.000 C 
ATOM     15  N   UNL     1      -1.349  -0.055   0.000  0.00  0.00    +0.000 NA
ATOM     16  O   UNL     1      -2.174  -1.484   0.000  0.00  0.00    +0.000 OA
ENDBRANCH  10  15
ENDBRANCH   7  10
TORSDOF 2
