REMARK  Name = 
REMARK  3 active torsions:
REMARK  status: ('A' for Active; 'I' for Inactive)
REMARK    1  A    between atoms: N_4  and  N_5
REMARK    2  A    between atoms: N_12  and  N_13
REMARK    3  A    between atoms: N_13  and  C_14
REMARK                            x       y       z     vdW  Elec       q    Type
REMARK                         _______ _______ _______ _____ _____    ______ ____
ROOT
ATOM      1  C   UNL     1       0.714   0.415   0.000  0.00  0.00    +0.000 C 
ATOM      2  C   UNL     1      -0.004   0.828   0.000  0.00  0.00    +0.000 C 
ATOM      3  C   UNL     1      -0.714   0.415   0.000  0.00  0.00    +0.000 C 
ATOM      4  N   UNL     1      -1.429   0.827   0.000  0.00  0.00    +0.000 NA
ATOM      5  C   UNL     1      -0.714  -0.410   0.000  0.00  0.00    +0.000 C 
ATOM      6  C   UNL     1      -0.004  -0.822   0.000  0.00  0.00    +0.000 C 
ATOM      7  C   UNL     1       0.714  -0.410   0.000  0.00  0.00    +0.000 C 
ATOM      8  N   UNL     1       1.428  -0.823   0.000  0.00  0.00    +0.000 NA
ENDROOT
BRANCH   4   9
ATOM      9  N   UNL     1      -2.145   0.412   0.000  0.00  0.00    +0.000 NA
ATOM     10  C   UNL     1      -2.857   0.822   0.000  0.00  0.00    +0.000 C 
ATOM     11  N   UNL     1      -3.573   0.407   0.000  0.00  0.00    +0.000 NA
ATOM     12  N   UNL     1      -2.857   1.647   0.000  0.00  0.00    +0.000 NA
ENDBRANCH   4   9
BRANCH   8  13
ATOM     13  N   UNL     1       2.145  -0.410   0.000  0.00  0.00    +0.000 NA
BRANCH  13  14
ATOM     14  C   UNL     1       2.855  -0.822   0.000  0.00  0.00    +0.000 C 
ATOM     15  S   UNL     1       3.573  -0.408   0.000  0.00  0.00    +0.000 S 
ATOM     16  N   UNL     1       2.854  -1.647   0.000  0.00  0.00    +0.000 NA
ENDBRANCH  13  14
ENDBRANCH   8  13
TORSDOF 3
