REMARK  Name = 
REMARK  7 active torsions:
REMARK  status: ('A' for Active; 'I' for Inactive)
REMARK    1  A    between atoms: O_2  and  C_3
REMARK    2  A    between atoms: C_6  and  C_10
REMARK    3  A    between atoms: C_10  and  C_11
REMARK    4  A    between atoms: C_11  and  C_12
REMARK    5  A    between atoms: C_14  and  O_22
REMARK    6  A    between atoms: C_15  and  O_20
REMARK    7  A    between atoms: C_16  and  O_18
REMARK                            x       y       z     vdW  Elec       q    Type
REMARK                         _______ _______ _______ _____ _____    ______ ____
ROOT
ATOM      1  C   UNL     1       2.143  -5.362   0.000  0.00  0.00    +0.000 C 
ATOM      2  O   UNL     1       2.858  -4.950   0.000  0.00  0.00    +0.000 OA
ENDROOT
BRANCH   1   3
ATOM      3  C   UNL     1       2.143  -6.188   0.000  0.00  0.00    +0.000 A 
ATOM      4  C   UNL     1       2.858  -6.600   0.000  0.00  0.00    +0.000 A 
ATOM      5  C   UNL     1       2.858  -7.425   0.000  0.00  0.00    +0.000 A 
ATOM      6  C   UNL     1       2.143  -7.838   0.000  0.00  0.00    +0.000 A 
ATOM      7  C   UNL     1       1.429  -7.425   0.000  0.00  0.00    +0.000 A 
ATOM      8  C   UNL     1       1.429  -6.600   0.000  0.00  0.00    +0.000 A 
BRANCH   7   9
ATOM      9  O   UNL     1       0.715  -7.838   0.000  0.00  0.00    +0.000 OA
ATOM     10  C   UNL     1       0.000  -7.425   0.000  0.00  0.00    +0.000 C 
ENDBRANCH   7   9
BRANCH   6  11
ATOM     11  O   UNL     1       2.143  -8.662   0.000  0.00  0.00    +0.000 OA
ATOM     12  C   UNL     1       2.858  -9.075   0.000  0.00  0.00    +0.000 C 
ENDBRANCH   6  11
BRANCH   5  13
ATOM     13  O   UNL     1       3.572  -7.838   0.000  0.00  0.00    +0.000 OA
ATOM     14  C   UNL     1       3.572  -8.662   0.000  0.00  0.00    +0.000 C 
ENDBRANCH   5  13
ENDBRANCH   1   3
BRANCH   1  15
ATOM     15  C   UNL     1       1.429  -4.950   0.000  0.00  0.00    +0.000 C 
BRANCH  15  19
ATOM     16  C   UNL     1       1.429  -2.475   0.000  0.00  0.00    +0.000 A 
ATOM     17  C   UNL     1       2.143  -2.888   0.000  0.00  0.00    +0.000 A 
ATOM     18  C   UNL     1       2.143  -3.712   0.000  0.00  0.00    +0.000 A 
ATOM     19  C   UNL     1       1.429  -4.125   0.000  0.00  0.00    +0.000 A 
ATOM     20  C   UNL     1       0.715  -3.712   0.000  0.00  0.00    +0.000 A 
ATOM     21  C   UNL     1       0.715  -2.888   0.000  0.00  0.00    +0.000 A 
ATOM     22  O   UNL     1       0.000  -2.475   0.000  0.00  0.00    +0.000 OA
BRANCH  16  24
ATOM     23  C   UNL     1       0.715  -1.238   0.000  0.00  0.00    +0.000 C 
ATOM     24  O   UNL     1       1.429  -1.650   0.000  0.00  0.00    +0.000 OA
ENDBRANCH  16  24
ENDBRANCH  15  19
ENDBRANCH   1  15
TORSDOF 7
