REMARK  Name = 
REMARK  3 active torsions:
REMARK  status: ('A' for Active; 'I' for Inactive)
REMARK    1  A    between atoms: C_8  and  N_13
REMARK    2  A    between atoms: C_10  and  N_14
REMARK    3  A    between atoms: C_11  and  N_15
REMARK                            x       y       z     vdW  Elec       q    Type
REMARK                         _______ _______ _______ _____ _____    ______ ____
ROOT
ATOM      1  C   UNL     1       0.000   0.000   0.000  0.00  0.00    +0.000 C 
ATOM      2  C   UNL     1       0.715  -0.412   0.000  0.00  0.00    +0.000 C 
ATOM      3  C   UNL     1       0.000   0.825   0.000  0.00  0.00    +0.000 C 
ATOM      4  C   UNL     1       0.715   1.238   0.000  0.00  0.00    +0.000 C 
ATOM      5  C   UNL     1       1.429   0.825   0.000  0.00  0.00    +0.000 C 
ATOM      6  C   UNL     1       1.429   0.000   0.000  0.00  0.00    +0.000 C 
ATOM      7  O   UNL     1      -0.715   1.238   0.000  0.00  0.00    +0.000 OA
ATOM      8  O   UNL     1       2.143  -0.412   0.000  0.00  0.00    +0.000 OA
ENDROOT
BRANCH   2  11
ATOM      9  C   UNL     1       0.302  -1.952   0.000  0.00  0.00    +0.000 C 
ATOM     10  C   UNL     1       1.127  -1.952   0.000  0.00  0.00    +0.000 C 
ATOM     11  N   UNL     1       0.715  -1.238   0.000  0.00  0.00    +0.000 N 
ENDBRANCH   2  11
BRANCH   4  14
ATOM     12  C   UNL     1       1.127   2.777   0.000  0.00  0.00    +0.000 C 
ATOM     13  C   UNL     1       0.302   2.777   0.000  0.00  0.00    +0.000 C 
ATOM     14  N   UNL     1       0.715   2.062   0.000  0.00  0.00    +0.000 N 
ENDBRANCH   4  14
BRANCH   5  17
ATOM     15  C   UNL     1       2.968   1.238   0.000  0.00  0.00    +0.000 C 
ATOM     16  C   UNL     1       2.556   1.952   0.000  0.00  0.00    +0.000 C 
ATOM     17  N   UNL     1       2.143   1.238   0.000  0.00  0.00    +0.000 N 
ENDBRANCH   5  17
TORSDOF 3
