REMARK  Name = 
REMARK  7 active torsions:
REMARK  status: ('A' for Active; 'I' for Inactive)
REMARK    1  A    between atoms: C_4  and  C_24
REMARK    2  A    between atoms: N_10  and  C_11
REMARK    3  A    between atoms: C_11  and  C_12
REMARK    4  A    between atoms: C_15  and  O_16
REMARK    5  A    between atoms: O_16  and  C_17
REMARK    6  A    between atoms: C_26  and  C_27
REMARK    7  A    between atoms: C_27  and  N_28
REMARK                            x       y       z     vdW  Elec       q    Type
REMARK                         _______ _______ _______ _____ _____    ______ ____
ROOT
ATOM      1  C   UNL     1       3.279   2.062   0.000  0.00  0.00    +0.000 C 
ATOM      2  C   UNL     1       3.279   1.238   0.000  0.00  0.00    +0.000 A 
ATOM      3  C   UNL     1       3.993   0.825   0.000  0.00  0.00    +0.000 A 
ATOM      4  C   UNL     1       3.993   0.000   0.000  0.00  0.00    +0.000 A 
ATOM      5  C   UNL     1       3.279  -0.412   0.000  0.00  0.00    +0.000 A 
ATOM      6  C   UNL     1       2.564   0.000   0.000  0.00  0.00    +0.000 A 
ATOM      7  C   UNL     1       2.564   0.825   0.000  0.00  0.00    +0.000 A 
ATOM      8  C   UNL     1       1.780   1.080   0.000  0.00  0.00    +0.000 C 
ATOM      9  O   UNL     1       1.525   1.865   0.000  0.00  0.00    +0.000 OA
ATOM     10  N   UNL     1       1.295   0.412   0.000  0.00  0.00    +0.000 N 
ATOM     11  C   UNL     1       1.780  -0.255   0.000  0.00  0.00    +0.000 C 
ENDROOT
BRANCH   4  12
ATOM     12  C   UNL     1       4.708  -0.412   0.000  0.00  0.00    +0.000 A 
ATOM     13  N   UNL     1       5.462  -0.077   0.000  0.00  0.00    +0.000 NA
ATOM     14  C   UNL     1       6.014  -0.690   0.000  0.00  0.00    +0.000 A 
ATOM     15  N   UNL     1       5.601  -1.405   0.000  0.00  0.00    +0.000 NA
ATOM     16  O   UNL     1       4.794  -1.233   0.000  0.00  0.00    +0.000 OA
BRANCH  14  17
ATOM     17  C   UNL     1       6.834  -0.604   0.000  0.00  0.00    +0.000 C 
BRANCH  17  18
ATOM     18  N   UNL     1       7.319  -1.271   0.000  0.00  0.00    +0.000 NA
ATOM     19  C   UNL     1       8.139  -1.185   0.000  0.00  0.00    +0.000 C 
ATOM     20  C   UNL     1       8.624  -1.852   0.000  0.00  0.00    +0.000 C 
ATOM     21  N   UNL     1       8.289  -2.606   0.000  0.00  0.00    +0.000 NA
ATOM     22  C   UNL     1       7.468  -2.692   0.000  0.00  0.00    +0.000 C 
ATOM     23  C   UNL     1       6.983  -2.025   0.000  0.00  0.00    +0.000 C 
ENDBRANCH  17  18
ENDBRANCH  14  17
ENDBRANCH   4  12
BRANCH  10  24
ATOM     24  C   UNL     1       0.470   0.412   0.000  0.00  0.00    +0.000 C 
BRANCH  24  25
ATOM     25  C   UNL     1       0.057   1.127   0.000  0.00  0.00    +0.000 A 
ATOM     26  C   UNL     1      -0.768   1.127   0.000  0.00  0.00    +0.000 A 
ATOM     27  C   UNL     1      -1.180   1.841   0.000  0.00  0.00    +0.000 A 
ATOM     28  C   UNL     1      -0.768   2.556   0.000  0.00  0.00    +0.000 A 
ATOM     29  C   UNL     1       0.057   2.556   0.000  0.00  0.00    +0.000 A 
ATOM     30  C   UNL     1       0.470   1.841   0.000  0.00  0.00    +0.000 A 
BRANCH  28  31
ATOM     31  O   UNL     1      -1.180   3.270   0.000  0.00  0.00    +0.000 OA
BRANCH  31  32
ATOM     32  C   UNL     1      -0.768   3.985   0.000  0.00  0.00    +0.000 C 
ATOM     33  F   UNL     1      -0.355   4.699   0.000  0.00  0.00    +0.000 F 
ATOM     34  F   UNL     1      -1.482   4.397   0.000  0.00  0.00    +0.000 F 
ATOM     35  F   UNL     1      -0.053   3.572   0.000  0.00  0.00    +0.000 F 
ENDBRANCH  31  32
ENDBRANCH  28  31
ENDBRANCH  24  25
ENDBRANCH  10  24
TORSDOF 7
