REMARK  Name = 
REMARK  4 active torsions:
REMARK  status: ('A' for Active; 'I' for Inactive)
REMARK    1  A    between atoms: C_4  and  N_18
REMARK    2  A    between atoms: C_7  and  O_8
REMARK    3  A    between atoms: O_8  and  C_9
REMARK    4  A    between atoms: C_22  and  N_29
REMARK                            x       y       z     vdW  Elec       q    Type
REMARK                         _______ _______ _______ _____ _____    ______ ____
ROOT
ATOM      1  N   UNL     1       1.429   0.825   0.000  0.00  0.00    +0.000 NA
ATOM      2  C   UNL     1       1.429   0.000   0.000  0.00  0.00    +0.000 A 
ATOM      3  C   UNL     1       2.143  -0.412   0.000  0.00  0.00    +0.000 A 
ATOM      4  C   UNL     1       2.858   0.000   0.000  0.00  0.00    +0.000 A 
ATOM      5  C   UNL     1       3.572  -0.412   0.000  0.00  0.00    +0.000 A 
ATOM      6  C   UNL     1       3.572  -1.238   0.000  0.00  0.00    +0.000 A 
ATOM      7  C   UNL     1       2.858  -1.650   0.000  0.00  0.00    +0.000 A 
ATOM      8  C   UNL     1       2.143  -1.238   0.000  0.00  0.00    +0.000 A 
ATOM      9  N   UNL     1       1.429  -1.650   0.000  0.00  0.00    +0.000 NA
ATOM     10  C   UNL     1       0.715  -1.238   0.000  0.00  0.00    +0.000 A 
ATOM     11  N   UNL     1       0.715  -0.412   0.000  0.00  0.00    +0.000 NA
ENDROOT
BRANCH   5  12
ATOM     12  N   UNL     1       4.287   0.000   0.000  0.00  0.00    +0.000 NA
ATOM     13  C   UNL     1       5.001  -0.412   0.000  0.00  0.00    +0.000 C 
ATOM     14  N   UNL     1       5.755  -0.077   0.000  0.00  0.00    +0.000 NA
ATOM     15  C   UNL     1       6.307  -0.690   0.000  0.00  0.00    +0.000 C 
ATOM     16  C   UNL     1       5.894  -1.405   0.000  0.00  0.00    +0.000 C 
ATOM     17  O   UNL     1       5.088  -1.233   0.000  0.00  0.00    +0.000 OA
ATOM     18  C   UNL     1       6.979  -0.212   0.000  0.00  0.00    +0.000 C 
ATOM     19  C   UNL     1       7.064  -1.018   0.000  0.00  0.00    +0.000 C 
ENDBRANCH   5  12
BRANCH   1  23
ATOM     20  C   UNL     1       0.000   3.300   0.000  0.00  0.00    +0.000 C 
ATOM     21  C   UNL     1       0.000   2.475   0.000  0.00  0.00    +0.000 A 
ATOM     22  C   UNL     1       0.715   2.062   0.000  0.00  0.00    +0.000 A 
ATOM     23  C   UNL     1       0.715   1.238   0.000  0.00  0.00    +0.000 A 
ATOM     24  C   UNL     1       0.000   0.825   0.000  0.00  0.00    +0.000 A 
ATOM     25  C   UNL     1      -0.715   1.238   0.000  0.00  0.00    +0.000 A 
ATOM     26  C   UNL     1      -0.715   2.062   0.000  0.00  0.00    +0.000 A 
BRANCH  26  27
ATOM     27  O   UNL     1      -1.429   2.475   0.000  0.00  0.00    +0.000 OA
BRANCH  27  28
ATOM     28  C   UNL     1      -2.143   2.062   0.000  0.00  0.00    +0.000 A 
ATOM     29  C   UNL     1      -2.143   1.238   0.000  0.00  0.00    +0.000 A 
ATOM     30  C   UNL     1      -2.858   0.825   0.000  0.00  0.00    +0.000 A 
ATOM     31  N   UNL     1      -3.572   1.238   0.000  0.00  0.00    +0.000 N 
ATOM     32  C   UNL     1      -3.572   2.062   0.000  0.00  0.00    +0.000 A 
ATOM     33  C   UNL     1      -2.858   2.475   0.000  0.00  0.00    +0.000 A 
ATOM     34  N   UNL     1      -4.357   2.317   0.000  0.00  0.00    +0.000 NA
ATOM     35  C   UNL     1      -4.842   1.650   0.000  0.00  0.00    +0.000 A 
ATOM     36  N   UNL     1      -4.357   0.983   0.000  0.00  0.00    +0.000 NA
ENDBRANCH  27  28
ENDBRANCH  26  27
ENDBRANCH   1  23
TORSDOF 4
