REMARK  Name = 
REMARK  8 active torsions:
REMARK  status: ('A' for Active; 'I' for Inactive)
REMARK    1  A    between atoms: C_2  and  C_3
REMARK    2  A    between atoms: C_3  and  C_4
REMARK    3  A    between atoms: C_4  and  C_5
REMARK    4  A    between atoms: C_5  and  S_6
REMARK    5  A    between atoms: S_6  and  N_9
REMARK    6  A    between atoms: C_10  and  C_12
REMARK    7  A    between atoms: N_18  and  C_22
REMARK    8  A    between atoms: C_22  and  C_23
REMARK                            x       y       z     vdW  Elec       q    Type
REMARK                         _______ _______ _______ _____ _____    ______ ____
ROOT
ATOM      1  C   UNL     1       3.352   1.935   0.000  0.00  0.00    +0.000 A 
ATOM      2  C   UNL     1       3.352   1.110   0.000  0.00  0.00    +0.000 A 
ATOM      3  C   UNL     1       2.638   0.698   0.000  0.00  0.00    +0.000 A 
ATOM      4  C   UNL     1       1.923   1.110   0.000  0.00  0.00    +0.000 A 
ATOM      5  C   UNL     1       1.923   1.935   0.000  0.00  0.00    +0.000 A 
ATOM      6  C   UNL     1       2.638   2.348   0.000  0.00  0.00    +0.000 A 
ATOM      7  N   UNL     1       1.139   2.190   0.000  0.00  0.00    +0.000 N 
ATOM      8  C   UNL     1       0.654   1.523   0.000  0.00  0.00    +0.000 A 
ATOM      9  N   UNL     1       1.139   0.856   0.000  0.00  0.00    +0.000 NA
ATOM     10  C   UNL     1      -0.171   1.523   0.000  0.00  0.00    +0.000 C 
ENDROOT
BRANCH   1  12
ATOM     11  N   UNL     1       4.781   1.935   0.000  0.00  0.00    +0.000 NA
ATOM     12  C   UNL     1       4.067   2.348   0.000  0.00  0.00    +0.000 C 
ATOM     13  O   UNL     1       4.067   3.173   0.000  0.00  0.00    +0.000 OA
BRANCH  11  14
ATOM     14  S   UNL     1       5.496   2.348   0.000  0.00  0.00    +0.000 S 
ATOM     15  O   UNL     1       5.083   3.062   0.000  0.00  0.00    +0.000 OA
ATOM     16  O   UNL     1       5.908   1.633   0.000  0.00  0.00    +0.000 OA
BRANCH  14  17
ATOM     17  C   UNL     1       6.210   2.760   0.000  0.00  0.00    +0.000 C 
BRANCH  17  18
ATOM     18  C   UNL     1       6.925   2.348   0.000  0.00  0.00    +0.000 C 
BRANCH  18  19
ATOM     19  C   UNL     1       7.639   2.760   0.000  0.00  0.00    +0.000 C 
BRANCH  19  21
ATOM     20  C   UNL     1       9.068   2.760   0.000  0.00  0.00    +0.000 C 
ATOM     21  C   UNL     1       8.354   2.348   0.000  0.00  0.00    +0.000 C 
ENDBRANCH  19  21
ENDBRANCH  18  19
ENDBRANCH  17  18
ENDBRANCH  14  17
ENDBRANCH  11  14
ENDBRANCH   1  12
BRANCH   7  22
ATOM     22  C   UNL     1       0.884   2.975   0.000  0.00  0.00    +0.000 C 
BRANCH  22  23
ATOM     23  C   UNL     1       0.077   3.147   0.000  0.00  0.00    +0.000 A 
ATOM     24  C   UNL     1      -0.475   2.533   0.000  0.00  0.00    +0.000 A 
ATOM     25  C   UNL     1      -1.282   2.705   0.000  0.00  0.00    +0.000 A 
ATOM     26  C   UNL     1      -1.537   3.490   0.000  0.00  0.00    +0.000 A 
ATOM     27  C   UNL     1      -0.985   4.103   0.000  0.00  0.00    +0.000 A 
ATOM     28  C   UNL     1      -0.178   3.931   0.000  0.00  0.00    +0.000 A 
ATOM     29 CL   UNL     1       0.374   4.544   0.000  0.00  0.00    +0.000 Cl
ATOM     30 CL   UNL     1      -2.344   3.661   0.000  0.00  0.00    +0.000 Cl
ENDBRANCH  22  23
ENDBRANCH   7  22
TORSDOF 8
