REMARK  Name = 
REMARK  9 active torsions:
REMARK  status: ('A' for Active; 'I' for Inactive)
REMARK    1  A    between atoms: O_2  and  C_3
REMARK    2  A    between atoms: C_6  and  C_7
REMARK    3  A    between atoms: C_7  and  N_8
REMARK    4  A    between atoms: N_13  and  C_15
REMARK    5  A    between atoms: C_18  and  C_21
REMARK    6  A    between atoms: C_23  and  O_24
REMARK    7  A    between atoms: O_24  and  C_25
REMARK    8  A    between atoms: C_25  and  C_26
REMARK    9  A    between atoms: C_34  and  C_35
REMARK                            x       y       z     vdW  Elec       q    Type
REMARK                         _______ _______ _______ _____ _____    ______ ____
ROOT
ATOM      1  C   UNL     1       2.835  -5.008   0.000  0.00  0.00    +0.000 A 
ATOM      2  C   UNL     1       3.248  -4.294   0.000  0.00  0.00    +0.000 A 
ATOM      3  C   UNL     1       4.073  -4.294   0.000  0.00  0.00    +0.000 A 
ATOM      4  C   UNL     1       4.485  -5.008   0.000  0.00  0.00    +0.000 A 
ATOM      5  C   UNL     1       4.073  -5.723   0.000  0.00  0.00    +0.000 A 
ATOM      6  N   UNL     1       3.248  -5.723   0.000  0.00  0.00    +0.000 NA
ENDROOT
BRANCH   4   7
ATOM      7  C   UNL     1       5.310  -5.008   0.000  0.00  0.00    +0.000 A 
ATOM      8  C   UNL     1       5.723  -4.294   0.000  0.00  0.00    +0.000 A 
ATOM      9  C   UNL     1       6.548  -4.294   0.000  0.00  0.00    +0.000 A 
ATOM     10  C   UNL     1       6.960  -5.008   0.000  0.00  0.00    +0.000 A 
ATOM     11  N   UNL     1       6.548  -5.723   0.000  0.00  0.00    +0.000 N 
ATOM     12  N   UNL     1       6.803  -6.508   0.000  0.00  0.00    +0.000 NA
ATOM     13  C   UNL     1       6.135  -6.992   0.000  0.00  0.00    +0.000 A 
ATOM     14  C   UNL     1       5.468  -6.508   0.000  0.00  0.00    +0.000 A 
ATOM     15  C   UNL     1       5.723  -5.723   0.000  0.00  0.00    +0.000 A 
BRANCH  14  16
ATOM     16  C   UNL     1       4.683  -6.763   0.000  0.00  0.00    +0.000 C 
ATOM     17  N   UNL     1       3.899  -7.017   0.000  0.00  0.00    +0.000 NA
ENDBRANCH  14  16
BRANCH   9  18
ATOM     18  O   UNL     1       6.960  -3.579   0.000  0.00  0.00    +0.000 OA
BRANCH  18  19
ATOM     19  C   UNL     1       7.785  -3.579   0.000  0.00  0.00    +0.000 C 
BRANCH  19  20
ATOM     20  C   UNL     1       8.198  -2.865   0.000  0.00  0.00    +0.000 C 
ATOM     21  C   UNL     1       8.610  -2.151   0.000  0.00  0.00    +0.000 C 
ATOM     22  C   UNL     1       8.912  -3.278   0.000  0.00  0.00    +0.000 C 
ATOM     23  O   UNL     1       7.484  -2.453   0.000  0.00  0.00    +0.000 OA
ENDBRANCH  19  20
ENDBRANCH  18  19
ENDBRANCH   9  18
ENDBRANCH   4   7
BRANCH   1  29
ATOM     24  N   UNL     1       0.360  -5.008   0.000  0.00  0.00    +0.000 NA
ATOM     25  C   UNL     1       0.773  -4.294   0.000  0.00  0.00    +0.000 C 
ATOM     26  C   UNL     1       0.952  -5.008   0.000  0.00  0.00    +0.000 C 
ATOM     27  C   UNL     1       0.773  -5.723   0.000  0.00  0.00    +0.000 C 
ATOM     28  C   UNL     1       1.598  -5.723   0.000  0.00  0.00    +0.000 C 
ATOM     29  N   UNL     1       2.010  -5.008   0.000  0.00  0.00    +0.000 N 
ATOM     30  C   UNL     1       1.598  -4.294   0.000  0.00  0.00    +0.000 C 
BRANCH  24  31
ATOM     31  C   UNL     1      -0.465  -5.008   0.000  0.00  0.00    +0.000 C 
BRANCH  31  35
ATOM     32  C   UNL     1      -1.702  -7.152   0.000  0.00  0.00    +0.000 A 
ATOM     33  N   UNL     1      -2.115  -6.437   0.000  0.00  0.00    +0.000 NA
ATOM     34  C   UNL     1      -1.702  -5.723   0.000  0.00  0.00    +0.000 A 
ATOM     35  C   UNL     1      -0.877  -5.723   0.000  0.00  0.00    +0.000 A 
ATOM     36  C   UNL     1      -0.465  -6.437   0.000  0.00  0.00    +0.000 A 
ATOM     37  C   UNL     1      -0.877  -7.152   0.000  0.00  0.00    +0.000 A 
BRANCH  32  39
ATOM     38  C   UNL     1      -1.702  -8.581   0.000  0.00  0.00    +0.000 C 
ATOM     39  O   UNL     1      -2.115  -7.866   0.000  0.00  0.00    +0.000 OA
ENDBRANCH  32  39
ENDBRANCH  31  35
ENDBRANCH  24  31
ENDBRANCH   1  29
TORSDOF 9
