REMARK  Name = 
REMARK  3 active torsions:
REMARK  status: ('A' for Active; 'I' for Inactive)
REMARK    1  A    between atoms: C_1  and  S_8
REMARK    2  A    between atoms: S_8  and  C_9
REMARK    3  A    between atoms: C_9  and  C_15
REMARK                            x       y       z     vdW  Elec       q    Type
REMARK                         _______ _______ _______ _____ _____    ______ ____
ROOT
ATOM      1  C   UNL     1       0.080   0.206   0.000  0.00  0.00    +0.000 C 
ATOM      2  C   UNL     1       0.080  -0.619   0.000  0.00  0.00    +0.000 C 
ENDROOT
BRANCH   1   7
ATOM      3  C   UNL     1       1.509   1.856   0.000  0.00  0.00    +0.000 A 
ATOM      4  C   UNL     1       2.223   1.444   0.000  0.00  0.00    +0.000 A 
ATOM      5  C   UNL     1       2.223   0.619   0.000  0.00  0.00    +0.000 A 
ATOM      6  C   UNL     1       1.509   0.206   0.000  0.00  0.00    +0.000 A 
ATOM      7  C   UNL     1       0.794   0.619   0.000  0.00  0.00    +0.000 A 
ATOM      8  N   UNL     1       0.794   1.444   0.000  0.00  0.00    +0.000 NA
ATOM      9  O   UNL     1       3.008   1.699   0.000  0.00  0.00    +0.000 OA
ATOM     10  C   UNL     1       3.008   0.364   0.000  0.00  0.00    +0.000 A 
ATOM     11  C   UNL     1       3.493   1.031   0.000  0.00  0.00    +0.000 A 
ENDBRANCH   1   7
BRANCH   1  12
ATOM     12  S   UNL     1      -0.635   0.619   0.000  0.00  0.00    +0.000 S 
BRANCH  12  13
ATOM     13  C   UNL     1      -1.349   0.206   0.000  0.00  0.00    +0.000 A 
ATOM     14  N   UNL     1      -1.349  -0.619   0.000  0.00  0.00    +0.000 NA
ATOM     15  C   UNL     1      -2.064  -1.031   0.000  0.00  0.00    +0.000 A 
ATOM     16  C   UNL     1      -2.778  -0.619   0.000  0.00  0.00    +0.000 A 
ATOM     17  C   UNL     1      -2.778   0.206   0.000  0.00  0.00    +0.000 A 
ATOM     18  N   UNL     1      -2.064   0.619   0.000  0.00  0.00    +0.000 NA
ATOM     19  N   UNL     1      -2.064  -1.856   0.000  0.00  0.00    +0.000 NA
ATOM     20 CL   UNL     1      -3.493   0.619   0.000  0.00  0.00    +0.000 Cl
ENDBRANCH  12  13
ENDBRANCH   1  12
TORSDOF 3
