REMARK  Name = 
REMARK  2 active torsions:
REMARK  status: ('A' for Active; 'I' for Inactive)
REMARK    1  A    between atoms: C_3  and  N_8
REMARK    2  A    between atoms: C_14  and  C_16
REMARK                            x       y       z     vdW  Elec       q    Type
REMARK                         _______ _______ _______ _____ _____    ______ ____
ROOT
ATOM      1  N   UNL     1       6.664  -1.559   0.000  0.00  0.00    +0.000 N 
ATOM      2  N   UNL     1       5.865  -1.354   0.000  0.00  0.00    +0.000 NA
ATOM      3  C   UNL     1       5.813  -0.530   0.000  0.00  0.00    +0.000 A 
ATOM      4  C   UNL     1       6.580  -0.227   0.000  0.00  0.00    +0.000 A 
ATOM      5  C   UNL     1       7.106  -0.862   0.000  0.00  0.00    +0.000 A 
ATOM      6  N   UNL     1       5.116  -0.089   0.000  0.00  0.00    +0.000 NA
ATOM      7  C   UNL     1       4.385  -0.471   0.000  0.00  0.00    +0.000 C 
ATOM      8  O   UNL     1       4.351  -1.295   0.000  0.00  0.00    +0.000 OA
ENDROOT
BRANCH   7   9
ATOM      9  C   UNL     1       3.688  -0.029   0.000  0.00  0.00    +0.000 C 
ATOM     10  C   UNL     1       2.957  -0.412   0.000  0.00  0.00    +0.000 C 
ATOM     11  C   UNL     1       2.261   0.030   0.000  0.00  0.00    +0.000 C 
ATOM     12  C   UNL     1       2.295   0.854   0.000  0.00  0.00    +0.000 C 
ATOM     13  O   UNL     1       2.243   1.678   0.000  0.00  0.00    +0.000 OA
ATOM     14  C   UNL     1       1.444   1.883   0.000  0.00  0.00    +0.000 C 
ATOM     15  O   UNL     1       1.140   2.650   0.000  0.00  0.00    +0.000 OA
ATOM     16  C   UNL     1       1.002   1.186   0.000  0.00  0.00    +0.000 A 
ATOM     17  C   UNL     1       1.528   0.550   0.000  0.00  0.00    +0.000 A 
ATOM     18  C   UNL     1       1.241  -0.223   0.000  0.00  0.00    +0.000 A 
ATOM     19  N   UNL     1       0.427  -0.361   0.000  0.00  0.00    +0.000 NA
ATOM     20  C   UNL     1      -0.099   0.275   0.000  0.00  0.00    +0.000 A 
ATOM     21  C   UNL     1       0.188   1.048   0.000  0.00  0.00    +0.000 A 
ATOM     22  C   UNL     1       3.026   1.237   0.000  0.00  0.00    +0.000 C 
ATOM     23  C   UNL     1       3.723   0.795   0.000  0.00  0.00    +0.000 C 
ENDBRANCH   7   9
BRANCH   1  26
ATOM     24  C   UNL     1       6.760  -3.739   0.000  0.00  0.00    +0.000 A 
ATOM     25  C   UNL     1       6.456  -2.972   0.000  0.00  0.00    +0.000 A 
ATOM     26  C   UNL     1       6.968  -2.326   0.000  0.00  0.00    +0.000 A 
ATOM     27  C   UNL     1       7.784  -2.446   0.000  0.00  0.00    +0.000 A 
ATOM     28  C   UNL     1       8.088  -3.213   0.000  0.00  0.00    +0.000 A 
ATOM     29  C   UNL     1       7.576  -3.860   0.000  0.00  0.00    +0.000 A 
ATOM     30  F   UNL     1       8.296  -1.799   0.000  0.00  0.00    +0.000 F 
ENDBRANCH   1  26
TORSDOF 2
