REMARK  Name = 
REMARK  6 active torsions:
REMARK  status: ('A' for Active; 'I' for Inactive)
REMARK    1  A    between atoms: P_1  and  O_3
REMARK    2  A    between atoms: P_1  and  O_4
REMARK    3  A    between atoms: P_1  and  O_5
REMARK    4  A    between atoms: O_3  and  C_8
REMARK    5  A    between atoms: O_4  and  C_6
REMARK    6  A    between atoms: O_5  and  C_10
REMARK                            x       y       z     vdW  Elec       q    Type
REMARK                         _______ _______ _______ _____ _____    ______ ____
ROOT
ATOM      1  P   UNL     1       0.000   0.700   0.000  0.00  0.00    +0.000 P 
ATOM      2  O   UNL     1       0.000   1.525   0.000  0.00  0.00    +0.000 OA
ENDROOT
BRANCH   1   3
ATOM      3  O   UNL     1       0.715   0.288   0.000  0.00  0.00    +0.000 OA
BRANCH   3   4
ATOM      4  C   UNL     1       1.429   0.700   0.000  0.00  0.00    +0.000 C 
ATOM      5  C   UNL     1       2.143   0.288   0.000  0.00  0.00    +0.000 C 
ENDBRANCH   3   4
ENDBRANCH   1   3
BRANCH   1   6
ATOM      6  O   UNL     1      -0.714   0.288   0.000  0.00  0.00    +0.000 OA
BRANCH   6   7
ATOM      7  C   UNL     1      -1.429   0.700   0.000  0.00  0.00    +0.000 C 
ATOM      8  C   UNL     1      -2.143   0.288   0.000  0.00  0.00    +0.000 C 
ENDBRANCH   6   7
ENDBRANCH   1   6
BRANCH   1   9
ATOM      9  O   UNL     1      -0.213  -0.096   0.000  0.00  0.00    +0.000 OA
BRANCH   9  10
ATOM     10  C   UNL     1       0.199  -0.811   0.000  0.00  0.00    +0.000 C 
ATOM     11  C   UNL     1      -0.213  -1.525   0.000  0.00  0.00    +0.000 C 
ENDBRANCH   9  10
ENDBRANCH   1   9
TORSDOF 6
