REMARK  Name = 
REMARK  7 active torsions:
REMARK  status: ('A' for Active; 'I' for Inactive)
REMARK    1  A    between atoms: N_3  and  C_6
REMARK    2  A    between atoms: C_6  and  C_7
REMARK    3  A    between atoms: C_7  and  C_8
REMARK    4  A    between atoms: C_7  and  C_15
REMARK    5  A    between atoms: C_15  and  C_16
REMARK    6  A    between atoms: C_21  and  C_22
REMARK    7  A    between atoms: C_27  and  C_29
REMARK                            x       y       z     vdW  Elec       q    Type
REMARK                         _______ _______ _______ _____ _____    ______ ____
ROOT
ATOM      1  C   UNL     1       1.973  -0.539   0.000  0.00  0.00    +0.000 C 
ATOM      2  O   UNL     1       2.563  -1.128   0.000  0.00  0.00    +0.000 OA
ENDROOT
BRANCH   1   3
ATOM      3  C   UNL     1       2.688  -0.126   0.000  0.00  0.00    +0.000 A 
ATOM      4  C   UNL     1       2.688   0.699   0.000  0.00  0.00    +0.000 A 
ATOM      5  C   UNL     1       3.402  -0.539   0.000  0.00  0.00    +0.000 A 
ATOM      6  C   UNL     1       3.402   1.111   0.000  0.00  0.00    +0.000 A 
ATOM      7  C   UNL     1       4.117  -0.126   0.000  0.00  0.00    +0.000 A 
ATOM      8  C   UNL     1       4.117   0.699   0.000  0.00  0.00    +0.000 A 
ATOM      9  F   UNL     1       3.400  -1.359   0.000  0.00  0.00    +0.000 F 
ATOM     10  F   UNL     1       3.398   1.934   0.000  0.00  0.00    +0.000 F 
ENDBRANCH   1   3
BRANCH   1  11
ATOM     11  C   UNL     1       1.557  -1.252   0.000  0.00  0.00    +0.000 C 
ATOM     12  C   UNL     1       1.965  -1.968   0.000  0.00  0.00    +0.000 C 
BRANCH  11  13
ATOM     13  C   UNL     1       0.732  -1.246   0.000  0.00  0.00    +0.000 A 
ATOM     14  S   UNL     1       0.243  -1.911   0.000  0.00  0.00    +0.000 S 
ATOM     15  N   UNL     1       0.251  -0.576   0.000  0.00  0.00    +0.000 NA
ATOM     16  C   UNL     1      -0.540  -1.651   0.000  0.00  0.00    +0.000 A 
ATOM     17  C   UNL     1      -0.535  -0.826   0.000  0.00  0.00    +0.000 A 
BRANCH  17  18
ATOM     18  C   UNL     1      -1.252  -0.417   0.000  0.00  0.00    +0.000 A 
ATOM     19  C   UNL     1      -1.965  -0.833   0.000  0.00  0.00    +0.000 A 
ATOM     20  C   UNL     1      -1.256   0.408   0.000  0.00  0.00    +0.000 A 
ATOM     21  C   UNL     1      -2.681  -0.424   0.000  0.00  0.00    +0.000 A 
ATOM     22  C   UNL     1      -1.973   0.817   0.000  0.00  0.00    +0.000 A 
ATOM     23  C   UNL     1      -2.685   0.401   0.000  0.00  0.00    +0.000 A 
BRANCH  23  24
ATOM     24  C   UNL     1      -3.401   0.810   0.000  0.00  0.00    +0.000 C 
ATOM     25  N   UNL     1      -4.117   1.228   0.000  0.00  0.00    +0.000 NA
ENDBRANCH  23  24
ENDBRANCH  17  18
ENDBRANCH  11  13
ENDBRANCH   1  11
BRANCH   1  26
ATOM     26  C   UNL     1       1.258  -0.126   0.000  0.00  0.00    +0.000 C 
BRANCH  26  29
ATOM     27  N   UNL     1       0.846   1.968   0.000  0.00  0.00    +0.000 NA
ATOM     28  C   UNL     1       0.591   1.184   0.000  0.00  0.00    +0.000 A 
ATOM     29  N   UNL     1       1.259   0.699   0.000  0.00  0.00    +0.000 N 
ATOM     30  N   UNL     1       1.926   1.184   0.000  0.00  0.00    +0.000 NA
ATOM     31  C   UNL     1       1.671   1.968   0.000  0.00  0.00    +0.000 A 
ENDBRANCH  26  29
ENDBRANCH   1  26
TORSDOF 7
