REMARK  Name = 
REMARK  4 active torsions:
REMARK  status: ('A' for Active; 'I' for Inactive)
REMARK    1  A    between atoms: C_1  and  N_15
REMARK    2  A    between atoms: N_6  and  C_7
REMARK    3  A    between atoms: N_15  and  C_16
REMARK    4  A    between atoms: C_16  and  S_18
REMARK                            x       y       z     vdW  Elec       q    Type
REMARK                         _______ _______ _______ _____ _____    ______ ____
ROOT
ATOM      1  C   UNL     1      -0.177   0.746   0.000  0.00  0.00    +0.000 A 
ATOM      2  N   UNL     1      -1.257  -0.039   0.000  0.00  0.00    +0.000 N 
ATOM      3  C   UNL     1      -2.054  -0.253   0.000  0.00  0.00    +0.000 C 
ATOM      4  C   UNL     1      -1.002   0.746   0.000  0.00  0.00    +0.000 A 
ATOM      5  C   UNL     1      -1.414   1.460   0.000  0.00  0.00    +0.000 C 
ATOM      6  N   UNL     1      -0.589  -0.524   0.000  0.00  0.00    +0.000 N 
ATOM      7  C   UNL     1       0.078  -0.039   0.000  0.00  0.00    +0.000 A 
ATOM      8  O   UNL     1       0.875  -0.253   0.000  0.00  0.00    +0.000 OA
ENDROOT
BRANCH   6   9
ATOM      9  C   UNL     1      -0.589  -1.349   0.000  0.00  0.00    +0.000 A 
ATOM     10  C   UNL     1      -0.589  -2.999   0.000  0.00  0.00    +0.000 A 
ATOM     11  C   UNL     1       0.125  -2.587   0.000  0.00  0.00    +0.000 A 
ATOM     12  C   UNL     1       0.125  -1.762   0.000  0.00  0.00    +0.000 A 
ATOM     13  C   UNL     1      -1.304  -1.762   0.000  0.00  0.00    +0.000 A 
ATOM     14  C   UNL     1      -1.304  -2.587   0.000  0.00  0.00    +0.000 A 
ENDBRANCH   6   9
BRANCH   1  15
ATOM     15  N   UNL     1       0.236   1.460   0.000  0.00  0.00    +0.000 N 
ATOM     16  C   UNL     1      -0.177   2.175   0.000  0.00  0.00    +0.000 C 
BRANCH  15  17
ATOM     17  C   UNL     1       1.061   1.460   0.000  0.00  0.00    +0.000 C 
BRANCH  17  18
ATOM     18  S   UNL     1       1.473   2.175   0.000  0.00  0.00    +0.000 S 
ATOM     19  O   UNL     1       2.054   2.159   0.000  0.00  0.00    +0.000 OA
ATOM     20  O   UNL     1       0.747   2.566   0.000  0.00  0.00    +0.000 OA
ATOM     21  O   UNL     1       1.449   2.999   0.000  0.00  0.00    +0.000 OA
ENDBRANCH  17  18
ENDBRANCH  15  17
ENDBRANCH   1  15
TORSDOF 4
