REMARK  Name = 
REMARK  3 active torsions:
REMARK  status: ('A' for Active; 'I' for Inactive)
REMARK    1  A    between atoms: C_1  and  C_4
REMARK    2  A    between atoms: C_4  and  C_6
REMARK    3  A    between atoms: C_6  and  C_7
REMARK                            x       y       z     vdW  Elec       q    Type
REMARK                         _______ _______ _______ _____ _____    ______ ____
ROOT
ATOM      1  C   UNL     1      -0.302  -0.412   0.000  0.00  0.00    +0.000 C 
ATOM      2  N   UNL     1      -0.715  -1.127   0.000  0.00  0.00    +0.000 NA
ATOM      3  C   UNL     1      -1.127  -0.412   0.000  0.00  0.00    +0.000 C 
ENDROOT
BRANCH   1   4
ATOM      4  C   UNL     1       0.412  -0.825   0.000  0.00  0.00    +0.000 C 
ATOM      5  O   UNL     1       1.127  -0.412   0.000  0.00  0.00    +0.000 OA
ATOM      6  O   UNL     1       0.412  -1.650   0.000  0.00  0.00    +0.000 OA
ENDBRANCH   1   4
BRANCH   1   7
ATOM      7  C   UNL     1      -0.302   0.413   0.000  0.00  0.00    +0.000 C 
BRANCH   7   8
ATOM      8  C   UNL     1       0.412   0.825   0.000  0.00  0.00    +0.000 C 
ATOM      9  C   UNL     1       0.412   1.650   0.000  0.00  0.00    +0.000 C 
ATOM     10  C   UNL     1       1.127   0.413   0.000  0.00  0.00    +0.000 C 
ENDBRANCH   7   8
ENDBRANCH   1   7
TORSDOF 3
