REMARK  Name = 
REMARK  8 active torsions:
REMARK  status: ('A' for Active; 'I' for Inactive)
REMARK    1  A    between atoms: C_2  and  N_18
REMARK    2  A    between atoms: N_8  and  S_15
REMARK    3  A    between atoms: C_9  and  S_15
REMARK    4  A    between atoms: C_19  and  C_21
REMARK    5  A    between atoms: C_21  and  C_22
REMARK    6  A    between atoms: C_21  and  N_26
REMARK    7  A    between atoms: C_22  and  C_23
REMARK    8  A    between atoms: C_27  and  C_29
REMARK                            x       y       z     vdW  Elec       q    Type
REMARK                         _______ _______ _______ _____ _____    ______ ____
ROOT
ATOM      1  N   UNL     1       0.558   0.632   0.000  0.00  0.00    +0.000 NA
ATOM      2  C   UNL     1      -0.148   0.211   0.000  0.00  0.00    +0.000 C 
ATOM      3  O   UNL     1      -0.148  -0.609   0.000  0.00  0.00    +0.000 OA
ENDROOT
BRANCH   1   5
ATOM      4  C   UNL     1       1.948   0.473   0.000  0.00  0.00    +0.000 C 
ATOM      5  C   UNL     1       1.207   0.119   0.000  0.00  0.00    +0.000 C 
ATOM      6  C   UNL     1       1.025  -0.689   0.000  0.00  0.00    +0.000 C 
ATOM      7  C   UNL     1       1.538  -1.338   0.000  0.00  0.00    +0.000 C 
ATOM      8  C   UNL     1       2.358  -1.338   0.000  0.00  0.00    +0.000 C 
ATOM      9  C   UNL     1       2.688   0.119   0.000  0.00  0.00    +0.000 C 
ATOM     10  O   UNL     1       1.948   1.293   0.000  0.00  0.00    +0.000 OA
ATOM     11  N   UNL     1       2.870  -0.689   0.000  0.00  0.00    +0.000 NA
BRANCH  11  12
ATOM     12  S   UNL     1       3.588  -1.099   0.000  0.00  0.00    +0.000 S 
ATOM     13  O   UNL     1       3.998  -0.393   0.000  0.00  0.00    +0.000 OA
ATOM     14  O   UNL     1       3.178  -1.817   0.000  0.00  0.00    +0.000 OA
BRANCH  12  15
ATOM     15  C   UNL     1       4.306  -1.509   0.000  0.00  0.00    +0.000 A 
ATOM     16  C   UNL     1       5.695  -1.828   0.000  0.00  0.00    +0.000 A 
ATOM     17  C   UNL     1       4.123  -2.318   0.000  0.00  0.00    +0.000 A 
ATOM     18  C   UNL     1       4.727  -2.876   0.000  0.00  0.00    +0.000 A 
ATOM     19  C   UNL     1       5.513  -2.637   0.000  0.00  0.00    +0.000 A 
ATOM     20  N   UNL     1       5.092  -1.270   0.000  0.00  0.00    +0.000 NA
ENDBRANCH  12  15
ENDBRANCH  11  12
ENDBRANCH   1   5
BRANCH   2  21
ATOM     21  C   UNL     1      -0.866   0.632   0.000  0.00  0.00    +0.000 C 
BRANCH  21  22
ATOM     22  N   UNL     1      -1.572   0.211   0.000  0.00  0.00    +0.000 NA
ATOM     23  C   UNL     1      -2.289   0.632   0.000  0.00  0.00    +0.000 C 
ATOM     24  O   UNL     1      -2.289   1.452   0.000  0.00  0.00    +0.000 OA
BRANCH  23  25
ATOM     25  C   UNL     1      -3.007   0.211   0.000  0.00  0.00    +0.000 A 
ATOM     26  C   UNL     1      -3.668   0.701   0.000  0.00  0.00    +0.000 A 
ATOM     27  O   UNL     1      -3.258  -0.564   0.000  0.00  0.00    +0.000 OA
ATOM     28  C   UNL     1      -4.078  -0.564   0.000  0.00  0.00    +0.000 A 
ATOM     29  C   UNL     1      -4.340   0.211   0.000  0.00  0.00    +0.000 A 
ATOM     30  C   UNL     1      -5.149   0.393   0.000  0.00  0.00    +0.000 A 
ATOM     31  C   UNL     1      -5.695  -0.222   0.000  0.00  0.00    +0.000 A 
ATOM     32  C   UNL     1      -5.445  -1.008   0.000  0.00  0.00    +0.000 A 
ATOM     33  C   UNL     1      -4.636  -1.179   0.000  0.00  0.00    +0.000 A 
ENDBRANCH  23  25
ENDBRANCH  21  22
BRANCH  21  34
ATOM     34  C   UNL     1      -0.866   1.452   0.000  0.00  0.00    +0.000 C 
BRANCH  34  35
ATOM     35  C   UNL     1      -1.276   2.170   0.000  0.00  0.00    +0.000 C 
ATOM     36  C   UNL     1      -0.866   2.876   0.000  0.00  0.00    +0.000 C 
ATOM     37  C   UNL     1      -2.096   2.170   0.000  0.00  0.00    +0.000 C 
ENDBRANCH  34  35
ENDBRANCH  21  34
ENDBRANCH   2  21
TORSDOF 8
