REMARK  Name = 
REMARK  1 active torsions:
REMARK  status: ('A' for Active; 'I' for Inactive)
REMARK    1  A    between atoms: C_4  and  S_13
REMARK                            x       y       z     vdW  Elec       q    Type
REMARK                         _______ _______ _______ _____ _____    ______ ____
ROOT
ATOM      1  C   UNL     1      -1.786   0.103   0.000  0.00  0.00    +0.000 A 
ATOM      2  C   UNL     1      -1.072   0.516   0.000  0.00  0.00    +0.000 A 
ATOM      3  C   UNL     1      -0.357   0.103   0.000  0.00  0.00    +0.000 A 
ATOM      4  C   UNL     1       0.357   0.516   0.000  0.00  0.00    +0.000 A 
ATOM      5  C   UNL     1       1.072   0.103   0.000  0.00  0.00    +0.000 A 
ATOM      6  C   UNL     1       1.072  -0.722   0.000  0.00  0.00    +0.000 A 
ATOM      7  C   UNL     1       0.357  -1.134   0.000  0.00  0.00    +0.000 A 
ATOM      8  C   UNL     1      -0.357  -0.722   0.000  0.00  0.00    +0.000 A 
ATOM      9  N   UNL     1      -1.072  -1.134   0.000  0.00  0.00    +0.000 NA
ATOM     10  C   UNL     1      -1.786  -0.722   0.000  0.00  0.00    +0.000 A 
ATOM     11  O   UNL     1       0.357  -1.959   0.000  0.00  0.00    +0.000 OA
ATOM     12  I   UNL     1       1.786  -1.134   0.000  0.00  0.00    +0.000 I 
ENDROOT
BRANCH   4  13
ATOM     13  S   UNL     1       0.357   1.341   0.000  0.00  0.00    +0.000 S 
ATOM     14  O   UNL     1       0.357   2.166   0.000  0.00  0.00    +0.000 OA
ATOM     15  O   UNL     1       1.182   1.341   0.000  0.00  0.00    +0.000 OA
ATOM     16  O   UNL     1      -0.468   1.341   0.000  0.00  0.00    +0.000 OA
ENDBRANCH   4  13
TORSDOF 1
REMARK  Name = 
REMARK  1 active torsions:
REMARK  status: ('A' for Active; 'I' for Inactive)
REMARK    1  A    between atoms: C_4  and  S_13
REMARK                            x       y       z     vdW  Elec       q    Type
REMARK                         _______ _______ _______ _____ _____    ______ ____
ROOT
ATOM      1  C   UNL     1       5.793   0.000   0.000  0.00  0.00    +0.000 C 
ATOM      2  O   UNL     1       6.206  -0.715   0.000  0.00  0.00    +0.000 OA
ATOM      3  O   UNL     1       6.206   0.715   0.000  0.00  0.00    +0.000 OA
ATOM      4  O   UNL     1       4.968   0.000   0.000  0.00  0.00    +0.000 OA
ENDROOT
TORSDOF 0
REMARK  Name = 
REMARK  1 active torsions:
REMARK  status: ('A' for Active; 'I' for Inactive)
REMARK    1  A    between atoms: C_4  and  S_13
REMARK                            x       y       z     vdW  Elec       q    Type
REMARK                         _______ _______ _______ _____ _____    ______ ____
ROOT
ATOM      1 NA   UNL     1       4.143   0.000   0.000  0.00  0.00    +0.000 Na
ENDROOT
TORSDOF 0
