REMARK  Name = 
REMARK  7 active torsions:
REMARK  status: ('A' for Active; 'I' for Inactive)
REMARK    1  A    between atoms: C_3  and  C_22
REMARK    2  A    between atoms: C_6  and  C_8
REMARK    3  A    between atoms: C_8  and  C_9
REMARK    4  A    between atoms: C_9  and  C_10
REMARK    5  A    between atoms: C_10  and  C_11
REMARK    6  A    between atoms: C_11  and  C_12
REMARK    7  A    between atoms: C_18  and  C_19
REMARK                            x       y       z     vdW  Elec       q    Type
REMARK                         _______ _______ _______ _____ _____    ______ ____
ROOT
ATOM      1  C   UNL     1       1.160  -3.422   0.000  0.00  0.00    +0.000 C 
ENDROOT
BRANCH   1   2
ATOM      2  C   UNL     1       1.874  -3.835   0.000  0.00  0.00    +0.000 C 
BRANCH   2   3
ATOM      3  C   UNL     1       2.589  -3.422   0.000  0.00  0.00    +0.000 C 
BRANCH   3   4
ATOM      4  C   UNL     1       3.303  -3.835   0.000  0.00  0.00    +0.000 C 
ATOM      5  O   UNL     1       3.303  -4.660   0.000  0.00  0.00    +0.000 OA
ATOM      6  N   UNL     1       4.018  -3.422   0.000  0.00  0.00    +0.000 N 
ATOM      7  C   UNL     1       4.104  -2.602   0.000  0.00  0.00    +0.000 C 
ATOM      8  C   UNL     1       4.911  -2.430   0.000  0.00  0.00    +0.000 C 
ATOM      9  C   UNL     1       5.323  -3.145   0.000  0.00  0.00    +0.000 C 
ATOM     10  C   UNL     1       4.771  -3.758   0.000  0.00  0.00    +0.000 C 
BRANCH  10  11
ATOM     11  C   UNL     1       4.943  -4.565   0.000  0.00  0.00    +0.000 C 
ATOM     12  O   UNL     1       5.728  -4.820   0.000  0.00  0.00    +0.000 OA
ATOM     13  O   UNL     1       4.330  -5.117   0.000  0.00  0.00    +0.000 OA
ENDBRANCH  10  11
ENDBRANCH   3   4
ENDBRANCH   2   3
ENDBRANCH   1   2
BRANCH   1  14
ATOM     14  C   UNL     1       0.445  -3.835   0.000  0.00  0.00    +0.000 C 
BRANCH  14  20
ATOM     15  C   UNL     1      -1.877  -4.827   0.000  0.00  0.00    +0.000 C 
ATOM     16  C   UNL     1      -2.289  -4.112   0.000  0.00  0.00    +0.000 C 
ATOM     17  C   UNL     1      -1.737  -3.499   0.000  0.00  0.00    +0.000 C 
ATOM     18  N   UNL     1      -0.984  -3.835   0.000  0.00  0.00    +0.000 N 
ATOM     19  C   UNL     1      -1.070  -4.655   0.000  0.00  0.00    +0.000 C 
ATOM     20  C   UNL     1      -0.269  -3.422   0.000  0.00  0.00    +0.000 C 
ATOM     21  O   UNL     1      -0.269  -2.598   0.000  0.00  0.00    +0.000 OA
BRANCH  17  22
ATOM     22  C   UNL     1      -1.909  -2.692   0.000  0.00  0.00    +0.000 C 
ATOM     23  O   UNL     1      -2.693  -2.438   0.000  0.00  0.00    +0.000 OA
ATOM     24  O   UNL     1      -1.296  -2.140   0.000  0.00  0.00    +0.000 OA
ENDBRANCH  17  22
ENDBRANCH  14  20
ENDBRANCH   1  14
TORSDOF 7
