REMARK  Name = 
REMARK  5 active torsions:
REMARK  status: ('A' for Active; 'I' for Inactive)
REMARK    1  A    between atoms: C_2  and  C_9
REMARK    2  A    between atoms: C_9  and  C_10
REMARK    3  A    between atoms: C_13  and  O_22
REMARK    4  A    between atoms: C_14  and  O_20
REMARK    5  A    between atoms: C_18  and  C_24
REMARK                            x       y       z     vdW  Elec       q    Type
REMARK                         _______ _______ _______ _____ _____    ______ ____
ROOT
ATOM      1  C   UNL     1       0.055   0.055   0.000  0.00  0.00    +0.000 A 
ATOM      2  C   UNL     1      -0.659   0.468   0.000  0.00  0.00    +0.000 A 
ATOM      3  C   UNL     1      -1.374   0.055   0.000  0.00  0.00    +0.000 A 
ATOM      4  C   UNL     1      -1.374  -0.770   0.000  0.00  0.00    +0.000 A 
ATOM      5  C   UNL     1      -0.659  -1.182   0.000  0.00  0.00    +0.000 A 
ATOM      6  C   UNL     1       0.055  -0.770   0.000  0.00  0.00    +0.000 A 
ATOM      7  C   UNL     1      -0.659   1.293   0.000  0.00  0.00    +0.000 C 
ATOM      8  C   UNL     1      -1.374   1.705   0.000  0.00  0.00    +0.000 C 
ATOM      9  C   UNL     1      -2.088   1.293   0.000  0.00  0.00    +0.000 C 
ATOM     10  O   UNL     1      -2.088   0.468   0.000  0.00  0.00    +0.000 OA
ENDROOT
BRANCH   9  11
ATOM     11  C   UNL     1      -2.803   1.705   0.000  0.00  0.00    +0.000 C 
ATOM     12  C   UNL     1      -3.215   2.420   0.000  0.00  0.00    +0.000 C 
ATOM     13  C   UNL     1      -3.628   1.705   0.000  0.00  0.00    +0.000 C 
ENDBRANCH   9  11
BRANCH   5  14
ATOM     14  O   UNL     1      -0.659  -2.007   0.000  0.00  0.00    +0.000 OA
ATOM     15  C   UNL     1       0.055  -2.420   0.000  0.00  0.00    +0.000 C 
ENDBRANCH   5  14
BRANCH   4  16
ATOM     16  O   UNL     1      -2.088  -1.182   0.000  0.00  0.00    +0.000 OA
ATOM     17  C   UNL     1      -2.088  -2.007   0.000  0.00  0.00    +0.000 C 
ENDBRANCH   4  16
BRANCH   1  18
ATOM     18  C   UNL     1       0.770   0.468   0.000  0.00  0.00    +0.000 C 
BRANCH  18  20
ATOM     19  C   UNL     1       2.199   0.468   0.000  0.00  0.00    +0.000 A 
ATOM     20  C   UNL     1       1.484   0.055   0.000  0.00  0.00    +0.000 A 
ATOM     21  C   UNL     1       1.484  -0.770   0.000  0.00  0.00    +0.000 A 
ATOM     22  N   UNL     1       2.199  -1.182   0.000  0.00  0.00    +0.000 NA
ATOM     23  C   UNL     1       2.913  -0.770   0.000  0.00  0.00    +0.000 A 
ATOM     24  N   UNL     1       2.913   0.055   0.000  0.00  0.00    +0.000 NA
ATOM     25  N   UNL     1       2.199   1.293   0.000  0.00  0.00    +0.000 NA
ATOM     26  N   UNL     1       3.628  -1.182   0.000  0.00  0.00    +0.000 NA
ENDBRANCH  18  20
ENDBRANCH   1  18
TORSDOF 5
