REMARK  Name = 
REMARK  7 active torsions:
REMARK  status: ('A' for Active; 'I' for Inactive)
REMARK    1  A    between atoms: C_17  and  C_20
REMARK    2  A    between atoms: C_17  and  N_25
REMARK    3  A    between atoms: C_18  and  C_20
REMARK    4  A    between atoms: C_18  and  O_29
REMARK    5  A    between atoms: C_22  and  N_26
REMARK    6  A    between atoms: C_23  and  O_29
REMARK    7  A    between atoms: C_24  and  O_28
REMARK                            x       y       z     vdW  Elec       q    Type
REMARK                         _______ _______ _______ _____ _____    ______ ____
ROOT
ATOM      1  C   UNL     1       5.001  -2.888   0.000  0.00  0.00    +0.000 C 
ENDROOT
BRANCH   1   6
ATOM      2  C   UNL     1       4.287  -4.125   0.000  0.00  0.00    +0.000 C 
ATOM      3  C   UNL     1       5.716  -4.125   0.000  0.00  0.00    +0.000 C 
ATOM      4  C   UNL     1       4.287  -4.950   0.000  0.00  0.00    +0.000 C 
ATOM      5  C   UNL     1       5.716  -4.950   0.000  0.00  0.00    +0.000 C 
ATOM      6  N   UNL     1       5.001  -3.712   0.000  0.00  0.00    +0.000 NA
ATOM      7  N   UNL     1       5.001  -5.362   0.000  0.00  0.00    +0.000 N 
BRANCH   7  12
ATOM      8  C   UNL     1       4.287  -7.425   0.000  0.00  0.00    +0.000 A 
ATOM      9  C   UNL     1       5.001  -7.838   0.000  0.00  0.00    +0.000 A 
ATOM     10  C   UNL     1       4.287  -6.600   0.000  0.00  0.00    +0.000 A 
ATOM     11  C   UNL     1       5.716  -7.425   0.000  0.00  0.00    +0.000 A 
ATOM     12  C   UNL     1       5.001  -6.188   0.000  0.00  0.00    +0.000 A 
ATOM     13  C   UNL     1       5.716  -6.600   0.000  0.00  0.00    +0.000 A 
BRANCH  13  15
ATOM     14  C   UNL     1       7.145  -6.600   0.000  0.00  0.00    +0.000 C 
ATOM     15  O   UNL     1       6.430  -6.188   0.000  0.00  0.00    +0.000 OA
ENDBRANCH  13  15
ENDBRANCH   7  12
ENDBRANCH   1   6
BRANCH   1  16
ATOM     16  C   UNL     1       4.287  -2.475   0.000  0.00  0.00    +0.000 C 
ATOM     17  O   UNL     1       3.572  -2.888   0.000  0.00  0.00    +0.000 OA
BRANCH  16  18
ATOM     18  C   UNL     1       4.287  -1.650   0.000  0.00  0.00    +0.000 C 
BRANCH  18  19
ATOM     19  O   UNL     1       3.572  -1.238   0.000  0.00  0.00    +0.000 OA
BRANCH  19  29
ATOM     20  C   UNL     1       1.429   0.825   0.000  0.00  0.00    +0.000 A 
ATOM     21  C   UNL     1       1.429   0.000   0.000  0.00  0.00    +0.000 A 
ATOM     22  C   UNL     1       4.287   0.825   0.000  0.00  0.00    +0.000 A 
ATOM     23  C   UNL     1       2.143   1.238   0.000  0.00  0.00    +0.000 A 
ATOM     24  C   UNL     1       3.572   1.238   0.000  0.00  0.00    +0.000 A 
ATOM     25  C   UNL     1       2.143  -0.412   0.000  0.00  0.00    +0.000 A 
ATOM     26  C   UNL     1       4.287   0.000   0.000  0.00  0.00    +0.000 A 
ATOM     27  C   UNL     1       2.858   0.825   0.000  0.00  0.00    +0.000 A 
ATOM     28  C   UNL     1       2.858   0.000   0.000  0.00  0.00    +0.000 A 
ATOM     29  C   UNL     1       3.572  -0.412   0.000  0.00  0.00    +0.000 A 
ENDBRANCH  19  29
ENDBRANCH  18  19
ENDBRANCH  16  18
ENDBRANCH   1  16
TORSDOF 7
