REMARK  Name = 
REMARK  4 active torsions:
REMARK  status: ('A' for Active; 'I' for Inactive)
REMARK    1  A    between atoms: C_1  and  C_2
REMARK    2  A    between atoms: C_1  and  C_13
REMARK    3  A    between atoms: C_7  and  C_9
REMARK    4  A    between atoms: C_20  and  O_21
REMARK                            x       y       z     vdW  Elec       q    Type
REMARK                         _______ _______ _______ _____ _____    ______ ____
ROOT
ATOM      1  C   UNL     1       0.524   0.097   0.000  0.00  0.00    +0.000 C 
ATOM      2  O   UNL     1      -0.151  -0.377   0.000  0.00  0.00    +0.000 OA
ENDROOT
BRANCH   1   3
ATOM      3  C   UNL     1       0.451   0.919   0.000  0.00  0.00    +0.000 A 
ATOM      4  C   UNL     1       1.126   1.393   0.000  0.00  0.00    +0.000 A 
ATOM      5  C   UNL     1       1.053   2.215   0.000  0.00  0.00    +0.000 A 
ATOM      6  N   UNL     1       0.305   2.562   0.000  0.00  0.00    +0.000 NA
ATOM      7  C   UNL     1      -0.370   2.088   0.000  0.00  0.00    +0.000 A 
ATOM      8  C   UNL     1      -1.118   2.436   0.000  0.00  0.00    +0.000 A 
ATOM      9  C   UNL     1      -1.793   1.962   0.000  0.00  0.00    +0.000 A 
ATOM     10  C   UNL     1      -1.720   1.140   0.000  0.00  0.00    +0.000 A 
ATOM     11  C   UNL     1      -0.972   0.792   0.000  0.00  0.00    +0.000 A 
ATOM     12  C   UNL     1      -0.297   1.267   0.000  0.00  0.00    +0.000 A 
BRANCH  10  13
ATOM     13  O   UNL     1      -2.395   0.666   0.000  0.00  0.00    +0.000 OA
ATOM     14  C   UNL     1      -3.144   1.013   0.000  0.00  0.00    +0.000 C 
ENDBRANCH  10  13
ENDBRANCH   1   3
BRANCH   1  15
ATOM     15  C   UNL     1       1.272  -0.250   0.000  0.00  0.00    +0.000 C 
ATOM     16  N   UNL     1       2.094  -0.321   0.000  0.00  0.00    +0.000 NA
ATOM     17  C   UNL     1       2.029  -1.080   0.000  0.00  0.00    +0.000 C 
ATOM     18  C   UNL     1       1.215  -0.915   0.000  0.00  0.00    +0.000 C 
ATOM     19  C   UNL     1       1.150  -1.674   0.000  0.00  0.00    +0.000 C 
ATOM     20  C   UNL     1       1.972  -1.745   0.000  0.00  0.00    +0.000 C 
ATOM     21  C   UNL     1       2.444  -1.068   0.000  0.00  0.00    +0.000 C 
ATOM     22  C   UNL     1       0.800  -0.927   0.000  0.00  0.00    +0.000 C 
BRANCH  20  23
ATOM     23  C   UNL     1       2.322  -2.492   0.000  0.00  0.00    +0.000 C 
ATOM     24  C   UNL     1       3.144  -2.562   0.000  0.00  0.00    +0.000 C 
ENDBRANCH  20  23
ENDBRANCH   1  15
TORSDOF 4
