REMARK  Name = 
REMARK  7 active torsions:
REMARK  status: ('A' for Active; 'I' for Inactive)
REMARK    1  A    between atoms: N_9  and  C_16
REMARK    2  A    between atoms: N_9  and  C_18
REMARK    3  A    between atoms: N_12  and  C_19
REMARK    4  A    between atoms: C_13  and  C_14
REMARK    5  A    between atoms: C_13  and  C_15
REMARK    6  A    between atoms: C_14  and  C_16
REMARK    7  A    between atoms: C_15  and  C_17
REMARK                            x       y       z     vdW  Elec       q    Type
REMARK                         _______ _______ _______ _____ _____    ______ ____
ROOT
ATOM      1  O   UNL     1       1.072   3.094   0.000  0.00  0.00    +0.000 OA
ATOM      2  O   UNL     1       2.501   0.619   0.000  0.00  0.00    +0.000 OA
ATOM      3  N   UNL     1       1.072   0.619   0.000  0.00  0.00    +0.000 N 
ATOM      4  N   UNL     1       1.786   1.856   0.000  0.00  0.00    +0.000 N 
ATOM      5  C   UNL     1       0.357   1.031   0.000  0.00  0.00    +0.000 A 
ATOM      6  C   UNL     1       0.357   1.856   0.000  0.00  0.00    +0.000 A 
ATOM      7  C   UNL     1       1.072   2.269   0.000  0.00  0.00    +0.000 A 
ATOM      8  C   UNL     1       1.786   1.031   0.000  0.00  0.00    +0.000 A 
ATOM      9  H   UNL     1       1.072   0.107   0.000  0.00  0.00    +0.000 HD
ATOM     10  H   UNL     1       2.229   2.112   0.000  0.00  0.00    +0.000 HD
ENDROOT
BRANCH   6  13
ATOM     11  O   UNL     1      -0.357   3.094   0.000  0.00  0.00    +0.000 OA
ATOM     12  O   UNL     1      -1.072   1.856   0.000  0.00  0.00    +0.000 OA
ATOM     13  N   UNL     1      -0.357   2.269   0.000  0.00  0.00    +0.000 N 
ENDBRANCH   6  13
BRANCH   5  14
ATOM     14  N   UNL     1      -0.357   0.619   0.000  0.00  0.00    +0.000 N 
ATOM     15  H   UNL     1      -0.800   0.875   0.000  0.00  0.00    +0.000 HD
BRANCH  14  16
ATOM     16  C   UNL     1      -0.357  -0.206   0.000  0.00  0.00    +0.000 C 
BRANCH  16  18
ATOM     17  O   UNL     1      -1.786  -0.206   0.000  0.00  0.00    +0.000 OA
ATOM     18  C   UNL     1      -1.072  -0.619   0.000  0.00  0.00    +0.000 C 
BRANCH  18  20
ATOM     19  O   UNL     1      -0.357  -1.856   0.000  0.00  0.00    +0.000 OA
ATOM     20  C   UNL     1      -1.072  -1.444   0.000  0.00  0.00    +0.000 C 
BRANCH  20  22
ATOM     21  O   UNL     1      -2.501  -1.444   0.000  0.00  0.00    +0.000 OA
ATOM     22  C   UNL     1      -1.786  -1.856   0.000  0.00  0.00    +0.000 C 
BRANCH  22  24
ATOM     23  O   UNL     1      -2.501  -3.094   0.000  0.00  0.00    +0.000 OA
ATOM     24  C   UNL     1      -1.786  -2.681   0.000  0.00  0.00    +0.000 C 
ENDBRANCH  22  24
ENDBRANCH  20  22
ENDBRANCH  18  20
ENDBRANCH  16  18
ENDBRANCH  14  16
ENDBRANCH   5  14
TORSDOF 7
