REMARK  Name = 
REMARK  3 active torsions:
REMARK  status: ('A' for Active; 'I' for Inactive)
REMARK    1  A    between atoms: C_2  and  C_4
REMARK    2  A    between atoms: C_2  and  N_9
REMARK    3  A    between atoms: C_4  and  S_5
REMARK                            x       y       z     vdW  Elec       q    Type
REMARK                         _______ _______ _______ _____ _____    ______ ____
ROOT
ATOM      1  C   UNL     1       0.523   1.127   0.000  0.00  0.00    +0.000 C 
ATOM      2  C   UNL     1       1.238   0.715   0.000  0.00  0.00    +0.000 C 
ATOM      3  C   UNL     1       1.952   0.302   0.000  0.00  0.00    +0.000 C 
ENDROOT
BRANCH   2   4
ATOM      4  N   UNL     1       0.825   0.000   0.000  0.00  0.00    +0.000 NA
ATOM      5 CL   UNL     1       1.238  -0.715   0.000  0.00  0.00    +0.000 Cl
ATOM      6 CL   UNL     1       0.000   0.000   0.000  0.00  0.00    +0.000 Cl
ENDBRANCH   2   4
BRANCH   2   7
ATOM      7  C   UNL     1       1.650   1.429   0.000  0.00  0.00    +0.000 C 
BRANCH   7   8
ATOM      8  S   UNL     1       1.238   2.143   0.000  0.00  0.00    +0.000 S 
ATOM      9  O   UNL     1       0.825   2.858   0.000  0.00  0.00    +0.000 OA
ATOM     10  O   UNL     1       0.523   1.731   0.000  0.00  0.00    +0.000 OA
ATOM     11  O   UNL     1       1.952   2.556   0.000  0.00  0.00    +0.000 OA
ENDBRANCH   7   8
ENDBRANCH   2   7
TORSDOF 3
