REMARK  Name = 
REMARK  5 active torsions:
REMARK  status: ('A' for Active; 'I' for Inactive)
REMARK    1  A    between atoms: C_7  and  C_18
REMARK    2  A    between atoms: C_16  and  C_20
REMARK    3  A    between atoms: C_16  and  O_21
REMARK    4  A    between atoms: C_18  and  C_23
REMARK    5  A    between atoms: O_21  and  C_23
REMARK                            x       y       z     vdW  Elec       q    Type
REMARK                         _______ _______ _______ _____ _____    ______ ____
ROOT
ATOM      1  C   UNL     1      -2.050  -1.007   0.000  0.00  0.00    +0.000 C 
ATOM      2  C   UNL     1       0.119   0.180   0.000  0.00  0.00    +0.000 C 
ATOM      3  C   UNL     1      -2.058  -1.831   0.000  0.00  0.00    +0.000 C 
ATOM      4  C   UNL     1       0.115  -0.644   0.000  0.00  0.00    +0.000 C 
ATOM      5  C   UNL     1      -0.612  -1.041   0.000  0.00  0.00    +0.000 C 
ATOM      6  C   UNL     1      -1.327  -0.610   0.000  0.00  0.00    +0.000 C 
ATOM      7  C   UNL     1       0.897   0.422   0.000  0.00  0.00    +0.000 C 
ATOM      8  C   UNL     1      -2.769  -0.577   0.000  0.00  0.00    +0.000 C 
ATOM      9  C   UNL     1      -0.600   0.606   0.000  0.00  0.00    +0.000 C 
ATOM     10  C   UNL     1      -1.323   0.213   0.000  0.00  0.00    +0.000 C 
ATOM     11  C   UNL     1       0.897  -0.920   0.000  0.00  0.00    +0.000 C 
ATOM     12  C   UNL     1       1.390  -0.263   0.000  0.00  0.00    +0.000 C 
ATOM     13  C   UNL     1      -0.617  -1.864   0.000  0.00  0.00    +0.000 C 
ATOM     14  C   UNL     1      -1.339  -2.261   0.000  0.00  0.00    +0.000 C 
ATOM     15  C   UNL     1      -2.782  -2.228   0.000  0.00  0.00    +0.000 C 
ATOM     16  C   UNL     1      -3.488  -0.974   0.000  0.00  0.00    +0.000 C 
ATOM     17  C   UNL     1      -3.496  -1.797   0.000  0.00  0.00    +0.000 C 
ATOM     18  O   UNL     1      -4.219  -2.194   0.000  0.00  0.00    +0.000 OA
ATOM     19  C   UNL     1      -2.046  -0.184   0.000  0.00  0.00    +0.000 C 
ATOM     20  C   UNL     1       0.077   1.012   0.000  0.00  0.00    +0.000 C 
ATOM     21  F   UNL     1      -1.344  -3.085   0.000  0.00  0.00    +0.000 F 
ATOM     22  O   UNL     1      -2.038   0.644   0.000  0.00  0.00    +0.000 OA
ATOM     23  C   UNL     1       2.213  -0.268   0.000  0.00  0.00    +0.000 C 
ENDROOT
BRANCH   7  24
ATOM     24  C   UNL     1       1.172   1.204   0.000  0.00  0.00    +0.000 C 
ATOM     25  O   UNL     1       0.617   1.827   0.000  0.00  0.00    +0.000 OA
BRANCH  24  26
ATOM     26  C   UNL     1       1.971   1.363   0.000  0.00  0.00    +0.000 C 
BRANCH  26  27
ATOM     27  O   UNL     1       2.247   2.144   0.000  0.00  0.00    +0.000 OA
BRANCH  27  28
ATOM     28  C   UNL     1       3.045   2.303   0.000  0.00  0.00    +0.000 C 
ATOM     29  O   UNL     1       3.317   3.085   0.000  0.00  0.00    +0.000 OA
BRANCH  28  30
ATOM     30  C   UNL     1       3.597   1.680   0.000  0.00  0.00    +0.000 C 
ATOM     31  C   UNL     1       2.974   1.124   0.000  0.00  0.00    +0.000 C 
ATOM     32  C   UNL     1       4.219   2.232   0.000  0.00  0.00    +0.000 C 
ATOM     33  C   UNL     1       4.148   1.057   0.000  0.00  0.00    +0.000 C 
ENDBRANCH  28  30
ENDBRANCH  27  28
ENDBRANCH  26  27
ENDBRANCH  24  26
ENDBRANCH   7  24
TORSDOF 5
