REMARK  Name = 
REMARK  3 active torsions:
REMARK  status: ('A' for Active; 'I' for Inactive)
REMARK    1  A    between atoms: C_2  and  C_3
REMARK    2  A    between atoms: C_25  and  SI_26
REMARK    3  A    between atoms: SI_26  and  C_29
REMARK                            x       y       z     vdW  Elec       q    Type
REMARK                         _______ _______ _______ _____ _____    ______ ____
ROOT
ATOM      1  C   UNL     1       5.617  -0.372   0.000  0.00  0.00    +0.000 C 
ATOM      2  C   UNL     1       5.064   0.241   0.000  0.00  0.00    +0.000 A 
ATOM      3  C   UNL     1       4.258   0.069   0.000  0.00  0.00    +0.000 A 
ATOM      4  C   UNL     1       3.705   0.682   0.000  0.00  0.00    +0.000 A 
ATOM      5  N   UNL     1       3.960   1.467   0.000  0.00  0.00    +0.000 N 
ATOM      6  C   UNL     1       4.767   1.639   0.000  0.00  0.00    +0.000 A 
ATOM      7  O   UNL     1       5.022   2.423   0.000  0.00  0.00    +0.000 OA
ATOM      8  C   UNL     1       5.319   1.026   0.000  0.00  0.00    +0.000 A 
ATOM      9  C   UNL     1       6.126   1.197   0.000  0.00  0.00    +0.000 C 
ATOM     10  O   UNL     1       6.678   0.584   0.000  0.00  0.00    +0.000 OA
ATOM     11  C   UNL     1       6.423  -0.201   0.000  0.00  0.00    +0.000 C 
ATOM     12  O   UNL     1       6.976  -0.814   0.000  0.00  0.00    +0.000 OA
ATOM     13  C   UNL     1       3.293   1.952   0.000  0.00  0.00    +0.000 C 
ATOM     14  C   UNL     1       2.626   1.467   0.000  0.00  0.00    +0.000 A 
ATOM     15  C   UNL     1       2.880   0.682   0.000  0.00  0.00    +0.000 A 
ATOM     16  N   UNL     1       2.328   0.069   0.000  0.00  0.00    +0.000 NA
ATOM     17  C   UNL     1       1.521   0.241   0.000  0.00  0.00    +0.000 A 
ATOM     18  C   UNL     1       0.969  -0.372   0.000  0.00  0.00    +0.000 A 
ATOM     19  C   UNL     1       0.162  -0.201   0.000  0.00  0.00    +0.000 A 
ATOM     20  C   UNL     1      -0.092   0.584   0.000  0.00  0.00    +0.000 A 
ATOM     21  C   UNL     1       0.460   1.197   0.000  0.00  0.00    +0.000 A 
ATOM     22  C   UNL     1       1.266   1.026   0.000  0.00  0.00    +0.000 A 
ATOM     23  C   UNL     1       1.819   1.639   0.000  0.00  0.00    +0.000 A 
ATOM     24  O   UNL     1      -0.899   0.756   0.000  0.00  0.00    +0.000 OA
ATOM     25  O   UNL     1       4.917  -0.809   0.000  0.00  0.00    +0.000 OA
ENDROOT
BRANCH  23  26
ATOM     26 SI   UNL     1       1.564   2.423   0.000  0.00  0.00    +0.000 Si
ATOM     27  C   UNL     1       2.348   2.678   0.000  0.00  0.00    +0.000 C 
ATOM     28  C   UNL     1       0.779   2.168   0.000  0.00  0.00    +0.000 C 
BRANCH  26  29
ATOM     29  C   UNL     1       1.309   3.208   0.000  0.00  0.00    +0.000 C 
ATOM     30  C   UNL     1       2.093   3.463   0.000  0.00  0.00    +0.000 C 
ATOM     31  C   UNL     1       0.524   2.953   0.000  0.00  0.00    +0.000 C 
ATOM     32  C   UNL     1       1.054   3.993   0.000  0.00  0.00    +0.000 C 
ENDBRANCH  26  29
ENDBRANCH  23  26
BRANCH   1  34
ATOM     33  C   UNL     1       5.418  -1.787   0.000  0.00  0.00    +0.000 C 
ATOM     34  C   UNL     1       5.926  -1.137   0.000  0.00  0.00    +0.000 C 
ENDBRANCH   1  34
TORSDOF 3
