REMARK  Name = 
REMARK  10 active torsions:
REMARK  status: ('A' for Active; 'I' for Inactive)
REMARK    1  A    between atoms: C_6  and  C_10
REMARK    2  A    between atoms: C_7  and  C_11
REMARK    3  A    between atoms: C_11  and  C_16
REMARK    4  A    between atoms: C_16  and  C_21
REMARK    5  A    between atoms: C_16  and  O_22
REMARK    6  A    between atoms: C_19  and  C_23
REMARK    7  A    between atoms: C_19  and  C_24
REMARK    8  A    between atoms: C_21  and  C_25
REMARK    9  A    between atoms: C_31  and  C_33
REMARK   10  A    between atoms: C_36  and  C_51
REMARK                            x       y       z     vdW  Elec       q    Type
REMARK                         _______ _______ _______ _____ _____    ______ ____
ROOT
ATOM      1  C   UNL     1      -0.325   0.671   0.000  0.00  0.00    +0.000 C 
ATOM      2  O   UNL     1       0.541   0.022   0.000  0.00  0.00    +0.000 OA
ATOM      3  C   UNL     1       0.108   1.407   0.000  0.00  0.00    +0.000 C 
ATOM      4  C   UNL     1       1.363   0.671   0.000  0.00  0.00    +0.000 C 
ATOM      5  C   UNL     1       0.931   1.407   0.000  0.00  0.00    +0.000 C 
ENDROOT
BRANCH   1  11
ATOM      6  C   UNL     1      -2.792   0.671   0.000  0.00  0.00    +0.000 C 
ATOM      7  O   UNL     1      -1.969   0.022   0.000  0.00  0.00    +0.000 OA
ATOM      8  O   UNL     1      -3.224  -0.065   0.000  0.00  0.00    +0.000 OA
ATOM      9  C   UNL     1      -2.402   1.407   0.000  0.00  0.00    +0.000 C 
ATOM     10  C   UNL     1      -3.224   1.363   0.000  0.00  0.00    +0.000 C 
ATOM     11  C   UNL     1      -1.147   0.671   0.000  0.00  0.00    +0.000 C 
ATOM     12  C   UNL     1      -4.047  -0.065   0.000  0.00  0.00    +0.000 C 
ATOM     13  C   UNL     1      -1.580   1.407   0.000  0.00  0.00    +0.000 C 
ATOM     14  C   UNL     1      -4.047   1.363   0.000  0.00  0.00    +0.000 C 
ATOM     15  C   UNL     1      -4.480   0.671   0.000  0.00  0.00    +0.000 C 
ATOM     16  O   UNL     1      -4.480   2.099   0.000  0.00  0.00    +0.000 OA
ATOM     17  C   UNL     1      -5.302   0.671   0.000  0.00  0.00    +0.000 C 
ATOM     18  C   UNL     1      -1.147  -0.281   0.000  0.00  0.00    +0.000 C 
BRANCH  12  19
ATOM     19  C   UNL     1      -4.480  -0.757   0.000  0.00  0.00    +0.000 C 
ATOM     20  C   UNL     1      -4.090  -1.493   0.000  0.00  0.00    +0.000 C 
BRANCH  19  21
ATOM     21  C   UNL     1      -5.302  -0.757   0.000  0.00  0.00    +0.000 C 
BRANCH  21  22
ATOM     22  O   UNL     1      -5.735  -0.065   0.000  0.00  0.00    +0.000 OA
ATOM     23  C   UNL     1      -6.557  -0.065   0.000  0.00  0.00    +0.000 C 
ENDBRANCH  21  22
BRANCH  21  24
ATOM     24  C   UNL     1      -5.735  -1.493   0.000  0.00  0.00    +0.000 C 
ATOM     25  C   UNL     1      -5.302  -2.229   0.000  0.00  0.00    +0.000 C 
BRANCH  24  26
ATOM     26  C   UNL     1      -6.557  -1.493   0.000  0.00  0.00    +0.000 C 
ATOM     27  O   UNL     1      -6.990  -2.229   0.000  0.00  0.00    +0.000 OA
ATOM     28  O   UNL     1      -7.163  -0.887   0.000  0.00  0.00    +0.000 OA
ENDBRANCH  24  26
ENDBRANCH  21  24
ENDBRANCH  19  21
ENDBRANCH  12  19
ENDBRANCH   1  11
BRANCH   4  29
ATOM     29  C   UNL     1       2.186   0.671   0.000  0.00  0.00    +0.000 C 
ATOM     30  O   UNL     1       3.008   0.065   0.000  0.00  0.00    +0.000 OA
ATOM     31  C   UNL     1       3.830   0.671   0.000  0.00  0.00    +0.000 C 
ATOM     32  C   UNL     1       3.398   1.407   0.000  0.00  0.00    +0.000 C 
ATOM     33  C   UNL     1       2.575   2.229   0.000  0.00  0.00    +0.000 C 
ATOM     34  C   UNL     1       2.619   1.407   0.000  0.00  0.00    +0.000 C 
BRANCH  31  35
ATOM     35  C   UNL     1       4.653   0.671   0.000  0.00  0.00    +0.000 C 
ATOM     36  O   UNL     1       5.086  -0.022   0.000  0.00  0.00    +0.000 OA
ATOM     37  C   UNL     1       5.086   1.407   0.000  0.00  0.00    +0.000 C 
ATOM     38  C   UNL     1       5.908  -0.065   0.000  0.00  0.00    +0.000 C 
ATOM     39  C   UNL     1       5.908   1.407   0.000  0.00  0.00    +0.000 C 
ATOM     40  C   UNL     1       4.653   2.099   0.000  0.00  0.00    +0.000 C 
ATOM     41  C   UNL     1       6.341   0.671   0.000  0.00  0.00    +0.000 C 
ATOM     42  O   UNL     1       6.711   0.143   0.000  0.00  0.00    +0.000 OA
ATOM     43  C   UNL     1       7.163   0.671   0.000  0.00  0.00    +0.000 C 
BRANCH  38  44
ATOM     44  C   UNL     1       6.312  -0.783   0.000  0.00  0.00    +0.000 C 
ATOM     45  O   UNL     1       5.906  -1.496   0.000  0.00  0.00    +0.000 OA
ENDBRANCH  38  44
ENDBRANCH  31  35
ENDBRANCH   4  29
BRANCH   4  46
ATOM     46  C   UNL     1       1.753   1.407   0.000  0.00  0.00    +0.000 C 
ATOM     47  C   UNL     1       1.320   2.143   0.000  0.00  0.00    +0.000 C 
ENDBRANCH   4  46
TORSDOF 10
