REMARK  Name = 
REMARK  8 active torsions:
REMARK  status: ('A' for Active; 'I' for Inactive)
REMARK    1  A    between atoms: C_3  and  C_9
REMARK    2  A    between atoms: C_4  and  O_22
REMARK    3  A    between atoms: C_9  and  N_18
REMARK    4  A    between atoms: C_11  and  C_12
REMARK    5  A    between atoms: C_11  and  C_14
REMARK    6  A    between atoms: C_14  and  C_17
REMARK    7  A    between atoms: C_14  and  N_18
REMARK    8  A    between atoms: C_17  and  O_22
REMARK                            x       y       z     vdW  Elec       q    Type
REMARK                         _______ _______ _______ _____ _____    ______ ____
ROOT
ATOM      1  C   UNL     1      -0.357   0.206   0.000  0.00  0.00    +0.000 C 
ENDROOT
BRANCH   1   7
ATOM      2  C   UNL     1      -0.357   2.681   0.000  0.00  0.00    +0.000 A 
ATOM      3  C   UNL     1      -0.357   1.856   0.000  0.00  0.00    +0.000 A 
ATOM      4  C   UNL     1       1.072   0.206   0.000  0.00  0.00    +0.000 A 
ATOM      5  C   UNL     1       1.786   0.619   0.000  0.00  0.00    +0.000 A 
ATOM      6  C   UNL     1       0.357   3.094   0.000  0.00  0.00    +0.000 A 
ATOM      7  C   UNL     1       0.357   0.619   0.000  0.00  0.00    +0.000 A 
ATOM      8  C   UNL     1       0.357   1.444   0.000  0.00  0.00    +0.000 A 
ATOM      9  C   UNL     1       1.786   1.444   0.000  0.00  0.00    +0.000 A 
ATOM     10  C   UNL     1       1.072   1.856   0.000  0.00  0.00    +0.000 A 
ATOM     11  N   UNL     1       1.072   2.681   0.000  0.00  0.00    +0.000 NA
ATOM     12  O   UNL     1       2.501   1.856   0.000  0.00  0.00    +0.000 OA
ENDBRANCH   1   7
BRANCH   1  13
ATOM     13  C   UNL     1      -0.357  -0.619   0.000  0.00  0.00    +0.000 C 
BRANCH  13  14
ATOM     14  C   UNL     1       0.357  -1.031   0.000  0.00  0.00    +0.000 C 
ATOM     15  O   UNL     1       1.072  -0.619   0.000  0.00  0.00    +0.000 OA
BRANCH  14  16
ATOM     16  O   UNL     1       0.357  -1.856   0.000  0.00  0.00    +0.000 OA
BRANCH  16  18
ATOM     17  C   UNL     1       1.072  -3.094   0.000  0.00  0.00    +0.000 C 
ATOM     18  C   UNL     1       1.072  -2.269   0.000  0.00  0.00    +0.000 C 
ENDBRANCH  16  18
ENDBRANCH  14  16
ENDBRANCH  13  14
BRANCH  13  19
ATOM     19  N   UNL     1      -1.072  -1.031   0.000  0.00  0.00    +0.000 NA
BRANCH  19  20
ATOM     20  C   UNL     1      -1.072  -1.856   0.000  0.00  0.00    +0.000 C 
BRANCH  20  22
ATOM     21  C   UNL     1      -2.501  -2.681   0.000  0.00  0.00    +0.000 C 
ATOM     22  C   UNL     1      -1.786  -2.269   0.000  0.00  0.00    +0.000 C 
ENDBRANCH  20  22
ENDBRANCH  19  20
ENDBRANCH  13  19
ENDBRANCH   1  13
TORSDOF 8
