REMARK  Name = 
REMARK  14 active torsions:
REMARK  status: ('A' for Active; 'I' for Inactive)
REMARK    1  A    between atoms: O_2  and  C_3
REMARK    2  A    between atoms: C_3  and  C_4
REMARK    3  A    between atoms: C_8  and  C_9
REMARK    4  A    between atoms: C_9  and  C_10
REMARK    5  A    between atoms: C_10  and  C_12
REMARK    6  A    between atoms: C_13  and  C_14
REMARK    7  A    between atoms: C_20  and  C_21
REMARK    8  A    between atoms: C_21  and  C_22
REMARK    9  A    between atoms: C_22  and  S_23
REMARK   10  A    between atoms: S_23  and  C_24
REMARK   11  A    between atoms: C_24  and  C_25
REMARK   12  A    between atoms: C_25  and  C_26
REMARK   13  A    between atoms: C_26  and  C_27
REMARK   14  A    between atoms: C_27  and  O_29
REMARK                            x       y       z     vdW  Elec       q    Type
REMARK                         _______ _______ _______ _____ _____    ______ ____
ROOT
ATOM      1  C   UNL     1       4.794   1.186   0.000  0.00  0.00    +0.000 C 
ATOM      2  C   UNL     1       4.778   2.011   0.000  0.00  0.00    +0.000 C 
ATOM      3  O   UNL     1       4.101   2.483   0.000  0.00  0.00    +0.000 OA
ATOM      4  C   UNL     1       5.558   2.281   0.000  0.00  0.00    +0.000 C 
ATOM      5  C   UNL     1       6.055   1.623   0.000  0.00  0.00    +0.000 C 
ATOM      6  O   UNL     1       6.880   1.639   0.000  0.00  0.00    +0.000 OA
ATOM      7  C   UNL     1       5.583   0.946   0.000  0.00  0.00    +0.000 C 
ENDROOT
BRANCH   1   9
ATOM      8  C   UNL     1       3.376   1.009   0.000  0.00  0.00    +0.000 C 
ATOM      9  C   UNL     1       4.136   0.688   0.000  0.00  0.00    +0.000 C 
BRANCH   8  10
ATOM     10  C   UNL     1       2.718   0.511   0.000  0.00  0.00    +0.000 C 
ATOM     11  O   UNL     1       2.820  -0.307   0.000  0.00  0.00    +0.000 OA
BRANCH  10  12
ATOM     12  C   UNL     1       1.958   0.832   0.000  0.00  0.00    +0.000 C 
BRANCH  12  17
ATOM     13  C   UNL     1       0.744  -0.982   0.000  0.00  0.00    +0.000 A 
ATOM     14  C   UNL     1      -0.016  -0.661   0.000  0.00  0.00    +0.000 A 
ATOM     15  C   UNL     1      -0.118   0.158   0.000  0.00  0.00    +0.000 A 
ATOM     16  C   UNL     1       0.540   0.655   0.000  0.00  0.00    +0.000 A 
ATOM     17  C   UNL     1       1.300   0.335   0.000  0.00  0.00    +0.000 A 
ATOM     18  C   UNL     1       1.402  -0.484   0.000  0.00  0.00    +0.000 A 
BRANCH  13  19
ATOM     19  C   UNL     1       0.846  -1.800   0.000  0.00  0.00    +0.000 C 
BRANCH  19  21
ATOM     20  C   UNL     1       0.290  -3.117   0.000  0.00  0.00    +0.000 C 
ATOM     21  O   UNL     1       0.188  -2.298   0.000  0.00  0.00    +0.000 OA
ENDBRANCH  19  21
ENDBRANCH  13  19
ENDBRANCH  12  17
ENDBRANCH  10  12
ENDBRANCH   8  10
ENDBRANCH   1   9
BRANCH   7  22
ATOM     22  C   UNL     1       5.854   0.167   0.000  0.00  0.00    +0.000 C 
BRANCH  22  23
ATOM     23  C   UNL     1       5.313  -0.457   0.000  0.00  0.00    +0.000 C 
BRANCH  23  24
ATOM     24  S   UNL     1       5.583  -1.237   0.000  0.00  0.00    +0.000 S 
BRANCH  24  25
ATOM     25  C   UNL     1       6.394  -1.393   0.000  0.00  0.00    +0.000 C 
BRANCH  25  26
ATOM     26  C   UNL     1       6.934  -0.769   0.000  0.00  0.00    +0.000 C 
BRANCH  26  27
ATOM     27  C   UNL     1       7.744  -0.925   0.000  0.00  0.00    +0.000 C 
BRANCH  27  28
ATOM     28  C   UNL     1       8.284  -0.301   0.000  0.00  0.00    +0.000 C 
ATOM     29  O   UNL     1       8.014   0.478   0.000  0.00  0.00    +0.000 OA
BRANCH  28  30
ATOM     30  O   UNL     1       9.094  -0.457   0.000  0.00  0.00    +0.000 OA
ATOM     31  C   UNL     1       9.634   0.167   0.000  0.00  0.00    +0.000 C 
ENDBRANCH  28  30
ENDBRANCH  27  28
ENDBRANCH  26  27
ENDBRANCH  25  26
ENDBRANCH  24  25
ENDBRANCH  23  24
ENDBRANCH  22  23
ENDBRANCH   7  22
TORSDOF 14
