REMARK  Name = 
REMARK  4 active torsions:
REMARK  status: ('A' for Active; 'I' for Inactive)
REMARK    1  A    between atoms: C_10  and  C_14
REMARK    2  A    between atoms: C_10  and  C_15
REMARK    3  A    between atoms: C_11  and  C_16
REMARK    4  A    between atoms: C_12  and  C_17
REMARK                            x       y       z     vdW  Elec       q    Type
REMARK                         _______ _______ _______ _____ _____    ______ ____
ROOT
ATOM      1  C   UNL     1      -0.655   1.805   0.000  0.00  0.00    +0.000 A 
ATOM      2  C   UNL     1      -1.322   2.290   0.000  0.00  0.00    +0.000 A 
ATOM      3  C   UNL     1      -1.735   1.021   0.000  0.00  0.00    +0.000 A 
ATOM      4  N   UNL     1      -1.990   1.805   0.000  0.00  0.00    +0.000 NA
ATOM      5  S   UNL     1      -0.910   1.021   0.000  0.00  0.00    +0.000 S 
ENDROOT
BRANCH   2  10
ATOM      6  C   UNL     1      -0.608   3.528   0.000  0.00  0.00    +0.000 A 
ATOM      7  C   UNL     1      -2.037   3.528   0.000  0.00  0.00    +0.000 A 
ATOM      8  C   UNL     1      -0.608   4.353   0.000  0.00  0.00    +0.000 A 
ATOM      9  C   UNL     1      -2.037   4.353   0.000  0.00  0.00    +0.000 A 
ATOM     10  C   UNL     1      -1.322   3.115   0.000  0.00  0.00    +0.000 A 
ATOM     11  C   UNL     1      -1.322   4.765   0.000  0.00  0.00    +0.000 A 
ATOM     12 CL   UNL     1      -1.322   5.590   0.000  0.00  0.00    +0.000 Cl
ENDBRANCH   2  10
BRANCH   3  18
ATOM     13  C   UNL     1      -3.189  -0.982   0.000  0.00  0.00    +0.000 A 
ATOM     14  C   UNL     1      -2.369  -1.068   0.000  0.00  0.00    +0.000 A 
ATOM     15  C   UNL     1      -3.525  -0.228   0.000  0.00  0.00    +0.000 A 
ATOM     16  C   UNL     1      -1.884  -0.401   0.000  0.00  0.00    +0.000 A 
ATOM     17  C   UNL     1      -3.040   0.439   0.000  0.00  0.00    +0.000 A 
ATOM     18  C   UNL     1      -2.220   0.353   0.000  0.00  0.00    +0.000 A 
ENDBRANCH   3  18
BRANCH   1  19
ATOM     19  C   UNL     1       0.130   2.060   0.000  0.00  0.00    +0.000 C 
BRANCH  19  20
ATOM     20  C   UNL     1       0.743   1.508   0.000  0.00  0.00    +0.000 C 
ATOM     21  O   UNL     1       0.571   0.701   0.000  0.00  0.00    +0.000 OA
ATOM     22  O   UNL     1       1.528   1.763   0.000  0.00  0.00    +0.000 OA
ENDBRANCH  19  20
ENDBRANCH   1  19
TORSDOF 4
