REMARK  Name = 
REMARK  1 active torsions:
REMARK  status: ('A' for Active; 'I' for Inactive)
REMARK    1  A    between atoms: C_3  and  C_10
REMARK                            x       y       z     vdW  Elec       q    Type
REMARK                         _______ _______ _______ _____ _____    ______ ____
ROOT
ATOM      1  C   UNL     1       0.325  -1.141   0.000  0.00  0.00    +0.000 C 
ATOM      2  C   UNL     1       1.040  -0.729   0.000  0.00  0.00    +0.000 C 
ATOM      3  C   UNL     1      -0.389  -0.729   0.000  0.00  0.00    +0.000 C 
ATOM      4  N   UNL     1       1.040   0.096   0.000  0.00  0.00    +0.000 NA
ATOM      5  O   UNL     1       1.754  -1.141   0.000  0.00  0.00    +0.000 OA
ATOM      6  C   UNL     1      -0.389   0.096   0.000  0.00  0.00    +0.000 C 
ATOM      7  C   UNL     1       0.325   0.509   0.000  0.00  0.00    +0.000 C 
ATOM      8  O   UNL     1       0.325   1.334   0.000  0.00  0.00    +0.000 OA
ATOM      9  C   UNL     1      -1.287  -0.458   0.000  0.00  0.00    +0.000 C 
ENDROOT
BRANCH   3  10
ATOM     10  C   UNL     1      -0.950  -1.334   0.000  0.00  0.00    +0.000 C 
ATOM     11  C   UNL     1      -1.754  -1.151   0.000  0.00  0.00    +0.000 C 
ENDBRANCH   3  10
TORSDOF 1
