REMARK  Name = 
REMARK  9 active torsions:
REMARK  status: ('A' for Active; 'I' for Inactive)
REMARK    1  A    between atoms: C_3  and  O_28
REMARK    2  A    between atoms: C_18  and  C_20
REMARK    3  A    between atoms: C_18  and  N_25
REMARK    4  A    between atoms: C_19  and  C_23
REMARK    5  A    between atoms: C_19  and  N_26
REMARK    6  A    between atoms: C_20  and  C_24
REMARK    7  A    between atoms: C_21  and  C_23
REMARK    8  A    between atoms: C_22  and  C_24
REMARK    9  A    between atoms: C_23  and  O_28
REMARK                            x       y       z     vdW  Elec       q    Type
REMARK                         _______ _______ _______ _____ _____    ______ ____
ROOT
ATOM      1  C   UNL     1       5.001  -1.238   0.000  0.00  0.00    +0.000 C 
ATOM      2  C   UNL     1       3.572  -1.238   0.000  0.00  0.00    +0.000 C 
ATOM      3  C   UNL     1       5.001  -0.412   0.000  0.00  0.00    +0.000 C 
ATOM      4  C   UNL     1       3.572  -0.412   0.000  0.00  0.00    +0.000 C 
ATOM      5  N   UNL     1       4.287  -1.650   0.000  0.00  0.00    +0.000 NA
ATOM      6  N   UNL     1       4.287   0.000   0.000  0.00  0.00    +0.000 NA
ENDROOT
BRANCH   6   7
ATOM      7  C   UNL     1       4.287   0.825   0.000  0.00  0.00    +0.000 C 
BRANCH   7   8
ATOM      8  C   UNL     1       3.572   1.238   0.000  0.00  0.00    +0.000 C 
BRANCH   8  14
ATOM      9  C   UNL     1       3.572   3.712   0.000  0.00  0.00    +0.000 A 
ATOM     10  C   UNL     1       2.858   3.300   0.000  0.00  0.00    +0.000 A 
ATOM     11  C   UNL     1       4.287   3.300   0.000  0.00  0.00    +0.000 A 
ATOM     12  C   UNL     1       2.858   2.475   0.000  0.00  0.00    +0.000 A 
ATOM     13  C   UNL     1       4.287   2.475   0.000  0.00  0.00    +0.000 A 
ATOM     14  C   UNL     1       3.572   2.062   0.000  0.00  0.00    +0.000 A 
ENDBRANCH   8  14
BRANCH   8  15
ATOM     15  O   UNL     1       2.858   0.825   0.000  0.00  0.00    +0.000 OA
BRANCH  15  17
ATOM     16  C   UNL     1       2.143  -0.412   0.000  0.00  0.00    +0.000 C 
ATOM     17  C   UNL     1       2.858   0.000   0.000  0.00  0.00    +0.000 C 
ENDBRANCH  15  17
ENDBRANCH   8  15
ENDBRANCH   7   8
ENDBRANCH   6   7
BRANCH   5  18
ATOM     18  C   UNL     1       4.287  -2.475   0.000  0.00  0.00    +0.000 C 
BRANCH  18  20
ATOM     19  C   UNL     1       2.858  -2.475   0.000  0.00  0.00    +0.000 C 
ATOM     20  C   UNL     1       3.572  -2.888   0.000  0.00  0.00    +0.000 C 
BRANCH  20  21
ATOM     21  C   UNL     1       3.572  -3.712   0.000  0.00  0.00    +0.000 C 
ATOM     22  O   UNL     1       4.287  -4.125   0.000  0.00  0.00    +0.000 OA
BRANCH  21  28
ATOM     23  C   UNL     1       1.429  -4.950   0.000  0.00  0.00    +0.000 A 
ATOM     24  C   UNL     1       2.143  -5.362   0.000  0.00  0.00    +0.000 A 
ATOM     25  C   UNL     1       1.429  -4.125   0.000  0.00  0.00    +0.000 A 
ATOM     26  C   UNL     1       2.858  -4.950   0.000  0.00  0.00    +0.000 A 
ATOM     27  C   UNL     1       2.143  -3.712   0.000  0.00  0.00    +0.000 A 
ATOM     28  C   UNL     1       2.858  -4.125   0.000  0.00  0.00    +0.000 A 
ENDBRANCH  21  28
ENDBRANCH  20  21
ENDBRANCH  18  20
ENDBRANCH   5  18
TORSDOF 9
