REMARK  Name = 
REMARK  6 active torsions:
REMARK  status: ('A' for Active; 'I' for Inactive)
REMARK    1  A    between atoms: C_2  and  N_3
REMARK    2  A    between atoms: N_3  and  C_4
REMARK    3  A    between atoms: C_6  and  C_8
REMARK    4  A    between atoms: C_15  and  O_16
REMARK    5  A    between atoms: N_22  and  C_23
REMARK    6  A    between atoms: C_23  and  C_24
REMARK                            x       y       z     vdW  Elec       q    Type
REMARK                         _______ _______ _______ _____ _____    ______ ____
ROOT
ATOM      1  C   UNL     1       2.898  -0.372   0.000  0.00  0.00    +0.000 C 
ATOM      2  C   UNL     1       3.705  -0.201   0.000  0.00  0.00    +0.000 C 
ATOM      3  C   UNL     1       3.960   0.584   0.000  0.00  0.00    +0.000 C 
ATOM      4  C   UNL     1       3.408   1.197   0.000  0.00  0.00    +0.000 C 
ATOM      5  C   UNL     1       2.601   1.026   0.000  0.00  0.00    +0.000 A 
ATOM      6  C   UNL     1       2.346   0.241   0.000  0.00  0.00    +0.000 A 
ATOM      7  C   UNL     1       1.521   0.241   0.000  0.00  0.00    +0.000 A 
ATOM      8  C   UNL     1       0.969  -0.372   0.000  0.00  0.00    +0.000 A 
ATOM      9  C   UNL     1       0.162  -0.201   0.000  0.00  0.00    +0.000 A 
ATOM     10  C   UNL     1      -0.092   0.584   0.000  0.00  0.00    +0.000 A 
ATOM     11  C   UNL     1       0.460   1.197   0.000  0.00  0.00    +0.000 A 
ATOM     12  C   UNL     1       1.266   1.026   0.000  0.00  0.00    +0.000 A 
ATOM     13  N   UNL     1       1.934   1.510   0.000  0.00  0.00    +0.000 N 
ENDROOT
BRANCH   1  15
ATOM     14  N   UNL     1       3.196  -1.770   0.000  0.00  0.00    +0.000 N 
ATOM     15  C   UNL     1       2.643  -1.157   0.000  0.00  0.00    +0.000 C 
ATOM     16  O   UNL     1       1.837  -1.328   0.000  0.00  0.00    +0.000 OA
BRANCH  14  17
ATOM     17  C   UNL     1       4.003  -1.598   0.000  0.00  0.00    +0.000 C 
ATOM     18  C   UNL     1       4.258  -0.814   0.000  0.00  0.00    +0.000 C 
ENDBRANCH  14  17
BRANCH  14  20
ATOM     19  C   UNL     1       3.493  -3.168   0.000  0.00  0.00    +0.000 C 
ATOM     20  C   UNL     1       2.941  -2.554   0.000  0.00  0.00    +0.000 C 
ENDBRANCH  14  20
ENDBRANCH   1  15
BRANCH   8  21
ATOM     21  O   UNL     1       1.224  -1.157   0.000  0.00  0.00    +0.000 OA
ATOM     22  C   UNL     1       0.672  -1.770   0.000  0.00  0.00    +0.000 C 
ENDBRANCH   8  21
BRANCH  13  23
ATOM     23  C   UNL     1       1.934   2.336   0.000  0.00  0.00    +0.000 C 
BRANCH  23  24
ATOM     24  C   UNL     1       2.648   2.748   0.000  0.00  0.00    +0.000 C 
ATOM     25  F   UNL     1       2.648   3.573   0.000  0.00  0.00    +0.000 F 
ENDBRANCH  23  24
ENDBRANCH  13  23
TORSDOF 6
