REMARK  Name = 
REMARK  7 active torsions:
REMARK  status: ('A' for Active; 'I' for Inactive)
REMARK    1  A    between atoms: C_9  and  C_13
REMARK    2  A    between atoms: C_10  and  C_15
REMARK    3  A    between atoms: C_12  and  C_18
REMARK    4  A    between atoms: C_14  and  C_19
REMARK    5  A    between atoms: C_16  and  N_24
REMARK    6  A    between atoms: C_18  and  C_20
REMARK    7  A    between atoms: C_18  and  N_24
REMARK                            x       y       z     vdW  Elec       q    Type
REMARK                         _______ _______ _______ _____ _____    ______ ____
ROOT
ATOM      1  C   UNL     1       1.429   2.097   0.000  0.00  0.00    +0.000 C 
ENDROOT
BRANCH   1   3
ATOM      2  C   UNL     1       1.016   0.003   0.000  0.00  0.00    +0.000 A 
ATOM      3  C   UNL     1       1.429   1.272   0.000  0.00  0.00    +0.000 A 
ATOM      4  N   UNL     1       1.841   0.003   0.000  0.00  0.00    +0.000 NA
ATOM      5  N   UNL     1       2.096   0.787   0.000  0.00  0.00    +0.000 NA
ATOM      6  O   UNL     1       0.761   0.787   0.000  0.00  0.00    +0.000 OA
BRANCH   2  12
ATOM      7  C   UNL     1       0.382  -2.086   0.000  0.00  0.00    +0.000 A 
ATOM      8  C   UNL     1      -0.774  -1.246   0.000  0.00  0.00    +0.000 A 
ATOM      9  C   UNL     1       0.867  -1.419   0.000  0.00  0.00    +0.000 A 
ATOM     10  C   UNL     1      -0.289  -0.579   0.000  0.00  0.00    +0.000 A 
ATOM     11  C   UNL     1      -0.438  -2.000   0.000  0.00  0.00    +0.000 A 
ATOM     12  C   UNL     1       0.531  -0.665   0.000  0.00  0.00    +0.000 A 
BRANCH  11  13
ATOM     13  C   UNL     1      -0.923  -2.667   0.000  0.00  0.00    +0.000 C 
ATOM     14  N   UNL     1      -1.408  -3.335   0.000  0.00  0.00    +0.000 NA
ENDBRANCH  11  13
ENDBRANCH   2  12
ENDBRANCH   1   3
BRANCH   1  16
ATOM     15  C   UNL     1       2.143   3.335   0.000  0.00  0.00    +0.000 C 
ATOM     16  C   UNL     1       2.143   2.510   0.000  0.00  0.00    +0.000 C 
ATOM     17  O   UNL     1       2.858   2.097   0.000  0.00  0.00    +0.000 OA
ENDBRANCH   1  16
BRANCH   1  18
ATOM     18  N   UNL     1       0.714   2.510   0.000  0.00  0.00    +0.000 NA
BRANCH  18  24
ATOM     19  C   UNL     1      -0.714   3.335   0.000  0.00  0.00    +0.000 C 
ATOM     20  C   UNL     1      -0.714   0.860   0.000  0.00  0.00    +0.000 A 
ATOM     21  C   UNL     1       0.000   1.272   0.000  0.00  0.00    +0.000 A 
ATOM     22  C   UNL     1      -0.714   2.510   0.000  0.00  0.00    +0.000 A 
ATOM     23  C   UNL     1      -1.429   1.272   0.000  0.00  0.00    +0.000 A 
ATOM     24  C   UNL     1       0.000   2.097   0.000  0.00  0.00    +0.000 A 
ATOM     25  C   UNL     1      -1.429   2.097   0.000  0.00  0.00    +0.000 A 
ATOM     26 CL   UNL     1      -2.143   2.510   0.000  0.00  0.00    +0.000 Cl
BRANCH  23  27
ATOM     27  C   UNL     1      -2.143   0.860   0.000  0.00  0.00    +0.000 C 
ATOM     28  N   UNL     1      -2.858   0.447   0.000  0.00  0.00    +0.000 NA
ENDBRANCH  23  27
ENDBRANCH  18  24
ENDBRANCH   1  18
TORSDOF 7
