REMARK  Name = 
REMARK  5 active torsions:
REMARK  status: ('A' for Active; 'I' for Inactive)
REMARK    1  A    between atoms: C_2  and  C_4
REMARK    2  A    between atoms: C_2  and  S_7
REMARK    3  A    between atoms: S_7  and  C_8
REMARK    4  A    between atoms: C_13  and  C_14
REMARK    5  A    between atoms: C_17  and  C_24
REMARK                            x       y       z     vdW  Elec       q    Type
REMARK                         _______ _______ _______ _____ _____    ______ ____
ROOT
ATOM      1  C   UNL     1      -0.715   1.238   0.000  0.00  0.00    +0.000 A 
ATOM      2  C   UNL     1      -0.715   2.062   0.000  0.00  0.00    +0.000 A 
ATOM      3  C   UNL     1       0.000   2.475   0.000  0.00  0.00    +0.000 A 
ATOM      4  N   UNL     1       0.715   2.062   0.000  0.00  0.00    +0.000 NA
ATOM      5  C   UNL     1       0.715   1.238   0.000  0.00  0.00    +0.000 A 
ATOM      6  C   UNL     1       0.000   0.825   0.000  0.00  0.00    +0.000 A 
ENDROOT
BRANCH   6   7
ATOM      7  C   UNL     1       0.000   0.000   0.000  0.00  0.00    +0.000 A 
ATOM      8  C   UNL     1      -0.715  -0.412   0.000  0.00  0.00    +0.000 A 
ATOM      9  C   UNL     1      -0.715  -1.238   0.000  0.00  0.00    +0.000 A 
ATOM     10  C   UNL     1       0.000  -1.650   0.000  0.00  0.00    +0.000 A 
ATOM     11  C   UNL     1       0.715  -1.238   0.000  0.00  0.00    +0.000 A 
ATOM     12  C   UNL     1       0.715  -0.412   0.000  0.00  0.00    +0.000 A 
ATOM     13  C   UNL     1       1.429   0.000   0.000  0.00  0.00    +0.000 A 
ATOM     14  C   UNL     1       2.143  -0.412   0.000  0.00  0.00    +0.000 A 
ATOM     15  C   UNL     1       2.143  -1.238   0.000  0.00  0.00    +0.000 A 
ATOM     16  C   UNL     1       1.429  -1.650   0.000  0.00  0.00    +0.000 A 
BRANCH  10  17
ATOM     17  C   UNL     1       0.000  -2.475   0.000  0.00  0.00    +0.000 C 
ATOM     18  N   UNL     1       0.000  -3.300   0.000  0.00  0.00    +0.000 NA
ENDBRANCH  10  17
ENDBRANCH   6   7
BRANCH   1  19
ATOM     19  S   UNL     1      -1.429   0.825   0.000  0.00  0.00    +0.000 S 
BRANCH  19  21
ATOM     20  C   UNL     1      -2.556   0.523   0.000  0.00  0.00    +0.000 C 
ATOM     21  C   UNL     1      -2.143   1.238   0.000  0.00  0.00    +0.000 C 
ATOM     22  C   UNL     1      -1.731   1.952   0.000  0.00  0.00    +0.000 C 
BRANCH  21  23
ATOM     23  C   UNL     1      -2.858   1.650   0.000  0.00  0.00    +0.000 C 
ATOM     24  O   UNL     1      -3.572   1.238   0.000  0.00  0.00    +0.000 OA
ATOM     25  O   UNL     1      -2.858   2.475   0.000  0.00  0.00    +0.000 OA
ENDBRANCH  21  23
ENDBRANCH  19  21
ENDBRANCH   1  19
TORSDOF 5
