REMARK  Name = 
REMARK  26 active torsions:
REMARK  status: ('A' for Active; 'I' for Inactive)
REMARK    1  A    between atoms: CA_4  and  CB_7
REMARK    2  A    between atoms: CA_10  and  CB_12
REMARK    3  A    between atoms: CB_12  and  CG_94
REMARK    4  A    between atoms: CA_14  and  CB_17
REMARK    5  A    between atoms: CA_21  and  CB_24
REMARK    6  A    between atoms: CG_22  and  CB_24
REMARK    7  A    between atoms: CG_22  and  CD_90
REMARK    8  A    between atoms: CA_26  and  CB_28
REMARK    9  A    between atoms: CB_28  and  CG_81
REMARK   10  A    between atoms: CA_32  and  CB_35
REMARK   11  A    between atoms: CG_33  and  CB_35
REMARK   12  A    between atoms: CA_43  and  CB_74
REMARK   13  A    between atoms: CA_46  and  CB_48
REMARK   14  A    between atoms: CB_48  and  CG_71
REMARK   15  A    between atoms: CA_50  and  CB_52
REMARK   16  A    between atoms: CB_52  and  CG_54
REMARK   17  A    between atoms: CG_54  and  CD_68
REMARK   18  A    between atoms: CA_57  and  N_58
REMARK   19  A    between atoms: CA_60  and  C_61
REMARK   20  A    between atoms: CA_60  and  N_62
REMARK   21  A    between atoms: CA_65  and  C_66
REMARK   22  A    between atoms: CD_68  and  CE_69
REMARK   23  A    between atoms: CB_74  and  CG_75
REMARK   24  A    between atoms: CD_90  and  CE_91
REMARK   25  A    between atoms: CA_104  and  C_105
REMARK   26  A    between atoms: CA_106  and  CB_108
REMARK                            x       y       z     vdW  Elec       q    Type
REMARK                         _______ _______ _______ _____ _____    ______ ____
ROOT
ATOM      1  O   THR A  12      -0.290  -4.537   0.000  0.00  0.00    +0.000 OA
ATOM      2  N   THR A  12       1.139  -3.712   0.000  0.00  0.00    +0.000 NA
ATOM      3  N   SER A  13      -1.004  -3.300   0.000  0.00  0.00    +0.000 NA
ATOM      4  CA  THR A  12       0.425  -3.300   0.000  0.00  0.00    +0.000 C 
ATOM      5  C   THR A  12      -0.290  -3.712   0.000  0.00  0.00    +0.000 C 
ATOM      6  O   PHE A  11       1.854  -2.475   0.000  0.00  0.00    +0.000 OA
ATOM      7  N   PHE A  11       3.283  -3.300   0.000  0.00  0.00    +0.000 NA
ATOM      8  CA  PHE A  11       2.568  -3.712   0.000  0.00  0.00    +0.000 C 
ATOM      9  C   PHE A  11       1.854  -3.271   0.000  0.00  0.00    +0.000 C 
ATOM     10  O   THR A  10       3.997  -4.537   0.000  0.00  0.00    +0.000 OA
ATOM     11  CA  THR A  10       4.712  -3.300   0.000  0.00  0.00    +0.000 C 
ATOM     12  C   THR A  10       3.997  -3.712   0.000  0.00  0.00    +0.000 C 
ATOM     13  N   THR A  10       4.712  -2.475   0.000  0.00  0.00    +0.000 NA
ATOM     14  O   LYS A   9       3.283  -2.475   0.000  0.00  0.00    +0.000 OA
ATOM     15  N   LYS A   9       4.712  -0.825   0.000  0.00  0.00    +0.000 NA
ATOM     16  CA  LYS A   9       3.998  -1.237   0.000  0.00  0.00    +0.000 C 
ATOM     17  C   LYS A   9       3.998  -2.062   0.000  0.00  0.00    +0.000 C 
ATOM     18  O   TRP A   8       3.998   0.412   0.000  0.00  0.00    +0.000 OA
ATOM     19  CA  TRP A   8       5.427   0.412   0.000  0.00  0.00    +0.000 C 
ATOM     20  C   TRP A   8       4.712   0.000   0.000  0.00  0.00    +0.000 C 
ATOM     21  N   TRP A   8       5.427   1.237   0.000  0.00  0.00    +0.000 NA
ATOM     22  O   PHE A   7       3.998   1.237   0.000  0.00  0.00    +0.000 OA
ATOM     23  N   PHE A   7       3.998   2.888   0.000  0.00  0.00    +0.000 NA
ATOM     24  CA  PHE A   7       4.712   2.475   0.000  0.00  0.00    +0.000 C 
ATOM     25  C   PHE A   7       4.712   1.650   0.000  0.00  0.00    +0.000 C 
ATOM     26  O   PHE A   6       3.283   1.650   0.000  0.00  0.00    +0.000 OA
ATOM     27  N   PHE A   6       1.854   2.475   0.000  0.00  0.00    +0.000 NA
ATOM     28  CA  PHE A   6       2.569   2.888   0.000  0.00  0.00    +0.000 C 
ATOM     29  C   PHE A   6       3.283   2.475   0.000  0.00  0.00    +0.000 C 
ATOM     30  C   ASN A   5       1.140   2.888   0.000  0.00  0.00    +0.000 C 
ATOM     31  CA  ASN A   5       0.425   2.475   0.000  0.00  0.00    +0.000 C 
ATOM     32  N   ASN A   5      -0.289   2.888   0.000  0.00  0.00    +0.000 NA
ATOM     33  O   ASN A   5       1.140   3.712   0.000  0.00  0.00    +0.000 OA
ATOM     34  CA  LYS A   4      -1.718   2.888   0.000  0.00  0.00    +0.000 C 
ATOM     35  C   LYS A   4      -1.003   2.475   0.000  0.00  0.00    +0.000 C 
ATOM     36  N   LYS A   4      -2.432   2.475   0.000  0.00  0.00    +0.000 NA
ATOM     37  O   LYS A   4      -1.003   1.650   0.000  0.00  0.00    +0.000 OA
ATOM     38  C   CYS A   3      -2.432   1.650   0.000  0.00  0.00    +0.000 C 
ATOM     39  CA  CYS A   3      -3.147   1.238   0.000  0.00  0.00    +0.000 C 
ATOM     40  N   CYS A  14      -2.433  -2.475   0.000  0.00  0.00    +0.000 NA
ATOM     41  CA  CYS A  14      -3.118  -2.003   0.000  0.00  0.00    +0.000 C 
ATOM     42  CA  SER A  13      -1.719  -3.712   0.000  0.00  0.00    +0.000 C 
ATOM     43  C   SER A  13      -2.433  -3.270   0.000  0.00  0.00    +0.000 C 
ATOM     44  O   CYS A   3      -1.718   1.238   0.000  0.00  0.00    +0.000 OA
ATOM     45  O   SER A  13      -3.154  -3.672   0.000  0.00  0.00    +0.000 OA
ATOM     46  CB  CYS A   3      -3.147   0.412   0.000  0.00  0.00    +0.000 C 
ATOM     47  CB  CYS A  14      -3.118  -1.178   0.000  0.00  0.00    +0.000 C 
ATOM     48  SG  CYS A  14      -2.404  -0.766   0.000  0.00  0.00    +0.000 S 
ATOM     49  SG  CYS A   3      -2.433   0.000   0.000  0.00  0.00    +0.000 S 
ENDROOT
BRANCH   4  51
ATOM     50  CG2 THR A  12      -0.290  -2.062   0.000  0.00  0.00    +0.000 C 
ATOM     51  CB  THR A  12       0.425  -2.475   0.000  0.00  0.00    +0.000 C 
ATOM     52  OG1 THR A  12       1.139  -2.062   0.000  0.00  0.00    +0.000 OA
ENDBRANCH   4  51
BRANCH  41  55
ATOM     53  O   CYS A  14      -3.862  -3.300   0.000  0.00  0.00    +0.000 OA
ATOM     54  OXT CYS A  14      -4.577  -2.062   0.000  0.00  0.00    +0.000 OA
ATOM     55  C   CYS A  14      -3.862  -2.475   0.000  0.00  0.00    +0.000 C 
ENDBRANCH  41  55
BRANCH  11  57
ATOM     56  CG2 THR A  10       5.426  -4.538   0.000  0.00  0.00    +0.000 C 
ATOM     57  CB  THR A  10       5.426  -3.713   0.000  0.00  0.00    +0.000 C 
ATOM     58  OG1 THR A  10       6.141  -3.300   0.000  0.00  0.00    +0.000 OA
ENDBRANCH  11  57
BRANCH  39  59
ATOM     59  N   CYS A   3      -3.861   1.650   0.000  0.00  0.00    +0.000 NA
ATOM     60  O   GLY A   2      -4.576   0.412   0.000  0.00  0.00    +0.000 OA
ATOM     61  C   GLY A   2      -4.576   1.208   0.000  0.00  0.00    +0.000 C 
BRANCH  61  62
ATOM     62  CA  GLY A   2      -5.290   1.650   0.000  0.00  0.00    +0.000 C 
BRANCH  62  63
ATOM     63  N   GLY A   2      -6.005   1.238   0.000  0.00  0.00    +0.000 NA
ATOM     64  O   ALA A   1      -6.719   2.475   0.000  0.00  0.00    +0.000 OA
ATOM     65  C   ALA A   1      -6.719   1.679   0.000  0.00  0.00    +0.000 C 
BRANCH  65  67
ATOM     66  N   ALA A   1      -8.148   1.650   0.000  0.00  0.00    +0.000 NA
ATOM     67  CA  ALA A   1      -7.434   1.238   0.000  0.00  0.00    +0.000 C 
ATOM     68  CB  ALA A   1      -7.434   0.412   0.000  0.00  0.00    +0.000 C 
ENDBRANCH  65  67
ENDBRANCH  62  63
ENDBRANCH  61  62
ENDBRANCH  39  59
BRANCH  42  69
ATOM     69  CB  SER A  13      -1.719  -4.537   0.000  0.00  0.00    +0.000 C 
ATOM     70  OG  SER A  13      -2.433  -4.950   0.000  0.00  0.00    +0.000 OA
ENDBRANCH  42  69
BRANCH  31  71
ATOM     71  CB  ASN A   5       0.396   1.679   0.000  0.00  0.00    +0.000 C 
BRANCH  71  72
ATOM     72  CG  ASN A   5       1.095   1.241   0.000  0.00  0.00    +0.000 C 
ATOM     73  ND2 ASN A   5       1.824   1.626   0.000  0.00  0.00    +0.000 NA
ATOM     74  OD1 ASN A   5       1.064   0.416   0.000  0.00  0.00    +0.000 OA
ENDBRANCH  71  72
ENDBRANCH  31  71
BRANCH  34  75
ATOM     75  CB  LYS A   4      -1.718   3.712   0.000  0.00  0.00    +0.000 C 
BRANCH  75  76
ATOM     76  CG  LYS A   4      -1.004   4.125   0.000  0.00  0.00    +0.000 C 
BRANCH  76  77
ATOM     77  CD  LYS A   4      -1.004   4.950   0.000  0.00  0.00    +0.000 C 
BRANCH  77  78
ATOM     78  CE  LYS A   4      -0.289   5.362   0.000  0.00  0.00    +0.000 C 
ATOM     79  NZ  LYS A   4      -0.289   6.187   0.000  0.00  0.00    +0.000 NA
ENDBRANCH  77  78
ENDBRANCH  76  77
ENDBRANCH  75  76
ENDBRANCH  34  75
BRANCH  24  80
ATOM     80  CB  PHE A   7       5.427   2.887   0.000  0.00  0.00    +0.000 C 
BRANCH  80  81
ATOM     81  CG  PHE A   7       6.141   2.475   0.000  0.00  0.00    +0.000 A 
ATOM     82  CD1 PHE A   7       6.141   1.650   0.000  0.00  0.00    +0.000 A 
ATOM     83  CD2 PHE A   7       6.856   2.888   0.000  0.00  0.00    +0.000 A 
ATOM     84  CE2 PHE A   7       7.570   2.475   0.000  0.00  0.00    +0.000 A 
ATOM     85  CZ  PHE A   7       7.570   1.650   0.000  0.00  0.00    +0.000 A 
ATOM     86  CE1 PHE A   7       6.856   1.237   0.000  0.00  0.00    +0.000 A 
ENDBRANCH  80  81
ENDBRANCH  24  80
BRANCH  28  87
ATOM     87  CB  PHE A   6       2.569   3.712   0.000  0.00  0.00    +0.000 C 
BRANCH  87  88
ATOM     88  CG  PHE A   6       3.283   4.125   0.000  0.00  0.00    +0.000 A 
ATOM     89  CD1 PHE A   6       3.283   4.950   0.000  0.00  0.00    +0.000 A 
ATOM     90  CD2 PHE A   6       3.998   3.712   0.000  0.00  0.00    +0.000 A 
ATOM     91  CE1 PHE A   6       3.998   5.362   0.000  0.00  0.00    +0.000 A 
ATOM     92  CE2 PHE A   6       4.712   4.125   0.000  0.00  0.00    +0.000 A 
ATOM     93  CZ  PHE A   6       4.712   4.950   0.000  0.00  0.00    +0.000 A 
ENDBRANCH  87  88
ENDBRANCH  28  87
BRANCH  19  94
ATOM     94  CB  TRP A   8       6.141  -0.000   0.000  0.00  0.00    +0.000 C 
BRANCH  94  95
ATOM     95  CG  TRP A   8       6.141  -0.825   0.000  0.00  0.00    +0.000 A 
ATOM     96  CD2 TRP A   8       6.808  -1.310   0.000  0.00  0.00    +0.000 A 
ATOM     97  CD1 TRP A   8       5.473  -1.310   0.000  0.00  0.00    +0.000 A 
ATOM     98  CE2 TRP A   8       6.553  -2.095   0.000  0.00  0.00    +0.000 A 
ATOM     99  NE1 TRP A   8       5.728  -2.095   0.000  0.00  0.00    +0.000 NA
ATOM    100  CZ2 TRP A   8       7.108  -2.706   0.000  0.00  0.00    +0.000 A 
ATOM    101  CH2 TRP A   8       7.905  -2.539   0.000  0.00  0.00    +0.000 A 
ATOM    102  CZ3 TRP A   8       8.148  -1.762   0.000  0.00  0.00    +0.000 A 
ATOM    103  CE3 TRP A   8       7.594  -1.151   0.000  0.00  0.00    +0.000 A 
ENDBRANCH  94  95
ENDBRANCH  19  94
BRANCH  16 104
ATOM    104  CB  LYS A   9       3.283  -0.825   0.000  0.00  0.00    +0.000 C 
BRANCH 104 105
ATOM    105  CG  LYS A   9       2.569  -1.237   0.000  0.00  0.00    +0.000 C 
BRANCH 105 106
ATOM    106  CD  LYS A   9       1.854  -0.825   0.000  0.00  0.00    +0.000 C 
BRANCH 106 107
ATOM    107  CE  LYS A   9       1.140  -1.237   0.000  0.00  0.00    +0.000 C 
ATOM    108  NZ  LYS A   9       0.425  -0.825   0.000  0.00  0.00    +0.000 NA
ENDBRANCH 106 107
ENDBRANCH 105 106
ENDBRANCH 104 105
ENDBRANCH  16 104
BRANCH   8 109
ATOM    109  CB  PHE A  11       2.568  -4.537   0.000  0.00  0.00    +0.000 C 
BRANCH 109 110
ATOM    110  CG  PHE A  11       1.854  -4.950   0.000  0.00  0.00    +0.000 A 
ATOM    111  CD1 PHE A  11       1.139  -4.537   0.000  0.00  0.00    +0.000 A 
ATOM    112  CD2 PHE A  11       1.854  -5.775   0.000  0.00  0.00    +0.000 A 
ATOM    113  CE1 PHE A  11       0.425  -4.950   0.000  0.00  0.00    +0.000 A 
ATOM    114  CE2 PHE A  11       1.139  -6.187   0.000  0.00  0.00    +0.000 A 
ATOM    115  CZ  PHE A  11       0.425  -5.775   0.000  0.00  0.00    +0.000 A 
ENDBRANCH 109 110
ENDBRANCH   8 109
TORSDOF 26
