REMARK  Name = 
REMARK  8 active torsions:
REMARK  status: ('A' for Active; 'I' for Inactive)
REMARK    1  A    between atoms: C_1  and  C_6
REMARK    2  A    between atoms: N_2  and  C_11
REMARK    3  A    between atoms: C_3  and  C_8
REMARK    4  A    between atoms: C_7  and  C_9
REMARK    5  A    between atoms: C_9  and  C_14
REMARK    6  A    between atoms: C_10  and  C_19
REMARK    7  A    between atoms: C_14  and  C_15
REMARK    8  A    between atoms: C_15  and  C_19
REMARK                            x       y       z     vdW  Elec       q    Type
REMARK                         _______ _______ _______ _____ _____    ______ ____
ROOT
ATOM      1  C   UNL     1      -1.126   0.936   0.000  0.00  0.00    +0.000 A 
ATOM      2  N   UNL     1      -1.616   1.601   0.000  0.00  0.00    +0.000 N 
ATOM      3  C   UNL     1      -1.611   0.262   0.000  0.00  0.00    +0.000 A 
ATOM      4  C   UNL     1      -2.402   1.339   0.000  0.00  0.00    +0.000 A 
ATOM      5  C   UNL     1      -2.397   0.514   0.000  0.00  0.00    +0.000 A 
ATOM      6  C   UNL     1      -3.115   1.752   0.000  0.00  0.00    +0.000 A 
ATOM      7  C   UNL     1      -3.115   0.097   0.000  0.00  0.00    +0.000 A 
ATOM      8  C   UNL     1      -3.829   0.509   0.000  0.00  0.00    +0.000 A 
ATOM      9  C   UNL     1      -3.829   1.339   0.000  0.00  0.00    +0.000 A 
ENDROOT
BRANCH   3  10
ATOM     10  C   UNL     1      -1.616  -0.558   0.000  0.00  0.00    +0.000 A 
ATOM     11  C   UNL     1      -2.339  -0.961   0.000  0.00  0.00    +0.000 A 
ATOM     12  C   UNL     1      -0.912  -0.975   0.000  0.00  0.00    +0.000 A 
ATOM     13  C   UNL     1      -1.635  -2.208   0.000  0.00  0.00    +0.000 A 
ATOM     14  C   UNL     1      -2.349  -1.786   0.000  0.00  0.00    +0.000 A 
ATOM     15  C   UNL     1      -0.917  -1.795   0.000  0.00  0.00    +0.000 A 
ATOM     16  F   UNL     1      -1.645  -3.033   0.000  0.00  0.00    +0.000 F 
ENDBRANCH   3  10
BRANCH   2  17
ATOM     17  C   UNL     1      -1.218   2.324   0.000  0.00  0.00    +0.000 C 
ATOM     18  C   UNL     1      -1.640   3.033   0.000  0.00  0.00    +0.000 C 
ATOM     19  C   UNL     1      -0.393   2.334   0.000  0.00  0.00    +0.000 C 
ENDBRANCH   2  17
BRANCH   1  20
ATOM     20  C   UNL     1      -0.301   0.941   0.000  0.00  0.00    +0.000 C 
ATOM     21  C   UNL     1       0.107   1.659   0.000  0.00  0.00    +0.000 C 
BRANCH  21  22
ATOM     22  C   UNL     1       0.932   1.664   0.000  0.00  0.00    +0.000 C 
ATOM     23  O   UNL     1       1.339   2.383   0.000  0.00  0.00    +0.000 OA
BRANCH  22  24
ATOM     24  C   UNL     1       1.349   0.951   0.000  0.00  0.00    +0.000 C 
BRANCH  24  25
ATOM     25  C   UNL     1       2.174   0.956   0.000  0.00  0.00    +0.000 C 
ATOM     26  O   UNL     1       2.582   1.674   0.000  0.00  0.00    +0.000 OA
BRANCH  25  27
ATOM     27  C   UNL     1       2.591   0.247   0.000  0.00  0.00    +0.000 C 
BRANCH  27  28
ATOM     28  C   UNL     1       3.416   0.252   0.000  0.00  0.00    +0.000 C 
ATOM     29  O   UNL     1       3.829  -0.461   0.000  0.00  0.00    +0.000 OA
ATOM     30  O   UNL     1       3.824   0.966   0.000  0.00  0.00    +0.000 OA
ENDBRANCH  27  28
ENDBRANCH  25  27
ENDBRANCH  24  25
ENDBRANCH  22  24
ENDBRANCH  21  22
ENDBRANCH   1  20
TORSDOF 8
