REMARK  Name = 
REMARK  6 active torsions:
REMARK  status: ('A' for Active; 'I' for Inactive)
REMARK    1  A    between atoms: C_3  and  N_21
REMARK    2  A    between atoms: C_4  and  N_21
REMARK    3  A    between atoms: C_7  and  C_12
REMARK    4  A    between atoms: C_7  and  C_13
REMARK    5  A    between atoms: C_12  and  N_21
REMARK    6  A    between atoms: C_13  and  N_22
REMARK                            x       y       z     vdW  Elec       q    Type
REMARK                         _______ _______ _______ _____ _____    ______ ____
ROOT
ATOM      1  C   UNL     1       4.236   3.712   0.000  0.00  0.00    +0.000 A 
ATOM      2  C   UNL     1       4.648   4.427   0.000  0.00  0.00    +0.000 A 
ATOM      3  C   UNL     1       3.410   3.712   0.000  0.00  0.00    +0.000 A 
ATOM      4  C   UNL     1       4.236   5.141   0.000  0.00  0.00    +0.000 A 
ATOM      5  C   UNL     1       0.935   6.570   0.000  0.00  0.00    +0.000 A 
ATOM      6  C   UNL     1       1.760   6.570   0.000  0.00  0.00    +0.000 A 
ATOM      7  C   UNL     1       0.935   5.141   0.000  0.00  0.00    +0.000 A 
ATOM      8  C   UNL     1       0.523   5.856   0.000  0.00  0.00    +0.000 A 
ATOM      9  C   UNL     1       2.998   4.427   0.000  0.00  0.00    +0.000 A 
ATOM     10  C   UNL     1       1.760   5.141   0.000  0.00  0.00    +0.000 A 
ATOM     11  C   UNL     1       3.410   5.141   0.000  0.00  0.00    +0.000 A 
ATOM     12  C   UNL     1       2.173   5.856   0.000  0.00  0.00    +0.000 A 
ATOM     13 CL   UNL     1      -0.302   5.856   0.000  0.00  0.00    +0.000 Cl
ATOM     14  N   UNL     1       2.173   4.427   0.000  0.00  0.00    +0.000 N 
ATOM     15  S   UNL     1       2.998   5.856   0.000  0.00  0.00    +0.000 S 
ENDROOT
BRANCH  14  16
ATOM     16  C   UNL     1       1.760   3.712   0.000  0.00  0.00    +0.000 C 
BRANCH  16  17
ATOM     17  C   UNL     1       0.935   3.712   0.000  0.00  0.00    +0.000 C 
BRANCH  17  18
ATOM     18  C   UNL     1       0.523   2.998   0.000  0.00  0.00    +0.000 C 
BRANCH  18  19
ATOM     19  N   UNL     1      -0.302   2.998   0.000  0.00  0.00    +0.000 NA
BRANCH  19  21
ATOM     20  C   UNL     1      -1.540   2.284   0.000  0.00  0.00    +0.000 C 
ATOM     21  C   UNL     1      -0.715   2.284   0.000  0.00  0.00    +0.000 C 
ENDBRANCH  19  21
BRANCH  19  23
ATOM     22  C   UNL     1      -0.302   4.427   0.000  0.00  0.00    +0.000 C 
ATOM     23  C   UNL     1      -0.715   3.712   0.000  0.00  0.00    +0.000 C 
ENDBRANCH  19  23
ENDBRANCH  18  19
ENDBRANCH  17  18
ENDBRANCH  16  17
ENDBRANCH  14  16
TORSDOF 6
