REMARK  Name = 
REMARK  6 active torsions:
REMARK  status: ('A' for Active; 'I' for Inactive)
REMARK    1  A    between atoms: C_5  and  C_8
REMARK    2  A    between atoms: N_11  and  C_14
REMARK    3  A    between atoms: C_14  and  C_15
REMARK    4  A    between atoms: C_15  and  C_16
REMARK    5  A    between atoms: C_16  and  C_17
REMARK    6  A    between atoms: C_17  and  C_19
REMARK                            x       y       z     vdW  Elec       q    Type
REMARK                         _______ _______ _______ _____ _____    ______ ____
ROOT
ATOM      1  C   UNL     1      -1.429  -1.650   0.000  0.00  0.00    +0.000 C 
ATOM      2  C   UNL     1      -0.715  -1.238   0.000  0.00  0.00    +0.000 C 
ATOM      3  C   UNL     1       0.000  -1.650   0.000  0.00  0.00    +0.000 C 
ATOM      4  N   UNL     1       0.000  -2.475   0.000  0.00  0.00    +0.000 NA
ATOM      5  C   UNL     1      -0.715  -2.888   0.000  0.00  0.00    +0.000 C 
ATOM      6  C   UNL     1      -1.429  -2.475   0.000  0.00  0.00    +0.000 C 
ATOM      7  O   UNL     1      -1.711  -0.875   0.000  0.00  0.00    +0.000 OA
ENDROOT
BRANCH   1  12
ATOM      8  C   UNL     1      -4.679  -2.223   0.000  0.00  0.00    +0.000 C 
ATOM      9  C   UNL     1      -3.866  -2.080   0.000  0.00  0.00    +0.000 A 
ATOM     10  C   UNL     1      -3.584  -1.304   0.000  0.00  0.00    +0.000 A 
ATOM     11  C   UNL     1      -2.772  -1.161   0.000  0.00  0.00    +0.000 A 
ATOM     12  C   UNL     1      -2.241  -1.793   0.000  0.00  0.00    +0.000 A 
ATOM     13  C   UNL     1      -2.524  -2.568   0.000  0.00  0.00    +0.000 A 
ATOM     14  C   UNL     1      -3.336  -2.712   0.000  0.00  0.00    +0.000 A 
ENDBRANCH   1  12
BRANCH   4  15
ATOM     15  C   UNL     1       0.715  -2.888   0.000  0.00  0.00    +0.000 C 
BRANCH  15  16
ATOM     16  C   UNL     1       1.429  -2.475   0.000  0.00  0.00    +0.000 C 
BRANCH  16  17
ATOM     17  C   UNL     1       2.143  -2.888   0.000  0.00  0.00    +0.000 C 
BRANCH  17  18
ATOM     18  C   UNL     1       2.858  -2.475   0.000  0.00  0.00    +0.000 C 
ATOM     19  O   UNL     1       2.858  -1.650   0.000  0.00  0.00    +0.000 OA
BRANCH  18  20
ATOM     20  C   UNL     1       3.572  -2.888   0.000  0.00  0.00    +0.000 A 
ATOM     21  C   UNL     1       4.287  -2.475   0.000  0.00  0.00    +0.000 A 
ATOM     22  C   UNL     1       5.001  -2.888   0.000  0.00  0.00    +0.000 A 
ATOM     23  C   UNL     1       5.001  -3.712   0.000  0.00  0.00    +0.000 A 
ATOM     24  C   UNL     1       4.287  -4.125   0.000  0.00  0.00    +0.000 A 
ATOM     25  C   UNL     1       3.572  -3.712   0.000  0.00  0.00    +0.000 A 
ATOM     26  F   UNL     1       5.716  -4.125   0.000  0.00  0.00    +0.000 F 
ENDBRANCH  18  20
ENDBRANCH  17  18
ENDBRANCH  16  17
ENDBRANCH  15  16
ENDBRANCH   4  15
TORSDOF 6
