REMARK  Name = 
REMARK  8 active torsions:
REMARK  status: ('A' for Active; 'I' for Inactive)
REMARK    1  A    between atoms: P_1  and  O_4
REMARK    2  A    between atoms: P_1  and  C_13
REMARK    3  A    between atoms: O_4  and  C_10
REMARK    4  A    between atoms: C_7  and  C_10
REMARK    5  A    between atoms: C_13  and  C_14
REMARK    6  A    between atoms: C_14  and  C_15
REMARK    7  A    between atoms: C_15  and  C_16
REMARK    8  A    between atoms: C_16  and  C_17
REMARK                            x       y       z     vdW  Elec       q    Type
REMARK                         _______ _______ _______ _____ _____    ______ ____
ROOT
ATOM      1  P   UNL     1      -0.054  -0.053   0.000  0.00  0.00    +0.000 P 
ATOM      2  O   UNL     1      -0.309   0.731   0.000  0.00  0.00    +0.000 OA
ATOM      3  O   UNL     1       0.201  -0.838   0.000  0.00  0.00    +0.000 OA
ENDROOT
BRANCH   1   4
ATOM      4  O   UNL     1       0.730   0.202   0.000  0.00  0.00    +0.000 OA
BRANCH   4   5
ATOM      5  C   UNL     1       1.343  -0.350   0.000  0.00  0.00    +0.000 C 
BRANCH   5   8
ATOM      6  O   UNL     1       2.796  -0.580   0.000  0.00  0.00    +0.000 OA
ATOM      7  O   UNL     1       3.208   0.689   0.000  0.00  0.00    +0.000 OA
ATOM      8  C   UNL     1       2.128  -0.096   0.000  0.00  0.00    +0.000 C 
ATOM      9  C   UNL     1       3.463  -0.096   0.000  0.00  0.00    +0.000 C 
ATOM     10  C   UNL     1       2.383   0.689   0.000  0.00  0.00    +0.000 C 
ATOM     11  C   UNL     1       3.948  -0.763   0.000  0.00  0.00    +0.000 C 
ATOM     12  C   UNL     1       4.248   0.159   0.000  0.00  0.00    +0.000 C 
ENDBRANCH   5   8
ENDBRANCH   4   5
ENDBRANCH   1   4
BRANCH   1  13
ATOM     13  C   UNL     1      -0.839  -0.308   0.000  0.00  0.00    +0.000 C 
BRANCH  13  14
ATOM     14  C   UNL     1      -1.452   0.244   0.000  0.00  0.00    +0.000 C 
BRANCH  14  15
ATOM     15  C   UNL     1      -2.237  -0.011   0.000  0.00  0.00    +0.000 C 
BRANCH  15  16
ATOM     16  C   UNL     1      -2.850   0.541   0.000  0.00  0.00    +0.000 C 
BRANCH  16  17
ATOM     17  C   UNL     1      -3.635   0.286   0.000  0.00  0.00    +0.000 C 
ATOM     18  C   UNL     1      -4.248   0.838   0.000  0.00  0.00    +0.000 C 
ENDBRANCH  16  17
ENDBRANCH  15  16
ENDBRANCH  14  15
ENDBRANCH  13  14
ENDBRANCH   1  13
TORSDOF 8
