REMARK  Name = 
REMARK  3 active torsions:
REMARK  status: ('A' for Active; 'I' for Inactive)
REMARK    1  A    between atoms: N_2  and  N_3
REMARK    2  A    between atoms: C_4  and  C_5
REMARK    3  A    between atoms: C_7  and  N_10
REMARK                            x       y       z     vdW  Elec       q    Type
REMARK                         _______ _______ _______ _____ _____    ______ ____
ROOT
ATOM      1  N   UNL     1       0.670  -0.070   0.000  0.00  0.00    +0.000 NA
ATOM      2  C   UNL     1       0.498   0.737   0.000  0.00  0.00    +0.000 C 
ENDROOT
BRANCH   1   4
ATOM      3  C   UNL     1       2.122   0.160   0.000  0.00  0.00    +0.000 C 
ATOM      4  N   UNL     1       1.454  -0.325   0.000  0.00  0.00    +0.000 N 
ATOM      5  C   UNL     1       1.709  -1.109   0.000  0.00  0.00    +0.000 C 
ATOM      6  C   UNL     1       2.534  -1.109   0.000  0.00  0.00    +0.000 C 
ATOM      7  N   UNL     1       2.789  -0.325   0.000  0.00  0.00    +0.000 NA
ATOM      8  O   UNL     1       2.122   0.985   0.000  0.00  0.00    +0.000 OA
ATOM      9  O   UNL     1       3.019  -1.777   0.000  0.00  0.00    +0.000 OA
ENDBRANCH   1   4
BRANCH   2  10
ATOM     10  C   UNL     1      -0.286   0.992   0.000  0.00  0.00    +0.000 A 
ATOM     11  O   UNL     1      -0.954   0.507   0.000  0.00  0.00    +0.000 OA
ATOM     12  C   UNL     1      -1.621   0.992   0.000  0.00  0.00    +0.000 A 
ATOM     13  C   UNL     1      -1.366   1.777   0.000  0.00  0.00    +0.000 A 
ATOM     14  C   UNL     1      -0.541   1.777   0.000  0.00  0.00    +0.000 A 
BRANCH  12  15
ATOM     15  N   UNL     1      -2.406   0.737   0.000  0.00  0.00    +0.000 N 
ATOM     16  O   UNL     1      -3.019   1.289   0.000  0.00  0.00    +0.000 OA
ATOM     17  O   UNL     1      -2.578  -0.070   0.000  0.00  0.00    +0.000 OA
ENDBRANCH  12  15
ENDBRANCH   2  10
TORSDOF 3
