REMARK  Name = 
REMARK  33 active torsions:
REMARK  status: ('A' for Active; 'I' for Inactive)
REMARK    1  A    between atoms: C_16  and  C_17
REMARK    2  A    between atoms: C_17  and  S_18
REMARK    3  A    between atoms: S_18  and  C_19
REMARK    4  A    between atoms: C_19  and  C_20
REMARK    5  A    between atoms: N_22  and  C_23
REMARK    6  A    between atoms: C_23  and  C_24
REMARK    7  A    between atoms: C_24  and  C_25
REMARK    8  A    between atoms: C_25  and  C_26
REMARK    9  A    between atoms: C_26  and  C_27
REMARK   10  A    between atoms: C_27  and  N_28
REMARK   11  A    between atoms: C_27  and  C_55
REMARK   12  A    between atoms: C_29  and  C_31
REMARK   13  A    between atoms: C_31  and  S_32
REMARK   14  A    between atoms: S_32  and  C_33
REMARK   15  A    between atoms: C_33  and  C_34
REMARK   16  A    between atoms: N_36  and  C_37
REMARK   17  A    between atoms: C_37  and  C_38
REMARK   18  A    between atoms: N_57  and  C_58
REMARK   19  A    between atoms: C_63  and  C_108
REMARK   20  A    between atoms: C_67  and  C_68
REMARK   21  A    between atoms: C_73  and  C_74
REMARK   22  A    between atoms: C_74  and  C_75
REMARK   23  A    between atoms: C_75  and  C_76
REMARK   24  A    between atoms: C_76  and  C_77
REMARK   25  A    between atoms: C_82  and  C_83
REMARK   26  A    between atoms: C_83  and  C_84
REMARK   27  A    between atoms: C_96  and  C_97
REMARK   28  A    between atoms: C_97  and  C_98
REMARK   29  A    between atoms: N_110  and  C_111
REMARK   30  A    between atoms: C_111  and  C_112
REMARK   31  A    between atoms: C_111  and  C_115
REMARK   32  A    between atoms: N_119  and  C_120
REMARK   33  A    between atoms: C_120  and  C_121
REMARK                            x       y       z     vdW  Elec       q    Type
REMARK                         _______ _______ _______ _____ _____    ______ ____
ROOT
ATOM      1  C   UNL     1      -0.975   4.698   0.000  0.00  0.00    +0.000 C 
ATOM      2  C   UNL     1      -1.794   4.603   0.000  0.00  0.00    +0.000 C 
ATOM      3  S   UNL     1      -2.286   5.266   0.000  0.00  0.00    +0.000 S 
ATOM      4  S   UNL     1      -1.958   6.023   0.000  0.00  0.00    +0.000 S 
ATOM      5  C   UNL     1      -1.139   6.117   0.000  0.00  0.00    +0.000 C 
ATOM      6  C   UNL     1      -0.811   6.874   0.000  0.00  0.00    +0.000 C 
ATOM      7  N   UNL     1       0.009   6.969   0.000  0.00  0.00    +0.000 NA
ATOM      8  C   UNL     1       0.336   7.726   0.000  0.00  0.00    +0.000 C 
ATOM      9  O   UNL     1      -0.155   8.389   0.000  0.00  0.00    +0.000 OA
ATOM     10  C   UNL     1       1.156   7.821   0.000  0.00  0.00    +0.000 C 
ATOM     11  N   UNL     1       1.484   8.578   0.000  0.00  0.00    +0.000 NA
ATOM     12  C   UNL     1       2.303   8.672   0.000  0.00  0.00    +0.000 C 
ATOM     13  O   UNL     1       2.631   9.429   0.000  0.00  0.00    +0.000 OA
ATOM     14  C   UNL     1       2.795   8.010   0.000  0.00  0.00    +0.000 C 
ATOM     15  N   UNL     1       2.467   7.253   0.000  0.00  0.00    +0.000 NA
ATOM     16  C   UNL     1       2.959   6.590   0.000  0.00  0.00    +0.000 C 
ATOM     17  O   UNL     1       3.779   6.685   0.000  0.00  0.00    +0.000 OA
ATOM     18  C   UNL     1       2.631   5.833   0.000  0.00  0.00    +0.000 C 
ATOM     19  N   UNL     1       1.812   5.739   0.000  0.00  0.00    +0.000 NA
ATOM     20  C   UNL     1       1.484   4.982   0.000  0.00  0.00    +0.000 C 
ATOM     21  O   UNL     1       1.976   4.319   0.000  0.00  0.00    +0.000 OA
ATOM     22  C   UNL     1       0.664   4.887   0.000  0.00  0.00    +0.000 C 
ATOM     23  N   UNL     1       0.336   4.130   0.000  0.00  0.00    +0.000 NA
ATOM     24  C   UNL     1      -0.483   4.035   0.000  0.00  0.00    +0.000 C 
ATOM     25  O   UNL     1      -0.811   3.278   0.000  0.00  0.00    +0.000 OA
ENDROOT
BRANCH   1  28
ATOM     26  C   UNL     1      -2.122   3.846   0.000  0.00  0.00    +0.000 C 
ATOM     27  O   UNL     1      -2.614   4.508   0.000  0.00  0.00    +0.000 OA
ATOM     28  N   UNL     1      -1.303   3.941   0.000  0.00  0.00    +0.000 NA
BRANCH  26  29
ATOM     29  C   UNL     1      -2.450   3.089   0.000  0.00  0.00    +0.000 C 
BRANCH  29  30
ATOM     30  N   UNL     1      -1.958   2.426   0.000  0.00  0.00    +0.000 NA
ATOM     31  C   UNL     1      -2.286   1.669   0.000  0.00  0.00    +0.000 C 
ATOM     32  O   UNL     1      -3.106   1.575   0.000  0.00  0.00    +0.000 OA
BRANCH  31  33
ATOM     33  C   UNL     1      -1.794   1.007   0.000  0.00  0.00    +0.000 C 
BRANCH  33  34
ATOM     34  S   UNL     1      -2.122   0.250   0.000  0.00  0.00    +0.000 S 
BRANCH  34  35
ATOM     35  C   UNL     1      -1.631  -0.412   0.000  0.00  0.00    +0.000 C 
BRANCH  35  36
ATOM     36  C   UNL     1      -1.958  -1.170   0.000  0.00  0.00    +0.000 C 
ATOM     37  C   UNL     1      -1.467  -1.832   0.000  0.00  0.00    +0.000 C 
ATOM     38  N   UNL     1      -1.794  -2.589   0.000  0.00  0.00    +0.000 NA
ATOM     39  C   UNL     1      -2.614  -2.684   0.000  0.00  0.00    +0.000 C 
ATOM     40  C   UNL     1      -2.942  -3.441   0.000  0.00  0.00    +0.000 C 
ATOM     41  C   UNL     1      -3.761  -3.535   0.000  0.00  0.00    +0.000 A 
ATOM     42  C   UNL     1      -4.239  -4.208   0.000  0.00  0.00    +0.000 A 
ATOM     43  N   UNL     1      -5.027  -3.961   0.000  0.00  0.00    +0.000 NA
ATOM     44  C   UNL     1      -5.035  -3.136   0.000  0.00  0.00    +0.000 A 
ATOM     45  C   UNL     1      -4.253  -2.873   0.000  0.00  0.00    +0.000 A 
ATOM     46  C   UNL     1      -3.925  -2.116   0.000  0.00  0.00    +0.000 A 
ATOM     47  C   UNL     1      -4.709  -1.519   0.000  0.00  0.00    +0.000 A 
ATOM     48  C   UNL     1      -5.491  -1.782   0.000  0.00  0.00    +0.000 A 
ATOM     49  C   UNL     1      -5.654  -2.590   0.000  0.00  0.00    +0.000 A 
ATOM     50  C   UNL     1      -3.106  -2.021   0.000  0.00  0.00    +0.000 C 
ATOM     51  C   UNL     1      -2.778  -1.264   0.000  0.00  0.00    +0.000 C 
BRANCH  38  52
ATOM     52  C   UNL     1      -1.303  -3.252   0.000  0.00  0.00    +0.000 C 
BRANCH  52  53
ATOM     53  C   UNL     1      -0.483  -3.157   0.000  0.00  0.00    +0.000 C 
ATOM     54  C   UNL     1       0.009  -3.819   0.000  0.00  0.00    +0.000 C 
ENDBRANCH  52  53
ENDBRANCH  38  52
ENDBRANCH  35  36
ENDBRANCH  34  35
ENDBRANCH  33  34
ENDBRANCH  31  33
ENDBRANCH  29  30
BRANCH  29  55
ATOM     55  C   UNL     1      -3.270   2.994   0.000  0.00  0.00    +0.000 C 
BRANCH  55  56
ATOM     56  C   UNL     1      -3.598   2.237   0.000  0.00  0.00    +0.000 C 
BRANCH  56  57
ATOM     57  C   UNL     1      -4.417   2.143   0.000  0.00  0.00    +0.000 C 
BRANCH  57  58
ATOM     58  C   UNL     1      -4.745   1.385   0.000  0.00  0.00    +0.000 C 
BRANCH  58  61
ATOM     59  C   UNL     1      -5.892   0.534   0.000  0.00  0.00    +0.000 C 
ATOM     60  O   UNL     1      -5.401  -0.129   0.000  0.00  0.00    +0.000 OA
ATOM     61  N   UNL     1      -5.564   1.291   0.000  0.00  0.00    +0.000 NA
BRANCH  59  62
ATOM     62  C   UNL     1      -6.712   0.439   0.000  0.00  0.00    +0.000 C 
BRANCH  62  63
ATOM     63  S   UNL     1      -7.040  -0.318   0.000  0.00  0.00    +0.000 S 
BRANCH  63  64
ATOM     64  C   UNL     1      -7.859  -0.412   0.000  0.00  0.00    +0.000 C 
BRANCH  64  78
ATOM     65  C   UNL     1      -8.843  -2.684   0.000  0.00  0.00    +0.000 C 
ATOM     66  C   UNL     1      -9.171  -3.441   0.000  0.00  0.00    +0.000 C 
ATOM     67  C   UNL     1      -9.990  -3.535   0.000  0.00  0.00    +0.000 A 
ATOM     68  C   UNL     1     -10.468  -4.208   0.000  0.00  0.00    +0.000 A 
ATOM     69  N   UNL     1     -11.255  -3.961   0.000  0.00  0.00    +0.000 NA
ATOM     70  C   UNL     1     -11.264  -3.136   0.000  0.00  0.00    +0.000 A 
ATOM     71  C   UNL     1     -10.482  -2.873   0.000  0.00  0.00    +0.000 A 
ATOM     72  C   UNL     1     -10.154  -2.116   0.000  0.00  0.00    +0.000 A 
ATOM     73  C   UNL     1     -10.937  -1.519   0.000  0.00  0.00    +0.000 A 
ATOM     74  C   UNL     1     -11.719  -1.782   0.000  0.00  0.00    +0.000 A 
ATOM     75  C   UNL     1     -11.882  -2.590   0.000  0.00  0.00    +0.000 A 
ATOM     76  C   UNL     1      -9.334  -2.021   0.000  0.00  0.00    +0.000 C 
ATOM     77  C   UNL     1      -9.007  -1.264   0.000  0.00  0.00    +0.000 C 
ATOM     78  C   UNL     1      -8.187  -1.170   0.000  0.00  0.00    +0.000 C 
ATOM     79  C   UNL     1      -7.695  -1.832   0.000  0.00  0.00    +0.000 C 
ATOM     80  N   UNL     1      -8.023  -2.589   0.000  0.00  0.00    +0.000 NA
BRANCH  80  81
ATOM     81  C   UNL     1      -7.531  -3.252   0.000  0.00  0.00    +0.000 C 
BRANCH  81  82
ATOM     82  C   UNL     1      -6.712  -3.157   0.000  0.00  0.00    +0.000 C 
ATOM     83  C   UNL     1      -6.220  -3.819   0.000  0.00  0.00    +0.000 C 
ENDBRANCH  81  82
ENDBRANCH  80  81
ENDBRANCH  64  78
ENDBRANCH  63  64
ENDBRANCH  62  63
ENDBRANCH  59  62
ENDBRANCH  58  61
ENDBRANCH  57  58
ENDBRANCH  56  57
ENDBRANCH  55  56
ENDBRANCH  29  55
ENDBRANCH  26  29
ENDBRANCH   1  28
BRANCH   6  84
ATOM     84  C   UNL     1      -1.303   7.537   0.000  0.00  0.00    +0.000 C 
ATOM     85  O   UNL     1      -0.975   8.294   0.000  0.00  0.00    +0.000 OA
ATOM     86  N   UNL     1      -2.122   7.442   0.000  0.00  0.00    +0.000 NA
BRANCH  86  87
ATOM     87  C   UNL     1      -2.614   8.105   0.000  0.00  0.00    +0.000 C 
BRANCH  87  88
ATOM     88  C   UNL     1      -3.434   8.010   0.000  0.00  0.00    +0.000 C 
ATOM     89  N   UNL     1      -3.761   7.253   0.000  0.00  0.00    +0.000 NA
ATOM     90  O   UNL     1      -3.925   8.672   0.000  0.00  0.00    +0.000 OA
ENDBRANCH  87  88
BRANCH  87  91
ATOM     91  C   UNL     1      -2.286   8.862   0.000  0.00  0.00    +0.000 C 
ATOM     92  C   UNL     1      -2.778   9.524   0.000  0.00  0.00    +0.000 C 
ATOM     93  O   UNL     1      -1.467   8.956   0.000  0.00  0.00    +0.000 OA
ENDBRANCH  87  91
ENDBRANCH  86  87
ENDBRANCH   6  84
BRANCH  10  94
ATOM     94  C   UNL     1       0.664   8.483   0.000  0.00  0.00    +0.000 C 
ATOM     95  C   UNL     1       0.992   9.240   0.000  0.00  0.00    +0.000 C 
ENDBRANCH  10  94
BRANCH  18  96
ATOM     96  C   UNL     1       3.123   5.171   0.000  0.00  0.00    +0.000 C 
BRANCH  96  97
ATOM     97  C   UNL     1       3.942   5.266   0.000  0.00  0.00    +0.000 A 
ATOM     98  C   UNL     1       4.348   5.984   0.000  0.00  0.00    +0.000 A 
ATOM     99  N   UNL     1       5.156   5.821   0.000  0.00  0.00    +0.000 NA
ATOM    100  C   UNL     1       5.251   5.001   0.000  0.00  0.00    +0.000 A 
ATOM    101  C   UNL     1       4.501   4.658   0.000  0.00  0.00    +0.000 A 
ATOM    102  C   UNL     1       4.423   3.837   0.000  0.00  0.00    +0.000 A 
ATOM    103  C   UNL     1       5.095   3.359   0.000  0.00  0.00    +0.000 A 
ATOM    104  C   UNL     1       5.845   3.702   0.000  0.00  0.00    +0.000 A 
ATOM    105  C   UNL     1       5.923   4.523   0.000  0.00  0.00    +0.000 A 
ENDBRANCH  96  97
ENDBRANCH  18  96
BRANCH  22 106
ATOM    106  C   UNL     1       1.156   4.225   0.000  0.00  0.00    +0.000 C 
BRANCH 106 107
ATOM    107  C   UNL     1       0.828   3.467   0.000  0.00  0.00    +0.000 A 
ATOM    108  C   UNL     1       1.320   2.805   0.000  0.00  0.00    +0.000 A 
ATOM    109  C   UNL     1       0.992   2.048   0.000  0.00  0.00    +0.000 A 
ATOM    110  C   UNL     1       0.172   1.953   0.000  0.00  0.00    +0.000 A 
ATOM    111  O   UNL     1      -0.155   1.196   0.000  0.00  0.00    +0.000 OA
ATOM    112  C   UNL     1      -0.319   2.616   0.000  0.00  0.00    +0.000 A 
ATOM    113  C   UNL     1       0.009   3.373   0.000  0.00  0.00    +0.000 A 
ENDBRANCH 106 107
ENDBRANCH  22 106
BRANCH  14 114
ATOM    114  C   UNL     1       3.615   8.105   0.000  0.00  0.00    +0.000 C 
BRANCH 114 115
ATOM    115  C   UNL     1       3.942   8.862   0.000  0.00  0.00    +0.000 C 
BRANCH 115 116
ATOM    116  C   UNL     1       3.451   9.524   0.000  0.00  0.00    +0.000 C 
BRANCH 116 117
ATOM    117  C   UNL     1       3.779  10.281   0.000  0.00  0.00    +0.000 C 
ATOM    118  N   UNL     1       3.287  10.944   0.000  0.00  0.00    +0.000 NA
ENDBRANCH 116 117
ENDBRANCH 115 116
ENDBRANCH 114 115
ENDBRANCH  14 114
TORSDOF 33
