REMARK  Name = 
REMARK  12 active torsions:
REMARK  status: ('A' for Active; 'I' for Inactive)
REMARK    1  A    between atoms: C_3  and  C_4
REMARK    2  A    between atoms: C_4  and  C_5
REMARK    3  A    between atoms: C_5  and  C_6
REMARK    4  A    between atoms: C_6  and  C_7
REMARK    5  A    between atoms: C_7  and  C_8
REMARK    6  A    between atoms: C_8  and  C_9
REMARK    7  A    between atoms: C_9  and  C_10
REMARK    8  A    between atoms: C_17  and  N_21
REMARK    9  A    between atoms: N_21  and  C_22
REMARK   10  A    between atoms: N_21  and  C_25
REMARK   11  A    between atoms: C_22  and  C_23
REMARK   12  A    between atoms: C_25  and  C_26
REMARK                            x       y       z     vdW  Elec       q    Type
REMARK                         _______ _______ _______ _____ _____    ______ ____
ROOT
ATOM      1  C   UNL     1       2.042  -0.648   0.000  0.00  0.00    +0.000 C 
ATOM      2  N   UNL     1       1.429  -1.200   0.000  0.00  0.00    +0.000 N 
ATOM      3  C   UNL     1       1.515  -2.020   0.000  0.00  0.00    +0.000 A 
ATOM      4  N   UNL     1       0.761  -2.356   0.000  0.00  0.00    +0.000 NA
ATOM      5  C   UNL     1       0.209  -1.743   0.000  0.00  0.00    +0.000 A 
ATOM      6  C   UNL     1      -0.616  -1.743   0.000  0.00  0.00    +0.000 A 
ATOM      7  C   UNL     1      -1.028  -1.028   0.000  0.00  0.00    +0.000 A 
ATOM      8  C   UNL     1      -0.616  -0.314   0.000  0.00  0.00    +0.000 A 
ATOM      9  C   UNL     1       0.209  -0.314   0.000  0.00  0.00    +0.000 A 
ATOM     10  C   UNL     1       0.622  -1.028   0.000  0.00  0.00    +0.000 A 
ENDROOT
BRANCH   3  11
ATOM     11  C   UNL     1       2.229  -2.433   0.000  0.00  0.00    +0.000 C 
BRANCH  11  12
ATOM     12  C   UNL     1       2.944  -2.020   0.000  0.00  0.00    +0.000 C 
BRANCH  12  13
ATOM     13  C   UNL     1       3.658  -2.433   0.000  0.00  0.00    +0.000 C 
BRANCH  13  14
ATOM     14  C   UNL     1       4.373  -2.020   0.000  0.00  0.00    +0.000 C 
BRANCH  14  15
ATOM     15  C   UNL     1       5.087  -2.433   0.000  0.00  0.00    +0.000 C 
BRANCH  15  16
ATOM     16  C   UNL     1       5.802  -2.020   0.000  0.00  0.00    +0.000 C 
BRANCH  16  17
ATOM     17  C   UNL     1       6.516  -2.433   0.000  0.00  0.00    +0.000 C 
ATOM     18  O   UNL     1       6.516  -3.258   0.000  0.00  0.00    +0.000 OA
ATOM     19  N   UNL     1       7.231  -2.020   0.000  0.00  0.00    +0.000 NA
ATOM     20  O   UNL     1       7.945  -2.433   0.000  0.00  0.00    +0.000 OA
ENDBRANCH  16  17
ENDBRANCH  15  16
ENDBRANCH  14  15
ENDBRANCH  13  14
ENDBRANCH  12  13
ENDBRANCH  11  12
ENDBRANCH   3  11
BRANCH   7  21
ATOM     21  N   UNL     1      -1.853  -1.028   0.000  0.00  0.00    +0.000 N 
BRANCH  21  22
ATOM     22  C   UNL     1      -2.266  -1.743   0.000  0.00  0.00    +0.000 C 
BRANCH  22  23
ATOM     23  C   UNL     1      -3.091  -1.743   0.000  0.00  0.00    +0.000 C 
ATOM     24 CL   UNL     1      -3.503  -2.457   0.000  0.00  0.00    +0.000 Cl
ENDBRANCH  22  23
ENDBRANCH  21  22
BRANCH  21  25
ATOM     25  C   UNL     1      -2.266  -0.314   0.000  0.00  0.00    +0.000 C 
BRANCH  25  26
ATOM     26  C   UNL     1      -3.091  -0.314   0.000  0.00  0.00    +0.000 C 
ATOM     27 CL   UNL     1      -3.503   0.401   0.000  0.00  0.00    +0.000 Cl
ENDBRANCH  25  26
ENDBRANCH  21  25
ENDBRANCH   7  21
TORSDOF 12
