REMARK  Name = 
REMARK  38 active torsions:
REMARK  status: ('A' for Active; 'I' for Inactive)
REMARK    1  A    between atoms: C_2  and  C_3
REMARK    2  A    between atoms: C_3  and  C_5
REMARK    3  A    between atoms: C_5  and  C_6
REMARK    4  A    between atoms: C_6  and  C_7
REMARK    5  A    between atoms: C_7  and  C_8
REMARK    6  A    between atoms: C_8  and  C_9
REMARK    7  A    between atoms: C_9  and  C_10
REMARK    8  A    between atoms: C_11  and  C_12
REMARK    9  A    between atoms: C_12  and  C_13
REMARK   10  A    between atoms: N_15  and  C_16
REMARK   11  A    between atoms: C_16  and  C_17
REMARK   12  A    between atoms: C_16  and  C_21
REMARK   13  A    between atoms: C_17  and  C_18
REMARK   14  A    between atoms: C_23  and  C_24
REMARK   15  A    between atoms: C_23  and  C_28
REMARK   16  A    between atoms: C_23  and  N_93
REMARK   17  A    between atoms: C_24  and  C_25
REMARK   18  A    between atoms: N_30  and  C_31
REMARK   19  A    between atoms: C_31  and  C_32
REMARK   20  A    between atoms: C_31  and  C_36
REMARK   21  A    between atoms: C_32  and  C_33
REMARK   22  A    between atoms: N_38  and  C_39
REMARK   23  A    between atoms: C_39  and  C_40
REMARK   24  A    between atoms: N_42  and  C_43
REMARK   25  A    between atoms: C_43  and  C_44
REMARK   26  A    between atoms: C_43  and  C_47
REMARK   27  A    between atoms: C_44  and  C_45
REMARK   28  A    between atoms: C_49  and  C_50
REMARK   29  A    between atoms: C_49  and  N_94
REMARK   30  A    between atoms: N_52  and  C_53
REMARK   31  A    between atoms: C_53  and  C_54
REMARK   32  A    between atoms: C_53  and  C_57
REMARK   33  A    between atoms: N_59  and  C_60
REMARK   34  A    between atoms: C_60  and  C_61
REMARK   35  A    between atoms: C_60  and  C_64
REMARK   36  A    between atoms: C_70  and  C_71
REMARK   37  A    between atoms: N_73  and  C_74
REMARK   38  A    between atoms: C_74  and  C_78
REMARK                            x       y       z     vdW  Elec       q    Type
REMARK                         _______ _______ _______ _____ _____    ______ ____
ROOT
ATOM      1  C   UNK A   1      -0.777  -0.152   0.000  0.00  0.00    +0.000 C 
ENDROOT
BRANCH   1   4
ATOM      2  C   UNK A   1      -0.799   1.277   0.000  0.00  0.00    +0.000 C 
ATOM      3  O   UNK A   1      -1.623   1.277   0.000  0.00  0.00    +0.000 OA
ATOM      4  N   UNK A   1      -0.376   0.569   0.000  0.00  0.00    +0.000 N 
ATOM      5  H   UNK A   1       0.136   0.569   0.000  0.00  0.00    +0.000 HD
BRANCH   2   6
ATOM      6  C   UNK A   1      -0.397   1.998   0.000  0.00  0.00    +0.000 C 
BRANCH   6   9
ATOM      7  C   UNK A   1      -0.418   3.426   0.000  0.00  0.00    +0.000 C 
ATOM      8  O   UNK A   1       0.406   3.426   0.000  0.00  0.00    +0.000 OA
ATOM      9  N   UNK A   1      -0.820   2.706   0.000  0.00  0.00    +0.000 NA
BRANCH   7  10
ATOM     10  C   UNK A   1      -0.841   4.135   0.000  0.00  0.00    +0.000 C 
BRANCH  10  13
ATOM     11  C   UNK A   1       0.385   4.867   0.000  0.00  0.00    +0.000 C 
ATOM     12  O   UNK A   1       0.808   4.159   0.000  0.00  0.00    +0.000 OA
ATOM     13  N   UNK A   1      -0.440   4.867   0.000  0.00  0.00    +0.000 NA
BRANCH  11  14
ATOM     14  C   UNK A   1       0.787   5.588   0.000  0.00  0.00    +0.000 C 
BRANCH  14  17
ATOM     15  C   UNK A   1       0.766   7.017   0.000  0.00  0.00    +0.000 C 
ATOM     16  O   UNK A   1       1.591   7.017   0.000  0.00  0.00    +0.000 OA
ATOM     17  N   UNK A   1       0.364   6.296   0.000  0.00  0.00    +0.000 NA
BRANCH  15  18
ATOM     18  C   UNK A   1       0.342   7.725   0.000  0.00  0.00    +0.000 C 
BRANCH  18  21
ATOM     19  C   UNK A   1       1.569   8.458   0.000  0.00  0.00    +0.000 C 
ATOM     20  O   UNK A   1       1.992   7.750   0.000  0.00  0.00    +0.000 OA
ATOM     21  N   UNK A   1       0.744   8.458   0.000  0.00  0.00    +0.000 NA
BRANCH  19  22
ATOM     22  C   UNK A   1       1.971   9.191   0.000  0.00  0.00    +0.000 C 
BRANCH  22  24
ATOM     23  C   UNK A   1       3.197   9.924   0.000  0.00  0.00    +0.000 C 
ATOM     24  C   UNK A   1       2.796   9.191   0.000  0.00  0.00    +0.000 C 
BRANCH  23  25
ATOM     25  C   UNK A   1       4.022   9.924   0.000  0.00  0.00    +0.000 C 
BRANCH  25  26
ATOM     26  C   UNK A   1       4.424  10.657   0.000  0.00  0.00    +0.000 C 
BRANCH  26  27
ATOM     27  C   UNK A   1       5.249  10.657   0.000  0.00  0.00    +0.000 C 
BRANCH  27  28
ATOM     28  C   UNK A   1       5.651  11.389   0.000  0.00  0.00    +0.000 C 
BRANCH  28  29
ATOM     29  C   UNK A   1       6.476  11.389   0.000  0.00  0.00    +0.000 C 
BRANCH  29  30
ATOM     30  C   UNK A   1       6.878  12.110   0.000  0.00  0.00    +0.000 C 
ATOM     31  C   UNK A   1       6.454  12.818   0.000  0.00  0.00    +0.000 C 
BRANCH  30  33
ATOM     32  C   UNK A   1       8.104  12.843   0.000  0.00  0.00    +0.000 C 
ATOM     33  C   UNK A   1       7.702  12.110   0.000  0.00  0.00    +0.000 C 
ENDBRANCH  30  33
ENDBRANCH  29  30
ENDBRANCH  28  29
ENDBRANCH  27  28
ENDBRANCH  26  27
ENDBRANCH  25  26
ENDBRANCH  23  25
ENDBRANCH  22  24
ENDBRANCH  19  22
ENDBRANCH  18  21
BRANCH  18  34
ATOM     34  C   UNK A   1      -0.482   7.725   0.000  0.00  0.00    +0.000 C 
BRANCH  34  35
ATOM     35  C   UNK A   1      -0.906   8.421   0.000  0.00  0.00    +0.000 C 
ATOM     36  O   UNK A   1      -1.730   8.421   0.000  0.00  0.00    +0.000 OA
ATOM     37  O   UNK A   1      -0.504   9.141   0.000  0.00  0.00    +0.000 OA
ENDBRANCH  34  35
ENDBRANCH  18  34
ENDBRANCH  15  18
ENDBRANCH  14  17
BRANCH  14  38
ATOM     38  C   UNK A   1       1.612   5.588   0.000  0.00  0.00    +0.000 C 
ATOM     39  C   UNK A   1       2.087   6.411   0.000  0.00  0.00    +0.000 C 
BRANCH  38  40
ATOM     40  C   UNK A   1       2.035   4.892   0.000  0.00  0.00    +0.000 C 
ATOM     41  O   UNK A   1       2.860   4.892   0.000  0.00  0.00    +0.000 OA
ATOM     42  O   UNK A   1       1.633   4.172   0.000  0.00  0.00    +0.000 OA
ENDBRANCH  38  40
ENDBRANCH  14  38
ENDBRANCH  11  14
ENDBRANCH  10  13
BRANCH  10  43
ATOM     43  C   UNK A   1      -1.666   4.135   0.000  0.00  0.00    +0.000 C 
BRANCH  43  44
ATOM     44  C   UNK A   1      -2.089   4.830   0.000  0.00  0.00    +0.000 C 
ATOM     45  O   UNK A   1      -2.914   4.830   0.000  0.00  0.00    +0.000 OA
ATOM     46  O   UNK A   1      -1.688   5.551   0.000  0.00  0.00    +0.000 OA
ENDBRANCH  43  44
ENDBRANCH  10  43
ENDBRANCH   7  10
ENDBRANCH   6   9
ENDBRANCH   2   6
ENDBRANCH   1   4
BRANCH   1  47
ATOM     47  C   UNK A   1      -1.602  -0.152   0.000  0.00  0.00    +0.000 C 
ATOM     48  O   UNK A   1      -2.025   0.544   0.000  0.00  0.00    +0.000 OA
ATOM     49  N   UNK A   1      -2.004  -0.884   0.000  0.00  0.00    +0.000 NA
BRANCH  49  50
ATOM     50  C   UNK A   1      -2.829  -0.884   0.000  0.00  0.00    +0.000 C 
BRANCH  50  51
ATOM     51  C   UNK A   1      -3.230  -1.617   0.000  0.00  0.00    +0.000 C 
ATOM     52  O   UNK A   1      -2.807  -2.325   0.000  0.00  0.00    +0.000 OA
ATOM     53  N   UNK A   1      -4.055  -1.617   0.000  0.00  0.00    +0.000 NA
BRANCH  53  54
ATOM     54  C   UNK A   1      -4.457  -2.350   0.000  0.00  0.00    +0.000 C 
BRANCH  54  55
ATOM     55  C   UNK A   1      -4.034  -3.058   0.000  0.00  0.00    +0.000 C 
ATOM     56  O   UNK A   1      -3.209  -3.058   0.000  0.00  0.00    +0.000 OA
ATOM     57  N   UNK A   1      -4.436  -3.779   0.000  0.00  0.00    +0.000 NA
BRANCH  57  58
ATOM     58  C   UNK A   1      -4.013  -4.487   0.000  0.00  0.00    +0.000 C 
BRANCH  58  59
ATOM     59  C   UNK A   1      -4.414  -5.208   0.000  0.00  0.00    +0.000 C 
ATOM     60  O   UNK A   1      -5.239  -5.208   0.000  0.00  0.00    +0.000 OA
ATOM     61  N   UNK A   1      -3.991  -5.916   0.000  0.00  0.00    +0.000 N 
ATOM     62  C   UNK A   1      -3.170  -5.990   0.000  0.00  0.00    +0.000 C 
ATOM     63  C   UNK A   1      -2.986  -6.794   0.000  0.00  0.00    +0.000 C 
ATOM     64  C   UNK A   1      -3.694  -7.217   0.000  0.00  0.00    +0.000 C 
ATOM     65  C   UNK A   1      -4.316  -6.674   0.000  0.00  0.00    +0.000 C 
BRANCH  65  66
ATOM     66  C   UNK A   1      -5.120  -6.858   0.000  0.00  0.00    +0.000 C 
ATOM     67  O   UNK A   1      -5.681  -6.253   0.000  0.00  0.00    +0.000 OA
ATOM     68  N   UNK A   1      -5.363  -7.646   0.000  0.00  0.00    +0.000 NA
BRANCH  68  69
ATOM     69  C   UNK A   1      -6.167  -8.181   0.000  0.00  0.00    +0.000 C 
ATOM     70  C   UNK A   1      -6.990  -7.706   0.000  0.00  0.00    +0.000 C 
BRANCH  69  71
ATOM     71  C   UNK A   1      -6.294  -9.516   0.000  0.00  0.00    +0.000 C 
ATOM     72  C   UNK A   1      -5.471  -9.991   0.000  0.00  0.00    +0.000 C 
ATOM     73  N   UNK A   1      -7.281  -9.892   0.000  0.00  0.00    +0.000 NA
ATOM     74  C   LYS A   2      -7.281 -10.973   0.000  0.00  0.00    +0.000 C 
ATOM     75  N   LYS A   2      -5.471 -10.942   0.000  0.00  0.00    +0.000 N 
ATOM     76  CA  LYS A   2      -6.294 -11.417   0.000  0.00  0.00    +0.000 C 
ATOM     77  CE  LYS A   2      -4.647 -11.417   0.000  0.00  0.00    +0.000 C 
ATOM     78  CB  LYS A   2      -6.294 -12.368   0.000  0.00  0.00    +0.000 C 
ATOM     79  CD  LYS A   2      -4.647 -12.368   0.000  0.00  0.00    +0.000 C 
ATOM     80  CG  LYS A   2      -5.471 -12.843   0.000  0.00  0.00    +0.000 C 
ATOM     81  O   LYS A   2      -8.104 -11.448   0.000  0.00  0.00    +0.000 OA
ATOM     82  O   UNK A   1      -4.647  -9.516   0.000  0.00  0.00    +0.000 OA
ENDBRANCH  69  71
ENDBRANCH  68  69
ENDBRANCH  65  66
ENDBRANCH  58  59
BRANCH  58  83
ATOM     83  C   UNK A   1      -3.188  -4.487   0.000  0.00  0.00    +0.000 C 
ATOM     84  C   UNK A   1      -2.786  -3.754   0.000  0.00  0.00    +0.000 C 
ATOM     85  C   UNK A   1      -2.765  -5.183   0.000  0.00  0.00    +0.000 C 
ENDBRANCH  58  83
ENDBRANCH  57  58
ENDBRANCH  54  55
BRANCH  54  86
ATOM     86  C   UNK A   1      -5.282  -2.350   0.000  0.00  0.00    +0.000 C 
ATOM     87  C   UNK A   1      -5.684  -3.083   0.000  0.00  0.00    +0.000 C 
ATOM     88  N   UNK A   1      -5.705  -1.654   0.000  0.00  0.00    +0.000 NA
ENDBRANCH  54  86
ENDBRANCH  53  54
ENDBRANCH  50  51
ENDBRANCH  49  50
ENDBRANCH   1  47
BRANCH   1  89
ATOM     89  C   UNK A   1      -0.354  -0.847   0.000  0.00  0.00    +0.000 C 
BRANCH  89  90
ATOM     90  C   UNK A   1       0.471  -0.847   0.000  0.00  0.00    +0.000 C 
ATOM     91  O   UNK A   1       0.872  -0.127   0.000  0.00  0.00    +0.000 OA
ATOM     92  O   UNK A   1       0.894  -1.556   0.000  0.00  0.00    +0.000 OA
ENDBRANCH  89  90
ENDBRANCH   1  89
TORSDOF 38
