REMARK  Name = 
REMARK  7 active torsions:
REMARK  status: ('A' for Active; 'I' for Inactive)
REMARK    1  A    between atoms: C_5  and  C_7
REMARK    2  A    between atoms: C_11  and  C_14
REMARK    3  A    between atoms: C_11  and  N_17
REMARK    4  A    between atoms: C_12  and  C_15
REMARK    5  A    between atoms: C_12  and  N_17
REMARK    6  A    between atoms: C_13  and  C_16
REMARK    7  A    between atoms: C_13  and  N_17
REMARK                            x       y       z     vdW  Elec       q    Type
REMARK                         _______ _______ _______ _____ _____    ______ ____
ROOT
ATOM      1  C   UNL     1       0.500  -1.279   0.000  0.00  0.00    +0.000 A 
ATOM      2  C   UNL     1       1.215  -0.866   0.000  0.00  0.00    +0.000 A 
ATOM      3  C   UNL     1      -0.214  -0.866   0.000  0.00  0.00    +0.000 A 
ATOM      4  C   UNL     1       1.215  -0.041   0.000  0.00  0.00    +0.000 A 
ATOM      5  C   UNL     1      -0.214  -0.041   0.000  0.00  0.00    +0.000 A 
ATOM      6  C   UNL     1       0.500   0.371   0.000  0.00  0.00    +0.000 A 
ATOM      7  O   UNL     1       0.500   1.196   0.000  0.00  0.00    +0.000 OA
ENDROOT
BRANCH   5   8
ATOM      8  C   UNL     1      -0.929   0.371   0.000  0.00  0.00    +0.000 C 
ATOM      9  O   UNL     1      -1.643  -0.041   0.000  0.00  0.00    +0.000 OA
ATOM     10  O   UNL     1      -0.929   1.196   0.000  0.00  0.00    +0.000 OA
ENDBRANCH   5   8
TORSDOF 1
REMARK  Name = 
REMARK  7 active torsions:
REMARK  status: ('A' for Active; 'I' for Inactive)
REMARK    1  A    between atoms: C_5  and  C_7
REMARK    2  A    between atoms: C_11  and  C_14
REMARK    3  A    between atoms: C_11  and  N_17
REMARK    4  A    between atoms: C_12  and  C_15
REMARK    5  A    between atoms: C_12  and  N_17
REMARK    6  A    between atoms: C_13  and  C_16
REMARK    7  A    between atoms: C_13  and  N_17
REMARK                            x       y       z     vdW  Elec       q    Type
REMARK                         _______ _______ _______ _____ _____    ______ ____
ROOT
ATOM      1  N   UNL     1       4.529  -0.247   0.000  0.00  0.00    +0.000 NA
ENDROOT
BRANCH   1   2
ATOM      2  C   UNL     1       4.529  -1.073   0.000  0.00  0.00    +0.000 C 
BRANCH   2   3
ATOM      3  C   UNL     1       5.244  -1.485   0.000  0.00  0.00    +0.000 C 
ATOM      4  O   UNL     1       5.244  -2.310   0.000  0.00  0.00    +0.000 OA
ENDBRANCH   2   3
ENDBRANCH   1   2
BRANCH   1   5
ATOM      5  C   UNL     1       5.244   0.165   0.000  0.00  0.00    +0.000 C 
BRANCH   5   6
ATOM      6  C   UNL     1       5.244   0.990   0.000  0.00  0.00    +0.000 C 
ATOM      7  O   UNL     1       5.958   1.403   0.000  0.00  0.00    +0.000 OA
ENDBRANCH   5   6
ENDBRANCH   1   5
BRANCH   1   8
ATOM      8  C   UNL     1       3.815   0.165   0.000  0.00  0.00    +0.000 C 
BRANCH   8   9
ATOM      9  C   UNL     1       3.815   0.990   0.000  0.00  0.00    +0.000 C 
ATOM     10  O   UNL     1       3.100   1.403   0.000  0.00  0.00    +0.000 OA
ENDBRANCH   8   9
ENDBRANCH   1   8
TORSDOF 6
