REMARK  Name = 
REMARK  6 active torsions:
REMARK  status: ('A' for Active; 'I' for Inactive)
REMARK    1  A    between atoms: N_2  and  C_3
REMARK    2  A    between atoms: C_3  and  C_4
REMARK    3  A    between atoms: C_9  and  N_21
REMARK    4  A    between atoms: C_11  and  C_13
REMARK    5  A    between atoms: C_16  and  O_19
REMARK    6  A    between atoms: C_30  and  C_33
REMARK                            x       y       z     vdW  Elec       q    Type
REMARK                         _______ _______ _______ _____ _____    ______ ____
ROOT
ATOM      1  C   UNL     1      -0.628  -0.698   0.000  0.00  0.00    +0.000 A 
ATOM      2  C   UNL     1      -0.143  -1.365   0.000  0.00  0.00    +0.000 A 
ATOM      3  C   UNL     1       0.641  -1.110   0.000  0.00  0.00    +0.000 A 
ATOM      4  C   UNL     1       0.641  -0.285   0.000  0.00  0.00    +0.000 A 
ATOM      5  S   UNL     1      -0.143  -0.030   0.000  0.00  0.00    +0.000 S 
ATOM      6  C   UNL     1       1.356   0.127   0.000  0.00  0.00    +0.000 A 
ATOM      7  N   UNL     1       2.070  -0.285   0.000  0.00  0.00    +0.000 NA
ATOM      8  C   UNL     1       2.070  -1.110   0.000  0.00  0.00    +0.000 A 
ATOM      9  N   UNL     1       1.356  -1.523   0.000  0.00  0.00    +0.000 NA
ENDROOT
BRANCH   8  10
ATOM     10  C   UNL     1       2.784  -1.523   0.000  0.00  0.00    +0.000 A 
ATOM     11  C   UNL     1       3.499  -1.110   0.000  0.00  0.00    +0.000 A 
ATOM     12  C   UNL     1       4.213  -1.523   0.000  0.00  0.00    +0.000 A 
ATOM     13  C   UNL     1       4.213  -2.348   0.000  0.00  0.00    +0.000 A 
ATOM     14  N   UNL     1       3.499  -2.760   0.000  0.00  0.00    +0.000 NA
ATOM     15  C   UNL     1       2.784  -2.348   0.000  0.00  0.00    +0.000 A 
BRANCH  13  16
ATOM     16  O   UNL     1       4.928  -2.760   0.000  0.00  0.00    +0.000 OA
ATOM     17  C   UNL     1       4.928  -3.585   0.000  0.00  0.00    +0.000 C 
ENDBRANCH  13  16
ENDBRANCH   8  10
BRANCH   6  18
ATOM     18  N   UNL     1       1.356   0.952   0.000  0.00  0.00    +0.000 N 
ATOM     19  C   UNL     1       0.641   1.365   0.000  0.00  0.00    +0.000 C 
ATOM     20  C   UNL     1       0.641   2.190   0.000  0.00  0.00    +0.000 C 
ATOM     21  O   UNL     1       1.356   2.602   0.000  0.00  0.00    +0.000 OA
ATOM     22  C   UNL     1       2.070   2.190   0.000  0.00  0.00    +0.000 C 
ATOM     23  C   UNL     1       2.070   1.365   0.000  0.00  0.00    +0.000 C 
ENDBRANCH   6  18
BRANCH   1  24
ATOM     24  C   UNL     1      -1.453  -0.698   0.000  0.00  0.00    +0.000 C 
BRANCH  24  26
ATOM     25  C   UNL     1      -1.453  -2.127   0.000  0.00  0.00    +0.000 C 
ATOM     26  N   UNL     1      -1.866  -1.412   0.000  0.00  0.00    +0.000 N 
ATOM     27  C   UNL     1      -2.691  -1.412   0.000  0.00  0.00    +0.000 A 
ATOM     28  N   UNL     1      -3.103  -2.127   0.000  0.00  0.00    +0.000 NA
ATOM     29  C   UNL     1      -3.928  -2.127   0.000  0.00  0.00    +0.000 A 
ATOM     30  C   UNL     1      -4.341  -1.412   0.000  0.00  0.00    +0.000 A 
ATOM     31  C   UNL     1      -3.928  -0.698   0.000  0.00  0.00    +0.000 A 
ATOM     32  N   UNL     1      -3.103  -0.698   0.000  0.00  0.00    +0.000 NA
BRANCH  30  33
ATOM     33  C   UNL     1      -5.166  -1.412   0.000  0.00  0.00    +0.000 C 
ATOM     34  O   UNL     1      -5.578  -2.127   0.000  0.00  0.00    +0.000 OA
ATOM     35  N   UNL     1      -5.578  -0.698   0.000  0.00  0.00    +0.000 NA
ATOM     36  O   UNL     1      -6.403  -0.698   0.000  0.00  0.00    +0.000 OA
ENDBRANCH  30  33
ENDBRANCH  24  26
ENDBRANCH   1  24
TORSDOF 6
