REMARK  Name = 
REMARK  4 active torsions:
REMARK  status: ('A' for Active; 'I' for Inactive)
REMARK    1  A    between atoms: N_3  and  C_11
REMARK    2  A    between atoms: C_9  and  C_10
REMARK    3  A    between atoms: C_9  and  S_12
REMARK    4  A    between atoms: C_10  and  C_11
REMARK                            x       y       z     vdW  Elec       q    Type
REMARK                         _______ _______ _______ _____ _____    ______ ____
ROOT
ATOM      1  C   UNL     1      -0.357   0.825   0.000  0.00  0.00    +0.000 C 
ENDROOT
BRANCH   1   4
ATOM      2  O   UNL     1      -2.501  -0.412   0.000  0.00  0.00    +0.000 OA
ATOM      3  C   UNL     1      -1.786  -0.825   0.000  0.00  0.00    +0.000 C 
ATOM      4  N   UNL     1      -1.072   0.412   0.000  0.00  0.00    +0.000 NA
ATOM      5  C   UNL     1      -1.072  -0.412   0.000  0.00  0.00    +0.000 C 
ATOM      6  C   UNL     1      -1.786   0.825   0.000  0.00  0.00    +0.000 C 
ATOM      7  C   UNL     1      -2.501   0.412   0.000  0.00  0.00    +0.000 C 
ENDBRANCH   1   4
BRANCH   1   8
ATOM      8  C   UNL     1       0.357   0.412   0.000  0.00  0.00    +0.000 C 
BRANCH   8   9
ATOM      9  C   UNL     1       1.072   0.825   0.000  0.00  0.00    +0.000 C 
BRANCH   9  12
ATOM     10  O   UNL     1       1.786  -0.412   0.000  0.00  0.00    +0.000 OA
ATOM     11  O   UNL     1       2.501   0.825   0.000  0.00  0.00    +0.000 OA
ATOM     12  S   UNL     1       1.786   0.412   0.000  0.00  0.00    +0.000 S 
ATOM     13  O   UNL     1       2.501   0.000   0.000  0.00  0.00    +0.000 OA
ENDBRANCH   9  12
ENDBRANCH   8   9
ENDBRANCH   1   8
TORSDOF 4
