REMARK  Name = 
REMARK  2 active torsions:
REMARK  status: ('A' for Active; 'I' for Inactive)
REMARK    1  A    between atoms: C_1  and  N_2
REMARK    2  A    between atoms: C_3  and  C_4
REMARK                            x       y       z     vdW  Elec       q    Type
REMARK                         _______ _______ _______ _____ _____    ______ ____
ROOT
ATOM      1  N   UNL     1       0.402  -0.182   0.000  0.00  0.00    +0.000 NA
ATOM      2  C   UNL     1      -0.368   0.223   0.000  0.00  0.00    +0.000 C 
ATOM      3  O   UNL     1      -0.368   1.015   0.000  0.00  0.00    +0.000 OA
ENDROOT
BRANCH   2   4
ATOM      4  C   UNL     1      -1.058  -0.223   0.000  0.00  0.00    +0.000 A 
ATOM      5  C   UNL     1      -1.058  -1.057   0.000  0.00  0.00    +0.000 A 
ATOM      6  C   UNL     1      -1.719  -1.475   0.000  0.00  0.00    +0.000 A 
ATOM      7  C   UNL     1      -2.489  -1.123   0.000  0.00  0.00    +0.000 A 
ATOM      8  C   UNL     1      -2.489  -0.278   0.000  0.00  0.00    +0.000 A 
ATOM      9  C   UNL     1      -1.824   0.149   0.000  0.00  0.00    +0.000 A 
ATOM     10  C   UNL     1      -1.824   0.644   0.000  0.00  0.00    +0.000 C 
ENDBRANCH   2   4
BRANCH   1  11
ATOM     11  C   UNL     1       1.051   0.241   0.000  0.00  0.00    +0.000 A 
ATOM     12  C   UNL     1       1.051   1.035   0.000  0.00  0.00    +0.000 A 
ATOM     13  C   UNL     1       1.752   1.475   0.000  0.00  0.00    +0.000 A 
ATOM     14  C   UNL     1       2.489   1.048   0.000  0.00  0.00    +0.000 A 
ATOM     15  C   UNL     1       2.489   0.223   0.000  0.00  0.00    +0.000 A 
ATOM     16  C   UNL     1       1.748  -0.182   0.000  0.00  0.00    +0.000 A 
ENDBRANCH   1  11
TORSDOF 2
