REMARK  Name = 
REMARK  7 active torsions:
REMARK  status: ('A' for Active; 'I' for Inactive)
REMARK    1  A    between atoms: C_2  and  C_3
REMARK    2  A    between atoms: C_3  and  C_5
REMARK    3  A    between atoms: C_5  and  C_6
REMARK    4  A    between atoms: C_5  and  C_12
REMARK    5  A    between atoms: C_5  and  C_18
REMARK    6  A    between atoms: C_6  and  C_7
REMARK    7  A    between atoms: C_7  and  N_9
REMARK                            x       y       z     vdW  Elec       q    Type
REMARK                         _______ _______ _______ _____ _____    ______ ____
ROOT
ATOM      1  C   UNL     1       0.715  -1.238   0.000  0.00  0.00    +0.000 C 
ENDROOT
BRANCH   1   2
ATOM      2  C   UNL     1       0.715  -0.412   0.000  0.00  0.00    +0.000 A 
ATOM      3  C   UNL     1       0.000   0.000   0.000  0.00  0.00    +0.000 A 
ATOM      4  C   UNL     1       0.000   0.825   0.000  0.00  0.00    +0.000 A 
ATOM      5  C   UNL     1       0.715   1.238   0.000  0.00  0.00    +0.000 A 
ATOM      6  C   UNL     1       1.429   0.825   0.000  0.00  0.00    +0.000 A 
ATOM      7  C   UNL     1       1.429   0.000   0.000  0.00  0.00    +0.000 A 
ENDBRANCH   1   2
BRANCH   1   8
ATOM      8  C   UNL     1       0.715  -2.062   0.000  0.00  0.00    +0.000 A 
ATOM      9  C   UNL     1       1.429  -2.475   0.000  0.00  0.00    +0.000 A 
ATOM     10  C   UNL     1       1.429  -3.300   0.000  0.00  0.00    +0.000 A 
ATOM     11  C   UNL     1       0.715  -3.712   0.000  0.00  0.00    +0.000 A 
ATOM     12  C   UNL     1       0.000  -3.300   0.000  0.00  0.00    +0.000 A 
ATOM     13  C   UNL     1       0.000  -2.475   0.000  0.00  0.00    +0.000 A 
ENDBRANCH   1   8
BRANCH   1  14
ATOM     14  C   UNL     1      -0.111  -1.238   0.000  0.00  0.00    +0.000 C 
ATOM     15  O   UNL     1      -0.523  -0.523   0.000  0.00  0.00    +0.000 OA
BRANCH  14  17
ATOM     16  C   UNL     1      -1.348  -1.952   0.000  0.00  0.00    +0.000 C 
ATOM     17  C   UNL     1      -0.523  -1.952   0.000  0.00  0.00    +0.000 C 
ENDBRANCH  14  17
ENDBRANCH   1  14
BRANCH   1  18
ATOM     18  C   UNL     1       1.540  -1.238   0.000  0.00  0.00    +0.000 C 
BRANCH  18  19
ATOM     19  C   UNL     1       1.952  -0.523   0.000  0.00  0.00    +0.000 C 
ATOM     20  C   UNL     1       1.780   0.284   0.000  0.00  0.00    +0.000 C 
BRANCH  19  21
ATOM     21  N   UNL     1       2.777  -0.523   0.000  0.00  0.00    +0.000 NA
ATOM     22  C   UNL     1       3.189   0.191   0.000  0.00  0.00    +0.000 C 
ATOM     23  C   UNL     1       3.189  -1.238   0.000  0.00  0.00    +0.000 C 
ENDBRANCH  19  21
ENDBRANCH  18  19
ENDBRANCH   1  18
TORSDOF 7
