REMARK  Name = 
REMARK  0 active torsions:
REMARK  status: ('A' for Active; 'I' for Inactive)
REMARK                            x       y       z     vdW  Elec       q    Type
REMARK                         _______ _______ _______ _____ _____    ______ ____
ROOT
ATOM      1 ZN   UNL     1       0.000   0.126   0.000  0.00  0.00    +0.000 Zn
ENDROOT
TORSDOF 0
REMARK  Name = 
REMARK  0 active torsions:
REMARK  status: ('A' for Active; 'I' for Inactive)
REMARK                            x       y       z     vdW  Elec       q    Type
REMARK                         _______ _______ _______ _____ _____    ______ ____
ROOT
ATOM      1  O   HOH     1       1.152   0.792   0.000  0.00  0.00    +0.000 OA
ATOM      2  H   HOH     0       1.867   0.379   0.000  0.00  0.00    +0.000 HD
ATOM      3  H   HOH     0       1.152   1.617   0.000  0.00  0.00    +0.000 HD
ENDROOT
TORSDOF 0
REMARK  Name = 
REMARK  0 active torsions:
REMARK  status: ('A' for Active; 'I' for Inactive)
REMARK                            x       y       z     vdW  Elec       q    Type
REMARK                         _______ _______ _______ _____ _____    ______ ____
ROOT
ATOM      1  O   HOH     1      -1.152   0.792   0.000  0.00  0.00    +0.000 OA
ATOM      2  H   HOH     0      -1.867   0.379   0.000  0.00  0.00    +0.000 HD
ATOM      3  H   HOH     0      -1.152   1.617   0.000  0.00  0.00    +0.000 HD
ENDROOT
TORSDOF 0
REMARK  Name = 
REMARK  0 active torsions:
REMARK  status: ('A' for Active; 'I' for Inactive)
REMARK                            x       y       z     vdW  Elec       q    Type
REMARK                         _______ _______ _______ _____ _____    ______ ____
ROOT
ATOM      1  O   HOH     1       0.000  -1.204   0.000  0.00  0.00    +0.000 OA
ATOM      2  H   HOH     0      -0.714  -1.617   0.000  0.00  0.00    +0.000 HD
ATOM      3  H   HOH     0       0.714  -1.617   0.000  0.00  0.00    +0.000 HD
ENDROOT
TORSDOF 0
