REMARK  Name = 
REMARK  1 active torsions:
REMARK  status: ('A' for Active; 'I' for Inactive)
REMARK    1  A    between atoms: N_3  and  C_6
REMARK                            x       y       z     vdW  Elec       q    Type
REMARK                         _______ _______ _______ _____ _____    ______ ____
ROOT
ATOM      1 CL   UNL     1      -0.357  -2.731   0.000  0.00  0.00    +0.000 Cl
ATOM      2  C   UNL     1      -0.357  -0.256   0.000  0.00  0.00    +0.000 A 
ATOM      3  C   UNL     1       0.357  -0.668   0.000  0.00  0.00    +0.000 A 
ATOM      4  C   UNL     1      -1.072  -0.668   0.000  0.00  0.00    +0.000 A 
ATOM      5  C   UNL     1       0.357  -1.493   0.000  0.00  0.00    +0.000 A 
ATOM      6  C   UNL     1      -1.072  -1.493   0.000  0.00  0.00    +0.000 A 
ATOM      7  C   UNL     1      -0.357  -1.906   0.000  0.00  0.00    +0.000 A 
ENDROOT
BRANCH   2   9
ATOM      8  O   UNL     1       1.072   2.219   0.000  0.00  0.00    +0.000 OA
ATOM      9  N   UNL     1      -0.357   0.569   0.000  0.00  0.00    +0.000 NA
ATOM     10  N   UNL     1       0.357   1.807   0.000  0.00  0.00    +0.000 NA
ATOM     11  N   UNL     1       1.072   0.569   0.000  0.00  0.00    +0.000 NA
ATOM     12  C   UNL     1       0.357   0.982   0.000  0.00  0.00    +0.000 C 
ENDBRANCH   2   9
TORSDOF 1
