REMARK  Name = 
REMARK  21 active torsions:
REMARK  status: ('A' for Active; 'I' for Inactive)
REMARK    1  A    between atoms: C_23  and  C_25
REMARK    2  A    between atoms: C_24  and  C_26
REMARK    3  A    between atoms: C_25  and  C_29
REMARK    4  A    between atoms: C_26  and  C_30
REMARK    5  A    between atoms: C_27  and  C_54
REMARK    6  A    between atoms: C_28  and  C_55
REMARK    7  A    between atoms: C_29  and  C_54
REMARK    8  A    between atoms: C_30  and  C_55
REMARK    9  A    between atoms: C_31  and  O_40
REMARK   10  A    between atoms: C_31  and  C_54
REMARK   11  A    between atoms: C_32  and  O_41
REMARK   12  A    between atoms: C_32  and  C_55
REMARK   13  A    between atoms: N_36  and  C_45
REMARK   14  A    between atoms: N_37  and  C_46
REMARK   15  A    between atoms: N_38  and  C_47
REMARK   16  A    between atoms: N_39  and  C_56
REMARK   17  A    between atoms: O_40  and  C_43
REMARK   18  A    between atoms: O_41  and  C_44
REMARK   19  A    between atoms: C_42  and  C_48
REMARK   20  A    between atoms: C_43  and  C_49
REMARK   21  A    between atoms: C_44  and  C_50
REMARK                            x       y       z     vdW  Elec       q    Type
REMARK                         _______ _______ _______ _____ _____    ______ ____
ROOT
ATOM      1  N   UNL     1       2.142  -1.238   0.000  0.00  0.00    +0.000 NA
ATOM      2  N   UNL     1       0.712  -1.238   0.000  0.00  0.00    +0.000 NA
ATOM      3  N   UNL     1       1.429   0.000   0.000  0.00  0.00    +0.000 NA
ATOM      4  N   UNL     1       1.429  -2.475   0.000  0.00  0.00    +0.000 NA
ATOM      5  N   UNL     1       2.858   0.000   0.000  0.00  0.00    +0.000 NA
ATOM      6  N   UNL     1       0.000   0.000   0.000  0.00  0.00    +0.000 NA
ATOM      7  C   UNL     1       1.429  -1.650   0.000  0.00  0.00    +0.000 A 
ATOM      8  C   UNL     1       2.142  -0.412   0.000  0.00  0.00    +0.000 A 
ATOM      9  C   UNL     1       0.712  -0.412   0.000  0.00  0.00    +0.000 A 
ENDROOT
BRANCH   6  14
ATOM     10  C   UNL     1      -0.717  -1.238   0.000  0.00  0.00    +0.000 A 
ATOM     11  C   UNL     1      -1.429   0.000   0.000  0.00  0.00    +0.000 A 
ATOM     12  C   UNL     1      -1.429  -1.650   0.000  0.00  0.00    +0.000 A 
ATOM     13  C   UNL     1      -2.146  -0.412   0.000  0.00  0.00    +0.000 A 
ATOM     14  C   UNL     1      -0.717  -0.412   0.000  0.00  0.00    +0.000 A 
ATOM     15  C   UNL     1      -2.146  -1.238   0.000  0.00  0.00    +0.000 A 
BRANCH  15  17
ATOM     16  O   UNL     1      -2.858  -2.475   0.000  0.00  0.00    +0.000 OA
ATOM     17  C   UNL     1      -2.858  -1.650   0.000  0.00  0.00    +0.000 C 
BRANCH  17  18
ATOM     18  O   UNL     1      -3.571  -1.238   0.000  0.00  0.00    +0.000 OA
BRANCH  18  19
ATOM     19  C   UNL     1      -4.287  -1.650   0.000  0.00  0.00    +0.000 C 
BRANCH  19  20
ATOM     20  C   UNL     1      -5.000  -1.238   0.000  0.00  0.00    +0.000 C 
BRANCH  20  22
ATOM     21  C   UNL     1      -4.287   0.000   0.000  0.00  0.00    +0.000 C 
ATOM     22  C   UNL     1      -5.000  -0.412   0.000  0.00  0.00    +0.000 C 
ENDBRANCH  20  22
BRANCH  20  23
ATOM     23  C   UNL     1      -5.717  -1.650   0.000  0.00  0.00    +0.000 C 
BRANCH  23  24
ATOM     24  C   UNL     1      -6.429  -1.238   0.000  0.00  0.00    +0.000 C 
BRANCH  24  26
ATOM     25  C   UNL     1      -7.858  -1.238   0.000  0.00  0.00    +0.000 C 
ATOM     26  C   UNL     1      -7.146  -1.650   0.000  0.00  0.00    +0.000 C 
ENDBRANCH  24  26
ENDBRANCH  23  24
ENDBRANCH  20  23
ENDBRANCH  19  20
ENDBRANCH  18  19
ENDBRANCH  17  18
ENDBRANCH  15  17
ENDBRANCH   6  14
BRANCH   5  31
ATOM     27  C   UNL     1       2.142   1.238   0.000  0.00  0.00    +0.000 A 
ATOM     28  C   UNL     1       3.571   1.238   0.000  0.00  0.00    +0.000 A 
ATOM     29  C   UNL     1       2.142   2.062   0.000  0.00  0.00    +0.000 A 
ATOM     30  C   UNL     1       3.571   2.062   0.000  0.00  0.00    +0.000 A 
ATOM     31  C   UNL     1       2.858   0.825   0.000  0.00  0.00    +0.000 A 
ATOM     32  C   UNL     1       2.858   2.475   0.000  0.00  0.00    +0.000 A 
BRANCH  32  34
ATOM     33  O   UNL     1       2.142   3.712   0.000  0.00  0.00    +0.000 OA
ATOM     34  C   UNL     1       2.858   3.300   0.000  0.00  0.00    +0.000 C 
BRANCH  34  35
ATOM     35  O   UNL     1       3.571   3.712   0.000  0.00  0.00    +0.000 OA
BRANCH  35  36
ATOM     36  C   UNL     1       4.287   3.300   0.000  0.00  0.00    +0.000 C 
BRANCH  36  37
ATOM     37  C   UNL     1       5.000   3.712   0.000  0.00  0.00    +0.000 C 
BRANCH  37  39
ATOM     38  C   UNL     1       5.717   4.950   0.000  0.00  0.00    +0.000 C 
ATOM     39  C   UNL     1       5.000   4.537   0.000  0.00  0.00    +0.000 C 
ENDBRANCH  37  39
BRANCH  37  40
ATOM     40  C   UNL     1       5.717   3.300   0.000  0.00  0.00    +0.000 C 
BRANCH  40  41
ATOM     41  C   UNL     1       6.429   3.712   0.000  0.00  0.00    +0.000 C 
BRANCH  41  43
ATOM     42  C   UNL     1       7.858   3.712   0.000  0.00  0.00    +0.000 C 
ATOM     43  C   UNL     1       7.146   3.300   0.000  0.00  0.00    +0.000 C 
ENDBRANCH  41  43
ENDBRANCH  40  41
ENDBRANCH  37  40
ENDBRANCH  36  37
ENDBRANCH  35  36
ENDBRANCH  34  35
ENDBRANCH  32  34
ENDBRANCH   5  31
BRANCH   4  48
ATOM     44  C   UNL     1       0.712  -3.712   0.000  0.00  0.00    +0.000 A 
ATOM     45  C   UNL     1       0.000  -2.475   0.000  0.00  0.00    +0.000 A 
ATOM     46  C   UNL     1       0.000  -4.125   0.000  0.00  0.00    +0.000 A 
ATOM     47  C   UNL     1      -0.717  -2.888   0.000  0.00  0.00    +0.000 A 
ATOM     48  C   UNL     1       0.712  -2.888   0.000  0.00  0.00    +0.000 A 
ATOM     49  C   UNL     1      -0.717  -3.712   0.000  0.00  0.00    +0.000 A 
BRANCH  49  52
ATOM     50  O   UNL     1      -1.429  -4.950   0.000  0.00  0.00    +0.000 OA
ATOM     51  N   UNL     1      -2.146  -3.712   0.000  0.00  0.00    +0.000 NA
ATOM     52  C   UNL     1      -1.429  -4.125   0.000  0.00  0.00    +0.000 C 
BRANCH  51  56
ATOM     53  C   UNL     1      -2.971  -2.888   0.000  0.00  0.00    +0.000 C 
ATOM     54  C   UNL     1      -1.321  -2.888   0.000  0.00  0.00    +0.000 C 
ATOM     55  C   UNL     1      -2.146  -2.062   0.000  0.00  0.00    +0.000 C 
ATOM     56  C   UNL     1      -2.146  -2.888   0.000  0.00  0.00    +0.000 C 
ENDBRANCH  51  56
ENDBRANCH  49  52
ENDBRANCH   4  48
TORSDOF 21
