REMARK  Name = 
REMARK  38 active torsions:
REMARK  status: ('A' for Active; 'I' for Inactive)
REMARK    1  A    between atoms: C_14  and  C_16
REMARK    2  A    between atoms: C_16  and  CA_17
REMARK    3  A    between atoms: CA_17  and  C_19
REMARK    4  A    between atoms: CA_17  and  N_58
REMARK    5  A    between atoms: N_18  and  CA_21
REMARK    6  A    between atoms: CA_21  and  C_22
REMARK    7  A    between atoms: CA_21  and  C_32
REMARK    8  A    between atoms: N_23  and  CA_24
REMARK    9  A    between atoms: CA_24  and  C_25
REMARK   10  A    between atoms: CA_24  and  C_34
REMARK   11  A    between atoms: N_26  and  CA_27
REMARK   12  A    between atoms: CA_27  and  C_28
REMARK   13  A    between atoms: CA_27  and  C_35
REMARK   14  A    between atoms: N_29  and  C_30
REMARK   15  A    between atoms: C_30  and  C_31
REMARK   16  A    between atoms: C_30  and  C_56
REMARK   17  A    between atoms: C_32  and  C_69
REMARK   18  A    between atoms: C_34  and  C_76
REMARK   19  A    between atoms: N_40  and  C_42
REMARK   20  A    between atoms: N_41  and  C_49
REMARK   21  A    between atoms: C_42  and  C_43
REMARK   22  A    between atoms: C_42  and  C_46
REMARK   23  A    between atoms: C_45  and  C_46
REMARK   24  A    between atoms: C_49  and  C_50
REMARK   25  A    between atoms: C_49  and  C_54
REMARK   26  A    between atoms: N_51  and  C_52
REMARK   27  A    between atoms: C_52  and  C_53
REMARK   28  A    between atoms: C_52  and  C_94
REMARK   29  A    between atoms: C_54  and  C_85
REMARK   30  A    between atoms: C_56  and  C_78
REMARK   31  A    between atoms: C_62  and  C_67
REMARK   32  A    between atoms: N_88  and  C_91
REMARK   33  A    between atoms: C_89  and  C_91
REMARK   34  A    between atoms: C_94  and  C_95
REMARK   35  A    between atoms: C_95  and  C_96
REMARK   36  A    between atoms: C_96  and  C_97
REMARK   37  A    between atoms: C_97  and  N_98
REMARK   38  A    between atoms: N_98  and  C_99
REMARK                            x       y       z     vdW  Elec       q    Type
REMARK                         _______ _______ _______ _____ _____    ______ ____
ROOT
ATOM      1  C   UNL     1       0.631  -1.214   0.000  0.00  0.00    +0.000 C 
ENDROOT
BRANCH   1   3
ATOM      2  C   UNL     1      -0.771  -1.214   0.000  0.00  0.00    +0.000 C 
ATOM      3  N   UNL     1      -0.070  -0.801   0.000  0.00  0.00    +0.000 N 
ATOM      4  O   UNL     1      -0.771  -2.038   0.000  0.00  0.00    +0.000 OA
ATOM      5  C   UNL     1      -0.070   0.024   0.000  0.00  0.00    +0.000 C 
BRANCH   2   6
ATOM      6  CA  UNL     1      -1.514  -0.801   0.000  0.00  0.00    +0.000 C 
BRANCH   6   8
ATOM      7  C   UNL     1      -2.875  -0.801   0.000  0.00  0.00    +0.000 C 
ATOM      8  N   UNL     1      -2.174  -1.214   0.000  0.00  0.00    +0.000 NA
ATOM      9  O   UNL     1      -2.875   0.024   0.000  0.00  0.00    +0.000 OA
BRANCH   7  10
ATOM     10  CA  UNL     1      -3.617  -1.214   0.000  0.00  0.00    +0.000 C 
BRANCH  10  12
ATOM     11  C   UNL     1      -5.020  -1.214   0.000  0.00  0.00    +0.000 C 
ATOM     12  N   UNL     1      -4.319  -0.801   0.000  0.00  0.00    +0.000 NA
ATOM     13  O   UNL     1      -5.020  -2.038   0.000  0.00  0.00    +0.000 OA
BRANCH  11  14
ATOM     14  CA  UNL     1      -5.762  -0.801   0.000  0.00  0.00    +0.000 C 
BRANCH  14  15
ATOM     15  N   UNL     1      -6.463  -1.214   0.000  0.00  0.00    +0.000 NA
ATOM     16  C   UNL     1      -7.165  -0.801   0.000  0.00  0.00    +0.000 C 
ATOM     17  O   UNL     1      -7.165   0.024   0.000  0.00  0.00    +0.000 OA
BRANCH  16  18
ATOM     18  CA  UNL     1      -7.866  -1.214   0.000  0.00  0.00    +0.000 C 
BRANCH  18  19
ATOM     19  N   UNL     1      -7.866  -2.038   0.000  0.00  0.00    +0.000 NA
ATOM     20  C   UNL     1      -7.165  -2.451   0.000  0.00  0.00    +0.000 C 
ATOM     21  C   UNL     1      -6.463  -2.038   0.000  0.00  0.00    +0.000 C 
ATOM     22  O   UNL     1      -7.165  -3.276   0.000  0.00  0.00    +0.000 OA
ENDBRANCH  18  19
BRANCH  18  23
ATOM     23  C   UNL     1      -8.609  -0.801   0.000  0.00  0.00    +0.000 C 
BRANCH  23  32
ATOM     24  C   UNL     1     -10.630  -2.038   0.000  0.00  0.00    +0.000 A 
ATOM     25  C   UNL     1     -10.630  -1.214   0.000  0.00  0.00    +0.000 A 
ATOM     26  C   UNL     1     -11.331  -0.801   0.000  0.00  0.00    +0.000 A 
ATOM     27  C   UNL     1     -12.074  -1.214   0.000  0.00  0.00    +0.000 A 
ATOM     28  C   UNL     1     -12.074  -2.038   0.000  0.00  0.00    +0.000 A 
ATOM     29  C   UNL     1     -11.331  -2.451   0.000  0.00  0.00    +0.000 A 
ATOM     30  C   UNL     1      -9.928  -2.451   0.000  0.00  0.00    +0.000 A 
ATOM     31  C   UNL     1      -9.186  -2.038   0.000  0.00  0.00    +0.000 A 
ATOM     32  C   UNL     1      -9.186  -1.214   0.000  0.00  0.00    +0.000 A 
ATOM     33  C   UNL     1      -9.928  -0.801   0.000  0.00  0.00    +0.000 A 
ENDBRANCH  23  32
ENDBRANCH  18  23
ENDBRANCH  16  18
ENDBRANCH  14  15
BRANCH  14  34
ATOM     34  C   UNL     1      -5.762   0.024   0.000  0.00  0.00    +0.000 C 
BRANCH  34  35
ATOM     35  C   UNL     1      -5.061   0.436   0.000  0.00  0.00    +0.000 A 
ATOM     36  C   UNL     1      -4.319   0.065   0.000  0.00  0.00    +0.000 A 
ATOM     37  C   UNL     1      -3.617   0.519   0.000  0.00  0.00    +0.000 A 
ATOM     38  C   UNL     1      -3.617   1.303   0.000  0.00  0.00    +0.000 A 
ATOM     39  C   UNL     1      -4.360   1.715   0.000  0.00  0.00    +0.000 A 
ATOM     40  C   UNL     1      -5.061   1.261   0.000  0.00  0.00    +0.000 A 
ATOM     41 CL   UNL     1      -2.916   1.756   0.000  0.00  0.00    +0.000 Cl
ENDBRANCH  34  35
ENDBRANCH  14  34
ENDBRANCH  11  14
ENDBRANCH  10  12
BRANCH  10  42
ATOM     42  C   UNL     1      -3.617  -2.038   0.000  0.00  0.00    +0.000 C 
BRANCH  42  48
ATOM     43  C   UNL     1      -2.215  -2.038   0.000  0.00  0.00    +0.000 A 
ATOM     44  C   UNL     1      -2.916  -3.317   0.000  0.00  0.00    +0.000 A 
ATOM     45  C   UNL     1      -2.215  -3.730   0.000  0.00  0.00    +0.000 A 
ATOM     46  C   UNL     1      -1.472  -3.317   0.000  0.00  0.00    +0.000 A 
ATOM     47  N   UNL     1      -1.472  -2.451   0.000  0.00  0.00    +0.000 NA
ATOM     48  C   UNL     1      -2.916  -2.451   0.000  0.00  0.00    +0.000 A 
ENDBRANCH  42  48
ENDBRANCH  10  42
ENDBRANCH   7  10
ENDBRANCH   6   8
BRANCH   6  49
ATOM     49  C   UNL     1      -1.514   0.024   0.000  0.00  0.00    +0.000 C 
ATOM     50  O   UNL     1      -0.812   0.436   0.000  0.00  0.00    +0.000 OA
ENDBRANCH   6  49
ENDBRANCH   2   6
ENDBRANCH   1   3
BRANCH   1  51
ATOM     51  C   UNL     1       1.374  -0.801   0.000  0.00  0.00    +0.000 C 
ATOM     52  O   UNL     1       1.374   0.024   0.000  0.00  0.00    +0.000 OA
ATOM     53  N   UNL     1       2.075  -1.214   0.000  0.00  0.00    +0.000 NA
BRANCH  53  54
ATOM     54  C   UNL     1       2.776  -0.801   0.000  0.00  0.00    +0.000 C 
BRANCH  54  56
ATOM     55  N   UNL     1       4.220  -0.801   0.000  0.00  0.00    +0.000 NA
ATOM     56  C   UNL     1       3.478  -1.214   0.000  0.00  0.00    +0.000 C 
ATOM     57  O   UNL     1       3.478  -2.038   0.000  0.00  0.00    +0.000 OA
BRANCH  55  58
ATOM     58  C   UNL     1       4.963  -1.214   0.000  0.00  0.00    +0.000 C 
BRANCH  58  59
ATOM     59  C   UNL     1       5.664  -0.801   0.000  0.00  0.00    +0.000 C 
ATOM     60  N   UNL     1       6.365  -1.214   0.000  0.00  0.00    +0.000 NA
ATOM     61  O   UNL     1       5.664   0.024   0.000  0.00  0.00    +0.000 OA
BRANCH  60  62
ATOM     62  C   UNL     1       7.107  -0.801   0.000  0.00  0.00    +0.000 C 
BRANCH  62  63
ATOM     63  C   UNL     1       7.809  -1.214   0.000  0.00  0.00    +0.000 C 
ATOM     64  O   UNL     1       7.809  -2.038   0.000  0.00  0.00    +0.000 OA
ATOM     65  C   UNL     1       9.211  -1.214   0.000  0.00  0.00    +0.000 C 
ATOM     66  C   UNL     1       9.624   0.065   0.000  0.00  0.00    +0.000 C 
ATOM     67  C   UNL     1       8.799   0.065   0.000  0.00  0.00    +0.000 C 
ATOM     68  N   UNL     1       8.551  -0.719   0.000  0.00  0.00    +0.000 N 
ATOM     69  C   UNL     1       9.871  -0.719   0.000  0.00  0.00    +0.000 C 
BRANCH  65  70
ATOM     70  C   UNL     1       9.211  -1.997   0.000  0.00  0.00    +0.000 C 
ATOM     71  O   UNL     1       8.505  -2.426   0.000  0.00  0.00    +0.000 OA
ATOM     72  N   UNL     1       9.930  -2.402   0.000  0.00  0.00    +0.000 NA
BRANCH  72  73
ATOM     73  C   UNL     1      10.645  -1.990   0.000  0.00  0.00    +0.000 C 
ATOM     74  C   UNL     1      10.645  -1.165   0.000  0.00  0.00    +0.000 C 
BRANCH  73  75
ATOM     75  C   UNL     1      11.359  -2.402   0.000  0.00  0.00    +0.000 C 
ATOM     76  N   UNL     1      12.074  -1.990   0.000  0.00  0.00    +0.000 NA
ATOM     77  O   UNL     1      11.359  -3.227   0.000  0.00  0.00    +0.000 OA
ENDBRANCH  73  75
ENDBRANCH  72  73
ENDBRANCH  65  70
ENDBRANCH  62  63
BRANCH  62  78
ATOM     78  C   UNL     1       7.118   0.024   0.000  0.00  0.00    +0.000 C 
BRANCH  78  79
ATOM     79  C   UNL     1       7.832   0.436   0.000  0.00  0.00    +0.000 C 
BRANCH  79  80
ATOM     80  C   UNL     1       7.832   1.261   0.000  0.00  0.00    +0.000 C 
BRANCH  80  81
ATOM     81  C   UNL     1       8.547   1.674   0.000  0.00  0.00    +0.000 C 
BRANCH  81  82
ATOM     82  N   UNL     1       8.547   2.499   0.000  0.00  0.00    +0.000 NA
BRANCH  82  83
ATOM     83  C   UNL     1       9.261   2.911   0.000  0.00  0.00    +0.000 C 
ATOM     84  C   UNL     1       9.261   3.736   0.000  0.00  0.00    +0.000 C 
ATOM     85  C   UNL     1       9.975   2.499   0.000  0.00  0.00    +0.000 C 
ENDBRANCH  82  83
ENDBRANCH  81  82
ENDBRANCH  80  81
ENDBRANCH  79  80
ENDBRANCH  78  79
ENDBRANCH  62  78
ENDBRANCH  60  62
ENDBRANCH  58  59
BRANCH  58  86
ATOM     86  C   UNL     1       5.004  -2.038   0.000  0.00  0.00    +0.000 C 
BRANCH  86  87
ATOM     87  C   UNL     1       5.738  -2.415   0.000  0.00  0.00    +0.000 C 
ATOM     88  C   UNL     1       6.431  -1.967   0.000  0.00  0.00    +0.000 C 
ATOM     89  C   UNL     1       5.738  -3.240   0.000  0.00  0.00    +0.000 C 
ENDBRANCH  86  87
ENDBRANCH  58  86
ENDBRANCH  55  58
ENDBRANCH  54  56
BRANCH  54  90
ATOM     90  C   UNL     1       2.776   0.024   0.000  0.00  0.00    +0.000 C 
BRANCH  90  92
ATOM     91  N   UNL     1       4.220   0.024   0.000  0.00  0.00    +0.000 NA
ATOM     92  C   UNL     1       3.478   0.436   0.000  0.00  0.00    +0.000 C 
ATOM     93  O   UNL     1       3.478   1.261   0.000  0.00  0.00    +0.000 OA
ENDBRANCH  90  92
ENDBRANCH  54  90
ENDBRANCH  53  54
ENDBRANCH   1  51
BRANCH   1  94
ATOM     94  C   UNL     1       0.631  -2.038   0.000  0.00  0.00    +0.000 C 
BRANCH  94  95
ATOM     95  C   UNL     1       1.333  -2.451   0.000  0.00  0.00    +0.000 A 
ATOM     96  C   UNL     1       2.075  -2.038   0.000  0.00  0.00    +0.000 A 
ATOM     97  C   UNL     1       1.296  -3.280   0.000  0.00  0.00    +0.000 A 
ATOM     98  C   UNL     1       2.047  -3.701   0.000  0.00  0.00    +0.000 A 
ATOM     99  C   UNL     1       2.759  -3.309   0.000  0.00  0.00    +0.000 A 
ATOM    100  C   UNL     1       2.784  -2.460   0.000  0.00  0.00    +0.000 A 
ATOM    101  O   UNL     1       3.465  -3.736   0.000  0.00  0.00    +0.000 OA
ENDBRANCH  94  95
ENDBRANCH   1  94
TORSDOF 38
