REMARK  Name = 
REMARK  8 active torsions:
REMARK  status: ('A' for Active; 'I' for Inactive)
REMARK    1  A    between atoms: S_2  and  C_8
REMARK    2  A    between atoms: S_2  and  C_17
REMARK    3  A    between atoms: N_5  and  C_13
REMARK    4  A    between atoms: C_7  and  C_10
REMARK    5  A    between atoms: C_10  and  C_15
REMARK    6  A    between atoms: C_13  and  C_18
REMARK    7  A    between atoms: C_14  and  C_20
REMARK    8  A    between atoms: C_15  and  C_19
REMARK                            x       y       z     vdW  Elec       q    Type
REMARK                         _______ _______ _______ _____ _____    ______ ____
ROOT
ATOM      1  N   UNL     1       0.086  -0.726   0.000  0.00  0.00    +0.000 N 
ATOM      2  C   UNL     1      -0.696   0.347   0.000  0.00  0.00    +0.000 A 
ATOM      3  C   UNL     1       0.567  -0.054   0.000  0.00  0.00    +0.000 A 
ATOM      4  C   UNL     1       0.086   0.598   0.000  0.00  0.00    +0.000 A 
ATOM      5  C   UNL     1      -0.696  -0.475   0.000  0.00  0.00    +0.000 A 
ATOM      6  C   UNL     1      -1.408   0.768   0.000  0.00  0.00    +0.000 A 
ATOM      7  C   UNL     1      -1.408  -0.896   0.000  0.00  0.00    +0.000 A 
ATOM      8  C   UNL     1      -2.130   0.347   0.000  0.00  0.00    +0.000 A 
ATOM      9  C   UNL     1      -2.130  -0.475   0.000  0.00  0.00    +0.000 A 
ENDROOT
BRANCH   8  10
ATOM     10  C   UNL     1      -2.849   0.753   0.000  0.00  0.00    +0.000 C 
ATOM     11  C   UNL     1      -3.417   0.419   0.000  0.00  0.00    +0.000 C 
ATOM     12  C   UNL     1      -2.854   1.413   0.000  0.00  0.00    +0.000 C 
ENDBRANCH   8  10
BRANCH   1  13
ATOM     13  C   UNL     1       0.346  -1.508   0.000  0.00  0.00    +0.000 C 
BRANCH  13  15
ATOM     14 CL   UNL     1       3.417  -2.139   0.000  0.00  0.00    +0.000 Cl
ATOM     15  C   UNL     1       1.154  -1.675   0.000  0.00  0.00    +0.000 A 
ATOM     16  C   UNL     1       1.415  -2.458   0.000  0.00  0.00    +0.000 A 
ATOM     17  C   UNL     1       1.702  -1.058   0.000  0.00  0.00    +0.000 A 
ATOM     18  C   UNL     1       2.223  -2.623   0.000  0.00  0.00    +0.000 A 
ATOM     19  C   UNL     1       2.510  -1.224   0.000  0.00  0.00    +0.000 A 
ATOM     20  C   UNL     1       2.771  -2.006   0.000  0.00  0.00    +0.000 A 
ENDBRANCH  13  15
ENDBRANCH   1  13
BRANCH   4  21
ATOM     21  S   UNL     1       0.343   1.381   0.000  0.00  0.00    +0.000 S 
BRANCH  21  22
ATOM     22  C   UNL     1      -0.207   1.996   0.000  0.00  0.00    +0.000 C 
ATOM     23  C   UNL     1      -0.001   2.623   0.000  0.00  0.00    +0.000 C 
ATOM     24  C   UNL     1      -0.853   1.861   0.000  0.00  0.00    +0.000 C 
ATOM     25  C   UNL     1      -0.647   2.488   0.000  0.00  0.00    +0.000 C 
ENDBRANCH  21  22
ENDBRANCH   4  21
BRANCH   3  26
ATOM     26  C   UNL     1       1.392  -0.043   0.000  0.00  0.00    +0.000 C 
BRANCH  26  27
ATOM     27  C   UNL     1       1.795   0.677   0.000  0.00  0.00    +0.000 C 
ATOM     28  C   UNL     1       1.135   0.668   0.000  0.00  0.00    +0.000 C 
ATOM     29  C   UNL     1       1.458   1.244   0.000  0.00  0.00    +0.000 C 
BRANCH  27  32
ATOM     30  O   UNL     1       2.958   0.121   0.000  0.00  0.00    +0.000 OA
ATOM     31  O   UNL     1       2.943   1.264   0.000  0.00  0.00    +0.000 OA
ATOM     32  C   UNL     1       2.621   0.688   0.000  0.00  0.00    +0.000 C 
ENDBRANCH  27  32
ENDBRANCH  26  27
ENDBRANCH   3  26
TORSDOF 8
