REMARK  Name = 
REMARK  7 active torsions:
REMARK  status: ('A' for Active; 'I' for Inactive)
REMARK    1  A    between atoms: S_1  and  N_2
REMARK    2  A    between atoms: S_1  and  C_7
REMARK    3  A    between atoms: C_4  and  C_6
REMARK    4  A    between atoms: N_9  and  C_21
REMARK    5  A    between atoms: N_13  and  C_22
REMARK    6  A    between atoms: C_20  and  C_23
REMARK    7  A    between atoms: C_22  and  C_23
REMARK                            x       y       z     vdW  Elec       q    Type
REMARK                         _______ _______ _______ _____ _____    ______ ____
ROOT
ATOM      1  C   UNL     1       1.731  -1.705   0.000  0.00  0.00    +0.000 A 
ATOM      2  C   UNL     1       2.445  -1.293   0.000  0.00  0.00    +0.000 A 
ATOM      3  C   UNL     1       1.016  -1.293   0.000  0.00  0.00    +0.000 A 
ATOM      4  C   UNL     1       2.445  -0.468   0.000  0.00  0.00    +0.000 A 
ATOM      5  C   UNL     1       1.016  -0.468   0.000  0.00  0.00    +0.000 A 
ATOM      6  C   UNL     1       1.731  -0.055   0.000  0.00  0.00    +0.000 A 
ENDROOT
BRANCH   1   7
ATOM      7  S   UNL     1       1.731  -2.530   0.000  0.00  0.00    +0.000 S 
ATOM      8  O   UNL     1       2.556  -2.530   0.000  0.00  0.00    +0.000 OA
ATOM      9  O   UNL     1       2.143  -3.245   0.000  0.00  0.00    +0.000 OA
BRANCH   7  10
ATOM     10  N   UNL     1       1.016  -2.943   0.000  0.00  0.00    +0.000 NA
ATOM     11  C   UNL     1       0.302  -2.530   0.000  0.00  0.00    +0.000 C 
ATOM     12  N   UNL     1      -0.412  -2.943   0.000  0.00  0.00    +0.000 NA
ATOM     13  O   UNL     1       0.302  -1.705   0.000  0.00  0.00    +0.000 OA
BRANCH  12  14
ATOM     14  C   UNL     1      -1.127  -2.530   0.000  0.00  0.00    +0.000 C 
ATOM     15  C   UNL     1      -1.127  -1.705   0.000  0.00  0.00    +0.000 C 
ATOM     16  C   UNL     1      -1.841  -2.943   0.000  0.00  0.00    +0.000 C 
ATOM     17  C   UNL     1      -1.841  -1.293   0.000  0.00  0.00    +0.000 C 
ATOM     18  C   UNL     1      -2.556  -2.530   0.000  0.00  0.00    +0.000 C 
ATOM     19  C   UNL     1      -2.556  -1.705   0.000  0.00  0.00    +0.000 C 
ENDBRANCH  12  14
ENDBRANCH   7  10
ENDBRANCH   1   7
BRANCH   6  20
ATOM     20  C   UNL     1       1.731   0.770   0.000  0.00  0.00    +0.000 C 
BRANCH  20  21
ATOM     21  C   UNL     1       1.016   1.182   0.000  0.00  0.00    +0.000 C 
BRANCH  21  24
ATOM     22  C   UNL     1       0.302   2.420   0.000  0.00  0.00    +0.000 C 
ATOM     23  O   UNL     1       0.302   3.245   0.000  0.00  0.00    +0.000 OA
ATOM     24  N   UNL     1       1.016   2.007   0.000  0.00  0.00    +0.000 NA
BRANCH  22  25
ATOM     25  C   UNL     1      -0.412   2.007   0.000  0.00  0.00    +0.000 A 
ATOM     26  N   UNL     1      -1.127   2.420   0.000  0.00  0.00    +0.000 NA
ATOM     27  N   UNL     1      -1.127   0.770   0.000  0.00  0.00    +0.000 NA
ATOM     28  C   UNL     1      -0.412   1.182   0.000  0.00  0.00    +0.000 A 
ATOM     29  C   UNL     1      -1.841   2.007   0.000  0.00  0.00    +0.000 A 
ATOM     30  C   UNL     1      -1.841   1.182   0.000  0.00  0.00    +0.000 A 
ATOM     31  C   UNL     1      -2.556   0.770   0.000  0.00  0.00    +0.000 C 
ENDBRANCH  22  25
ENDBRANCH  21  24
ENDBRANCH  20  21
ENDBRANCH   6  20
TORSDOF 7
