REMARK  Name = 
REMARK  4 active torsions:
REMARK  status: ('A' for Active; 'I' for Inactive)
REMARK    1  A    between atoms: N_10  and  C_14
REMARK    2  A    between atoms: C_17  and  C_20
REMARK    3  A    between atoms: C_23  and  C_24
REMARK    4  A    between atoms: C_24  and  C_25
REMARK                            x       y       z     vdW  Elec       q    Type
REMARK                         _______ _______ _______ _____ _____    ______ ____
ROOT
ATOM      1  C   UNL     1       2.555   0.573   0.000  0.00  0.00    +0.000 A 
ATOM      2  C   UNL     1       2.254   1.341   0.000  0.00  0.00    +0.000 A 
ATOM      3  C   UNL     1       2.768   1.986   0.000  0.00  0.00    +0.000 A 
ATOM      4  C   UNL     1       3.584   1.863   0.000  0.00  0.00    +0.000 A 
ATOM      5  C   UNL     1       3.885   1.095   0.000  0.00  0.00    +0.000 A 
ATOM      6  C   UNL     1       3.371   0.450   0.000  0.00  0.00    +0.000 A 
ENDROOT
BRANCH   1  16
ATOM      7  N   UNL     1      -0.123   0.834   0.000  0.00  0.00    +0.000 NA
ATOM      8  C   UNL     1      -0.123   0.009   0.000  0.00  0.00    +0.000 A 
ATOM      9  N   UNL     1      -0.837  -0.403   0.000  0.00  0.00    +0.000 NA
ATOM     10  C   UNL     1      -0.837  -1.228   0.000  0.00  0.00    +0.000 A 
ATOM     11  N   UNL     1      -0.123  -1.641   0.000  0.00  0.00    +0.000 NA
ATOM     12  C   UNL     1       0.592  -1.228   0.000  0.00  0.00    +0.000 A 
ATOM     13  C   UNL     1       0.592  -0.403   0.000  0.00  0.00    +0.000 A 
ATOM     14  C   UNL     1       1.236   0.111   0.000  0.00  0.00    +0.000 C 
ATOM     15  O   UNL     1       1.053   0.915   0.000  0.00  0.00    +0.000 OA
ATOM     16  N   UNL     1       2.041  -0.072   0.000  0.00  0.00    +0.000 N 
ATOM     17  C   UNL     1       2.399  -0.816   0.000  0.00  0.00    +0.000 C 
ATOM     18  C   UNL     1       2.041  -1.559   0.000  0.00  0.00    +0.000 C 
ATOM     19  O   UNL     1       1.236  -1.743   0.000  0.00  0.00    +0.000 OA
ENDBRANCH   1  16
BRANCH   4  20
ATOM     20  C   UNL     1       4.098   2.508   0.000  0.00  0.00    +0.000 C 
ATOM     21  C   UNL     1       3.797   3.276   0.000  0.00  0.00    +0.000 C 
ATOM     22  C   UNL     1       4.311   3.921   0.000  0.00  0.00    +0.000 C 
ATOM     23  C   UNL     1       5.127   3.798   0.000  0.00  0.00    +0.000 C 
ATOM     24  C   UNL     1       5.428   3.030   0.000  0.00  0.00    +0.000 C 
ATOM     25  C   UNL     1       4.914   2.385   0.000  0.00  0.00    +0.000 C 
BRANCH  23  26
ATOM     26  C   UNL     1       5.641   4.443   0.000  0.00  0.00    +0.000 C 
BRANCH  26  27
ATOM     27  C   UNL     1       6.457   4.320   0.000  0.00  0.00    +0.000 C 
ATOM     28  O   UNL     1       6.972   4.965   0.000  0.00  0.00    +0.000 OA
ATOM     29  O   UNL     1       6.759   3.552   0.000  0.00  0.00    +0.000 OA
ENDBRANCH  26  27
ENDBRANCH  23  26
ENDBRANCH   4  20
TORSDOF 4
