REMARK  Name = 
REMARK  11 active torsions:
REMARK  status: ('A' for Active; 'I' for Inactive)
REMARK    1  A    between atoms: C_3  and  C_5
REMARK    2  A    between atoms: C_4  and  C_21
REMARK    3  A    between atoms: C_5  and  C_11
REMARK    4  A    between atoms: C_11  and  C_21
REMARK    5  A    between atoms: C_20  and  C_21
REMARK    6  A    between atoms: C_20  and  O_31
REMARK    7  A    between atoms: C_22  and  C_23
REMARK    8  A    between atoms: C_24  and  C_27
REMARK    9  A    between atoms: C_25  and  C_27
REMARK   10  A    between atoms: C_26  and  C_28
REMARK   11  A    between atoms: C_28  and  O_31
REMARK                            x       y       z     vdW  Elec       q    Type
REMARK                         _______ _______ _______ _____ _____    ______ ____
ROOT
ATOM      1  C   UNL     1       1.786   2.269   0.000  0.00  0.00    +0.000 A 
ATOM      2  C   UNL     1       1.072   2.681   0.000  0.00  0.00    +0.000 A 
ATOM      3  C   UNL     1       1.786   1.444   0.000  0.00  0.00    +0.000 A 
ATOM      4  C   UNL     1       0.357   2.269   0.000  0.00  0.00    +0.000 A 
ATOM      5  C   UNL     1       1.072   1.031   0.000  0.00  0.00    +0.000 A 
ATOM      6  C   UNL     1       0.357   1.444   0.000  0.00  0.00    +0.000 A 
ENDROOT
BRANCH   6   7
ATOM      7  C   UNL     1      -0.357   1.031   0.000  0.00  0.00    +0.000 C 
ATOM      8  O   UNL     1      -0.357   0.206   0.000  0.00  0.00    +0.000 OA
BRANCH   7   9
ATOM      9  O   UNL     1      -1.072   1.444   0.000  0.00  0.00    +0.000 OA
BRANCH   9  10
ATOM     10  C   UNL     1      -1.786   1.031   0.000  0.00  0.00    +0.000 C 
BRANCH  10  11
ATOM     11  C   UNL     1      -2.501   1.444   0.000  0.00  0.00    +0.000 C 
BRANCH  11  13
ATOM     12  C   UNL     1      -1.786   2.681   0.000  0.00  0.00    +0.000 C 
ATOM     13  C   UNL     1      -2.501   2.269   0.000  0.00  0.00    +0.000 C 
ENDBRANCH  11  13
BRANCH  11  14
ATOM     14  C   UNL     1      -3.215   1.031   0.000  0.00  0.00    +0.000 C 
BRANCH  14  15
ATOM     15  C   UNL     1      -3.929   1.444   0.000  0.00  0.00    +0.000 C 
BRANCH  15  17
ATOM     16  C   UNL     1      -5.359   1.444   0.000  0.00  0.00    +0.000 C 
ATOM     17  C   UNL     1      -4.644   1.031   0.000  0.00  0.00    +0.000 C 
ENDBRANCH  15  17
ENDBRANCH  14  15
ENDBRANCH  11  14
ENDBRANCH  10  11
ENDBRANCH   9  10
ENDBRANCH   7   9
ENDBRANCH   6   7
BRANCH   5  18
ATOM     18  C   UNL     1       1.072   0.206   0.000  0.00  0.00    +0.000 C 
ATOM     19  O   UNL     1       0.357  -0.206   0.000  0.00  0.00    +0.000 OA
BRANCH  18  25
ATOM     20  C   UNL     1       3.215  -0.206   0.000  0.00  0.00    +0.000 A 
ATOM     21  C   UNL     1       2.501  -1.444   0.000  0.00  0.00    +0.000 A 
ATOM     22  C   UNL     1       2.501   0.206   0.000  0.00  0.00    +0.000 A 
ATOM     23  C   UNL     1       1.786  -1.031   0.000  0.00  0.00    +0.000 A 
ATOM     24  C   UNL     1       3.215  -1.031   0.000  0.00  0.00    +0.000 A 
ATOM     25  C   UNL     1       1.786  -0.206   0.000  0.00  0.00    +0.000 A 
BRANCH  24  31
ATOM     26  C   UNL     1       5.359  -2.269   0.000  0.00  0.00    +0.000 A 
ATOM     27  C   UNL     1       5.359  -1.444   0.000  0.00  0.00    +0.000 A 
ATOM     28  C   UNL     1       4.644  -2.681   0.000  0.00  0.00    +0.000 A 
ATOM     29  C   UNL     1       4.644  -1.031   0.000  0.00  0.00    +0.000 A 
ATOM     30  C   UNL     1       3.929  -2.269   0.000  0.00  0.00    +0.000 A 
ATOM     31  C   UNL     1       3.929  -1.444   0.000  0.00  0.00    +0.000 A 
ENDBRANCH  24  31
ENDBRANCH  18  25
ENDBRANCH   5  18
TORSDOF 11
