REMARK  Name = 
REMARK  16 active torsions:
REMARK  status: ('A' for Active; 'I' for Inactive)
REMARK    1  A    between atoms: S_2  and  N_5
REMARK    2  A    between atoms: N_5  and  C_6
REMARK    3  A    between atoms: C_9  and  C_17
REMARK    4  A    between atoms: C_11  and  O_12
REMARK    5  A    between atoms: O_12  and  C_13
REMARK    6  A    between atoms: C_13  and  C_14
REMARK    7  A    between atoms: C_17  and  O_19
REMARK    8  A    between atoms: O_19  and  C_20
REMARK    9  A    between atoms: C_20  and  C_21
REMARK   10  A    between atoms: C_20  and  C_31
REMARK   11  A    between atoms: C_21  and  C_22
REMARK   12  A    between atoms: C_34  and  O_42
REMARK   13  A    between atoms: C_35  and  O_37
REMARK   14  A    between atoms: O_37  and  C_38
REMARK   15  A    between atoms: C_38  and  C_39
REMARK   16  A    between atoms: O_42  and  C_43
REMARK                            x       y       z     vdW  Elec       q    Type
REMARK                         _______ _______ _______ _____ _____    ______ ____
ROOT
ATOM      1  C   UNL     1       7.557   5.665   0.000  0.00  0.00    +0.000 C 
ENDROOT
BRANCH   1   2
ATOM      2  C   UNL     1       8.272   5.252   0.000  0.00  0.00    +0.000 A 
ATOM      3  C   UNL     1       8.986   5.665   0.000  0.00  0.00    +0.000 A 
ATOM      4  C   UNL     1       9.701   5.252   0.000  0.00  0.00    +0.000 A 
ATOM      5  C   UNL     1       9.701   4.427   0.000  0.00  0.00    +0.000 A 
ATOM      6  C   UNL     1       8.986   4.014   0.000  0.00  0.00    +0.000 A 
ATOM      7  C   UNL     1       8.272   4.427   0.000  0.00  0.00    +0.000 A 
BRANCH   6   8
ATOM      8  O   UNL     1       8.986   3.189   0.000  0.00  0.00    +0.000 OA
BRANCH   8   9
ATOM      9  C   UNL     1       9.701   2.777   0.000  0.00  0.00    +0.000 C 
BRANCH   9  10
ATOM     10  C   UNL     1       9.701   1.952   0.000  0.00  0.00    +0.000 C 
ATOM     11  C   UNL     1      10.113   1.238   0.000  0.00  0.00    +0.000 C 
ATOM     12  C   UNL     1       9.288   1.238   0.000  0.00  0.00    +0.000 C 
ENDBRANCH   9  10
ENDBRANCH   8   9
ENDBRANCH   6   8
BRANCH   5  13
ATOM     13  O   UNL     1      10.415   4.014   0.000  0.00  0.00    +0.000 OA
BRANCH  13  14
ATOM     14  C   UNL     1      11.130   4.427   0.000  0.00  0.00    +0.000 C 
ATOM     15  F   UNL     1      11.130   5.252   0.000  0.00  0.00    +0.000 F 
ATOM     16  F   UNL     1      11.844   4.014   0.000  0.00  0.00    +0.000 F 
ENDBRANCH  13  14
ENDBRANCH   5  13
ENDBRANCH   1   2
BRANCH   1  17
ATOM     17  C   UNL     1       7.557   6.489   0.000  0.00  0.00    +0.000 C 
BRANCH  17  18
ATOM     18  C   UNL     1       6.843   6.902   0.000  0.00  0.00    +0.000 A 
ATOM     19  C   UNL     1       6.128   6.489   0.000  0.00  0.00    +0.000 A 
ATOM     20  C   UNL     1       5.414   6.902   0.000  0.00  0.00    +0.000 A 
ATOM     21  N   UNL     1       5.414   7.727   0.000  0.00  0.00    +0.000 N 
ATOM     22  C   UNL     1       6.128   8.139   0.000  0.00  0.00    +0.000 A 
ATOM     23  C   UNL     1       6.843   7.727   0.000  0.00  0.00    +0.000 A 
ATOM     24 CL   UNL     1       7.557   8.139   0.000  0.00  0.00    +0.000 Cl
ATOM     25  O   UNL     1       4.699   8.139   0.000  0.00  0.00    +0.000 OA
ATOM     26 CL   UNL     1       6.128   5.665   0.000  0.00  0.00    +0.000 Cl
ENDBRANCH  17  18
ENDBRANCH   1  17
BRANCH   1  27
ATOM     27  O   UNL     1       6.843   5.252   0.000  0.00  0.00    +0.000 OA
BRANCH  27  28
ATOM     28  C   UNL     1       6.843   4.427   0.000  0.00  0.00    +0.000 C 
ATOM     29  O   UNL     1       7.557   4.014   0.000  0.00  0.00    +0.000 OA
BRANCH  28  33
ATOM     30  C   UNL     1       4.699   3.189   0.000  0.00  0.00    +0.000 A 
ATOM     31  C   UNL     1       4.699   4.014   0.000  0.00  0.00    +0.000 A 
ATOM     32  C   UNL     1       5.414   4.427   0.000  0.00  0.00    +0.000 A 
ATOM     33  C   UNL     1       6.128   4.014   0.000  0.00  0.00    +0.000 A 
ATOM     34  C   UNL     1       6.128   3.189   0.000  0.00  0.00    +0.000 A 
ATOM     35  C   UNL     1       5.414   2.777   0.000  0.00  0.00    +0.000 A 
BRANCH  35  36
ATOM     36  O   UNL     1       5.414   1.952   0.000  0.00  0.00    +0.000 OA
BRANCH  36  37
ATOM     37  C   UNL     1       6.128   1.540   0.000  0.00  0.00    +0.000 C 
BRANCH  37  38
ATOM     38  C   UNL     1       6.128   0.715   0.000  0.00  0.00    +0.000 C 
ATOM     39  C   UNL     1       6.541   0.000   0.000  0.00  0.00    +0.000 C 
ATOM     40  C   UNL     1       5.716   0.000   0.000  0.00  0.00    +0.000 C 
ENDBRANCH  37  38
ENDBRANCH  36  37
ENDBRANCH  35  36
BRANCH  30  41
ATOM     41  N   UNL     1       3.985   2.777   0.000  0.00  0.00    +0.000 NA
BRANCH  41  43
ATOM     42  C   UNL     1       3.985   1.127   0.000  0.00  0.00    +0.000 C 
ATOM     43  S   UNL     1       3.985   1.952   0.000  0.00  0.00    +0.000 S 
ATOM     44  O   UNL     1       4.810   1.952   0.000  0.00  0.00    +0.000 OA
ATOM     45  O   UNL     1       3.160   1.952   0.000  0.00  0.00    +0.000 OA
ENDBRANCH  41  43
ENDBRANCH  30  41
ENDBRANCH  28  33
ENDBRANCH  27  28
ENDBRANCH   1  27
TORSDOF 16
