REMARK  Name = 
REMARK  5 active torsions:
REMARK  status: ('A' for Active; 'I' for Inactive)
REMARK    1  A    between atoms: C_4  and  N_13
REMARK    2  A    between atoms: C_6  and  C_7
REMARK    3  A    between atoms: C_7  and  O_8
REMARK    4  A    between atoms: O_8  and  P_9
REMARK    5  A    between atoms: C_15  and  C_16
REMARK                            x       y       z     vdW  Elec       q    Type
REMARK                         _______ _______ _______ _____ _____    ______ ____
ROOT
ATOM      1  O   UNL     1       0.326  -1.574   0.000  0.00  0.00    +0.000 OA
ATOM      2  C   UNL     1      -0.159  -0.907   0.000  0.00  0.00    +0.000 C 
ATOM      3  C   UNL     1       0.096  -0.122   0.000  0.00  0.00    +0.000 C 
ATOM      4  C   UNL     1      -0.572   0.363   0.000  0.00  0.00    +0.000 C 
ATOM      5  O   UNL     1      -1.239  -0.122   0.000  0.00  0.00    +0.000 OA
ATOM      6  C   UNL     1      -0.984  -0.907   0.000  0.00  0.00    +0.000 C 
ENDROOT
BRANCH   4   7
ATOM      7  N   UNL     1      -0.572   1.188   0.000  0.00  0.00    +0.000 N 
ATOM      8  C   UNL     1       0.143   1.600   0.000  0.00  0.00    +0.000 A 
ATOM      9  C   UNL     1       0.143   2.425   0.000  0.00  0.00    +0.000 A 
ATOM     10  C   UNL     1      -0.572   2.838   0.000  0.00  0.00    +0.000 A 
ATOM     11  O   UNL     1      -0.572   3.663   0.000  0.00  0.00    +0.000 OA
ATOM     12  N   UNL     1      -1.286   2.425   0.000  0.00  0.00    +0.000 NA
ATOM     13  C   UNL     1      -1.286   1.600   0.000  0.00  0.00    +0.000 A 
ATOM     14  O   UNL     1      -2.001   1.188   0.000  0.00  0.00    +0.000 OA
BRANCH   9  15
ATOM     15  C   UNL     1       0.857   2.838   0.000  0.00  0.00    +0.000 C 
ATOM     16  C   UNL     1       1.571   2.425   0.000  0.00  0.00    +0.000 C 
ATOM     17 BR   UNL     1       2.286   2.838   0.000  0.00  0.00    +0.000 Br
ENDBRANCH   9  15
ENDBRANCH   4   7
BRANCH   6  18
ATOM     18  C   UNL     1      -1.469  -1.574   0.000  0.00  0.00    +0.000 C 
BRANCH  18  19
ATOM     19  O   UNL     1      -1.134  -2.328   0.000  0.00  0.00    +0.000 OA
BRANCH  19  20
ATOM     20  P   UNL     1      -1.619  -2.995   0.000  0.00  0.00    +0.000 P 
ATOM     21  O   UNL     1      -2.103  -3.663   0.000  0.00  0.00    +0.000 OA
ATOM     22  O   UNL     1      -0.951  -3.480   0.000  0.00  0.00    +0.000 OA
ATOM     23  O   UNL     1      -2.286  -2.510   0.000  0.00  0.00    +0.000 OA
ENDBRANCH  19  20
ENDBRANCH  18  19
ENDBRANCH   6  18
TORSDOF 5
