REMARK  Name = 
REMARK  1 active torsions:
REMARK  status: ('A' for Active; 'I' for Inactive)
REMARK    1  A    between atoms: C_15  and  N_16
REMARK                            x       y       z     vdW  Elec       q    Type
REMARK                         _______ _______ _______ _____ _____    ______ ____
ROOT
ATOM      1  C   UNL     1       6.124   0.851   0.000  0.00  0.00    +0.000 A 
ATOM      2  C   UNL     1       5.940   1.655   0.000  0.00  0.00    +0.000 A 
ATOM      3  C   UNL     1       5.152   1.899   0.000  0.00  0.00    +0.000 A 
ATOM      4  C   UNL     1       4.547   1.337   0.000  0.00  0.00    +0.000 A 
ATOM      5  C   UNL     1       4.731   0.533   0.000  0.00  0.00    +0.000 A 
ATOM      6  C   UNL     1       5.519   0.290   0.000  0.00  0.00    +0.000 A 
ATOM      7  C   UNL     1       4.216  -0.112   0.000  0.00  0.00    +0.000 C 
ATOM      8  C   UNL     1       3.391  -0.112   0.000  0.00  0.00    +0.000 C 
ATOM      9  C   UNL     1       2.877   0.533   0.000  0.00  0.00    +0.000 A 
ATOM     10  C   UNL     1       2.088   0.290   0.000  0.00  0.00    +0.000 A 
ATOM     11  C   UNL     1       1.484   0.851   0.000  0.00  0.00    +0.000 A 
ATOM     12  C   UNL     1       1.667   1.655   0.000  0.00  0.00    +0.000 A 
ATOM     13  C   UNL     1       2.456   1.899   0.000  0.00  0.00    +0.000 A 
ATOM     14  C   UNL     1       3.060   1.337   0.000  0.00  0.00    +0.000 A 
ATOM     15  C   UNL     1       3.804   1.695   0.000  0.00  0.00    +0.000 C 
ATOM     16 CL   UNL     1       2.639   2.703   0.000  0.00  0.00    +0.000 Cl
ATOM     17 CL   UNL     1       0.695   0.608   0.000  0.00  0.00    +0.000 Cl
ENDROOT
BRANCH  15  18
ATOM     18  N   UNL     1       3.804   2.520   0.000  0.00  0.00    +0.000 N 
ATOM     19  C   UNL     1       3.136   3.005   0.000  0.00  0.00    +0.000 A 
ATOM     20  C   UNL     1       3.391   3.790   0.000  0.00  0.00    +0.000 A 
ATOM     21  N   UNL     1       4.216   3.790   0.000  0.00  0.00    +0.000 NA
ATOM     22  C   UNL     1       4.471   3.005   0.000  0.00  0.00    +0.000 A 
ENDBRANCH  15  18
TORSDOF 1
