REMARK  Name = 
REMARK  5 active torsions:
REMARK  status: ('A' for Active; 'I' for Inactive)
REMARK    1  A    between atoms: C_1  and  C_2
REMARK    2  A    between atoms: C_1  and  C_8
REMARK    3  A    between atoms: C_2  and  C_9
REMARK    4  A    between atoms: C_8  and  N_24
REMARK    5  A    between atoms: C_9  and  N_26
REMARK                            x       y       z     vdW  Elec       q    Type
REMARK                         _______ _______ _______ _____ _____    ______ ____
ROOT
ATOM      1  C   UNL     1      -1.409   0.808   0.000  0.00  0.00    +0.000 C 
ENDROOT
BRANCH   1   2
ATOM      2  C   UNL     1      -0.584   0.808   0.000  0.00  0.00    +0.000 C 
BRANCH   2   3
ATOM      3  C   UNL     1      -0.171   1.523   0.000  0.00  0.00    +0.000 C 
BRANCH   3  13
ATOM      4  C   UNL     1       3.352   1.935   0.000  0.00  0.00    +0.000 C 
ATOM      5  C   UNL     1       3.352   1.110   0.000  0.00  0.00    +0.000 C 
ATOM      6  C   UNL     1       2.844   1.523   0.000  0.00  0.00    +0.000 C 
ATOM      7  C   UNL     1       2.638   2.348   0.000  0.00  0.00    +0.000 C 
ATOM      8  C   UNL     1       2.638   0.698   0.000  0.00  0.00    +0.000 C 
ATOM      9  C   UNL     1       1.923   1.935   0.000  0.00  0.00    +0.000 C 
ATOM     10  C   UNL     1       1.923   1.110   0.000  0.00  0.00    +0.000 C 
ATOM     11  C   UNL     1       1.139   2.190   0.000  0.00  0.00    +0.000 C 
ATOM     12  C   UNL     1       1.139   0.856   0.000  0.00  0.00    +0.000 C 
ATOM     13  N   UNL     1       0.654   1.523   0.000  0.00  0.00    +0.000 N 
ATOM     14  O   UNL     1       0.884   2.975   0.000  0.00  0.00    +0.000 OA
ATOM     15  O   UNL     1       0.884   0.071   0.000  0.00  0.00    +0.000 OA
ENDBRANCH   3  13
ENDBRANCH   2   3
ENDBRANCH   1   2
BRANCH   1  16
ATOM     16  C   UNL     1      -1.821   0.094   0.000  0.00  0.00    +0.000 C 
BRANCH  16  27
ATOM     17  C   UNL     1      -6.771   0.094   0.000  0.00  0.00    +0.000 A 
ATOM     18  C   UNL     1      -6.359  -0.621   0.000  0.00  0.00    +0.000 A 
ATOM     19  C   UNL     1      -6.359   0.808   0.000  0.00  0.00    +0.000 A 
ATOM     20  C   UNL     1      -3.059   0.808   0.000  0.00  0.00    +0.000 C 
ATOM     21  C   UNL     1      -3.059  -0.621   0.000  0.00  0.00    +0.000 C 
ATOM     22  C   UNL     1      -3.884   0.808   0.000  0.00  0.00    +0.000 C 
ATOM     23  C   UNL     1      -3.884  -0.621   0.000  0.00  0.00    +0.000 C 
ATOM     24  C   UNL     1      -5.121   0.094   0.000  0.00  0.00    +0.000 A 
ATOM     25  N   UNL     1      -5.534  -0.621   0.000  0.00  0.00    +0.000 NA
ATOM     26  N   UNL     1      -5.534   0.808   0.000  0.00  0.00    +0.000 NA
ATOM     27  N   UNL     1      -2.646   0.094   0.000  0.00  0.00    +0.000 NA
ATOM     28  N   UNL     1      -4.296   0.094   0.000  0.00  0.00    +0.000 N 
ENDBRANCH  16  27
ENDBRANCH   1  16
TORSDOF 5
