REMARK  Name = 
REMARK  7 active torsions:
REMARK  status: ('A' for Active; 'I' for Inactive)
REMARK    1  A    between atoms: C_3  and  N_18
REMARK    2  A    between atoms: C_6  and  C_7
REMARK    3  A    between atoms: C_6  and  N_18
REMARK    4  A    between atoms: C_11  and  N_18
REMARK    5  A    between atoms: C_12  and  N_16
REMARK    6  A    between atoms: C_13  and  N_19
REMARK    7  A    between atoms: C_14  and  N_17
REMARK                            x       y       z     vdW  Elec       q    Type
REMARK                         _______ _______ _______ _____ _____    ______ ____
ROOT
ATOM      1  C   UNL     1       0.310  -0.443   0.000  0.00  0.00    +0.000 C 
ATOM      2  C   UNL     1       0.310   2.031   0.000  0.00  0.00    +0.000 A 
ATOM      3  C   UNL     1      -0.404   1.619   0.000  0.00  0.00    +0.000 A 
ATOM      4  C   UNL     1       1.025   0.794   0.000  0.00  0.00    +0.000 A 
ATOM      5  C   UNL     1       0.310   0.382   0.000  0.00  0.00    +0.000 A 
ATOM      6  C   UNL     1       1.025   1.619   0.000  0.00  0.00    +0.000 A 
ATOM      7  C   UNL     1      -0.404   0.794   0.000  0.00  0.00    +0.000 A 
ENDROOT
BRANCH   7   8
ATOM      8  N   UNL     1      -1.119   0.382   0.000  0.00  0.00    +0.000 NA
ATOM      9  N   UNL     1      -1.119  -0.443   0.000  0.00  0.00    +0.000 NA
BRANCH   9  12
ATOM     10  C   UNL     1      -3.139  -1.133   0.000  0.00  0.00    +0.000 A 
ATOM     11  C   UNL     1      -2.726  -1.848   0.000  0.00  0.00    +0.000 A 
ATOM     12  C   UNL     1      -1.833  -0.856   0.000  0.00  0.00    +0.000 A 
ATOM     13  N   UNL     1      -2.587  -0.520   0.000  0.00  0.00    +0.000 NA
ATOM     14  S   UNL     1      -1.919  -1.676   0.000  0.00  0.00    +0.000 S 
BRANCH  11  15
ATOM     15  N   UNL     1      -3.062  -2.602   0.000  0.00  0.00    +0.000 N 
ATOM     16  O   UNL     1      -2.577  -3.269   0.000  0.00  0.00    +0.000 OA
ATOM     17  O   UNL     1      -3.882  -2.688   0.000  0.00  0.00    +0.000 OA
ENDBRANCH  11  15
ENDBRANCH   9  12
ENDBRANCH   7   8
BRANCH   6  18
ATOM     18  N   UNL     1       1.739   2.031   0.000  0.00  0.00    +0.000 N 
BRANCH  18  20
ATOM     19  C   UNL     1       2.454   3.269   0.000  0.00  0.00    +0.000 C 
ATOM     20  C   UNL     1       1.739   2.857   0.000  0.00  0.00    +0.000 C 
ENDBRANCH  18  20
BRANCH  18  21
ATOM     21  C   UNL     1       2.454   1.619   0.000  0.00  0.00    +0.000 C 
BRANCH  21  22
ATOM     22  C   UNL     1       3.168   2.031   0.000  0.00  0.00    +0.000 C 
ATOM     23  O   UNL     1       3.882   1.619   0.000  0.00  0.00    +0.000 OA
ENDBRANCH  21  22
ENDBRANCH  18  21
ENDBRANCH   6  18
TORSDOF 7
