REMARK  Name = 
REMARK  6 active torsions:
REMARK  status: ('A' for Active; 'I' for Inactive)
REMARK    1  A    between atoms: C_7  and  C_8
REMARK    2  A    between atoms: C_8  and  C_9
REMARK    3  A    between atoms: C_9  and  C_10
REMARK    4  A    between atoms: C_15  and  N_16
REMARK    5  A    between atoms: C_17  and  C_19
REMARK    6  A    between atoms: C_20  and  C_21
REMARK                            x       y       z     vdW  Elec       q    Type
REMARK                         _______ _______ _______ _____ _____    ______ ____
ROOT
ATOM      1  C   UNL     1       3.572  -1.238   0.000  0.00  0.00    +0.000 A 
ATOM      2  C   UNL     1       2.858  -1.650   0.000  0.00  0.00    +0.000 A 
ATOM      3  C   UNL     1       2.143  -1.238   0.000  0.00  0.00    +0.000 A 
ATOM      4  C   UNL     1       2.143  -0.412   0.000  0.00  0.00    +0.000 A 
ATOM      5  C   UNL     1       2.858   0.000   0.000  0.00  0.00    +0.000 A 
ATOM      6  C   UNL     1       3.572  -0.412   0.000  0.00  0.00    +0.000 A 
ENDROOT
BRANCH   6   7
ATOM      7  N   UNL     1       4.287   0.000   0.000  0.00  0.00    +0.000 NA
ATOM      8  C   UNL     1       4.287   0.825   0.000  0.00  0.00    +0.000 C 
ATOM      9  O   UNL     1       3.572   1.238   0.000  0.00  0.00    +0.000 OA
BRANCH   8  10
ATOM     10  C   UNL     1       5.001   1.238   0.000  0.00  0.00    +0.000 C 
ATOM     11  C   UNL     1       5.001   2.062   0.000  0.00  0.00    +0.000 C 
BRANCH  11  12
ATOM     12  C   UNL     1       5.716   2.475   0.000  0.00  0.00    +0.000 A 
ATOM     13  C   UNL     1       5.716   3.300   0.000  0.00  0.00    +0.000 A 
ATOM     14  C   UNL     1       6.430   3.712   0.000  0.00  0.00    +0.000 A 
ATOM     15  C   UNL     1       7.145   3.300   0.000  0.00  0.00    +0.000 A 
ATOM     16  C   UNL     1       7.145   2.475   0.000  0.00  0.00    +0.000 A 
ATOM     17  C   UNL     1       6.430   2.062   0.000  0.00  0.00    +0.000 A 
ENDBRANCH  11  12
ENDBRANCH   8  10
ENDBRANCH   6   7
BRANCH   1  18
ATOM     18  C   UNL     1       4.287  -1.650   0.000  0.00  0.00    +0.000 C 
BRANCH  18  19
ATOM     19  C   UNL     1       4.287  -2.475   0.000  0.00  0.00    +0.000 C 
BRANCH  19  26
ATOM     20  C   UNL     1       5.716  -1.650   0.000  0.00  0.00    +0.000 C 
ATOM     21  N   UNL     1       5.716  -2.475   0.000  0.00  0.00    +0.000 NA
ATOM     22  C   UNL     1       6.430  -2.888   0.000  0.00  0.00    +0.000 C 
ATOM     23  C   UNL     1       6.430  -3.712   0.000  0.00  0.00    +0.000 C 
ATOM     24  C   UNL     1       5.716  -4.125   0.000  0.00  0.00    +0.000 C 
ATOM     25  C   UNL     1       5.001  -3.712   0.000  0.00  0.00    +0.000 C 
ATOM     26  C   UNL     1       5.001  -2.888   0.000  0.00  0.00    +0.000 C 
ENDBRANCH  19  26
ENDBRANCH  18  19
ENDBRANCH   1  18
TORSDOF 6
