REMARK  Name = 
REMARK  8 active torsions:
REMARK  status: ('A' for Active; 'I' for Inactive)
REMARK    1  A    between atoms: C_1  and  C_7
REMARK    2  A    between atoms: C_5  and  O_11
REMARK    3  A    between atoms: O_11  and  C_12
REMARK    4  A    between atoms: C_12  and  C_13
REMARK    5  A    between atoms: C_12  and  C_17
REMARK    6  A    between atoms: C_13  and  C_14
REMARK    7  A    between atoms: C_14  and  C_15
REMARK    8  A    between atoms: C_17  and  C_18
REMARK                            x       y       z     vdW  Elec       q    Type
REMARK                         _______ _______ _______ _____ _____    ______ ____
ROOT
ATOM      1  O   UNL     1       0.400   0.209   0.000  0.00  0.00    +0.000 OA
ENDROOT
BRANCH   1   6
ATOM      2  C   UNL     1      -1.775  -0.209   0.000  0.00  0.00    +0.000 C 
ATOM      3  C   UNL     1      -1.775  -1.046   0.000  0.00  0.00    +0.000 C 
ATOM      4  C   UNL     1      -1.064  -1.464   0.000  0.00  0.00    +0.000 C 
ATOM      5  C   UNL     1      -0.353  -1.046   0.000  0.00  0.00    +0.000 C 
ATOM      6  C   UNL     1      -0.353  -0.209   0.000  0.00  0.00    +0.000 C 
ATOM      7  O   UNL     1      -1.064   0.209   0.000  0.00  0.00    +0.000 OA
ATOM      8  O   UNL     1       0.400  -1.464   0.000  0.00  0.00    +0.000 OA
ATOM      9  O   UNL     1      -2.528  -1.464   0.000  0.00  0.00    +0.000 OA
ATOM     10  O   UNL     1      -1.064  -2.300   0.000  0.00  0.00    +0.000 OA
BRANCH   2  11
ATOM     11  C   UNL     1      -2.528   0.209   0.000  0.00  0.00    +0.000 C 
ATOM     12  O   UNL     1      -3.244  -0.220   0.000  0.00  0.00    +0.000 OA
ENDBRANCH   2  11
ENDBRANCH   1   6
BRANCH   1  13
ATOM     13  C   UNL     1       0.358   1.046   0.000  0.00  0.00    +0.000 C 
BRANCH  13  14
ATOM     14  C   UNL     1       1.111   1.464   0.000  0.00  0.00    +0.000 C 
ATOM     15  O   UNL     1       1.111   2.300   0.000  0.00  0.00    +0.000 OA
BRANCH  14  16
ATOM     16  C   UNL     1       1.822   1.046   0.000  0.00  0.00    +0.000 C 
ATOM     17  O   UNL     1       1.822   0.209   0.000  0.00  0.00    +0.000 OA
BRANCH  16  18
ATOM     18  C   UNL     1       2.533   1.464   0.000  0.00  0.00    +0.000 C 
ATOM     19  O   UNL     1       3.244   1.046   0.000  0.00  0.00    +0.000 OA
ENDBRANCH  16  18
ENDBRANCH  14  16
ENDBRANCH  13  14
BRANCH  13  20
ATOM     20  C   UNL     1      -0.353   1.464   0.000  0.00  0.00    +0.000 C 
ATOM     21  O   UNL     1      -0.353   2.300   0.000  0.00  0.00    +0.000 OA
BRANCH  20  22
ATOM     22  C   UNL     1      -1.064   1.046   0.000  0.00  0.00    +0.000 C 
ATOM     23  O   UNL     1      -1.775   1.464   0.000  0.00  0.00    +0.000 OA
ENDBRANCH  20  22
ENDBRANCH  13  20
ENDBRANCH   1  13
TORSDOF 8
