REMARK  Name = 
REMARK  13 active torsions:
REMARK  status: ('A' for Active; 'I' for Inactive)
REMARK    1  A    between atoms: C_5  and  O_11
REMARK    2  A    between atoms: C_7  and  N_8
REMARK    3  A    between atoms: O_11  and  C_12
REMARK    4  A    between atoms: C_13  and  N_33
REMARK    5  A    between atoms: C_16  and  O_19
REMARK    6  A    between atoms: O_19  and  C_20
REMARK    7  A    between atoms: C_24  and  C_26
REMARK    8  A    between atoms: C_26  and  N_27
REMARK    9  A    between atoms: N_27  and  C_28
REMARK   10  A    between atoms: C_28  and  C_29
REMARK   11  A    between atoms: C_34  and  C_36
REMARK   12  A    between atoms: C_36  and  C_37
REMARK   13  A    between atoms: C_37  and  C_38
REMARK                            x       y       z     vdW  Elec       q    Type
REMARK                         _______ _______ _______ _____ _____    ______ ____
ROOT
ATOM      1  C   UNL     1       2.858  -1.650   0.000  0.00  0.00    +0.000 C 
ATOM      2  C   UNL     1       2.858  -2.475   0.000  0.00  0.00    +0.000 C 
ATOM      3  C   UNL     1       2.143  -2.888   0.000  0.00  0.00    +0.000 C 
ATOM      4  C   UNL     1       1.429  -2.475   0.000  0.00  0.00    +0.000 C 
ATOM      5  C   UNL     1       1.429  -1.650   0.000  0.00  0.00    +0.000 C 
ATOM      6  C   UNL     1       2.143  -1.238   0.000  0.00  0.00    +0.000 C 
ATOM      7  O   UNL     1       2.143  -0.412   0.000  0.00  0.00    +0.000 OA
ATOM      8  N   UNL     1       0.715  -2.888   0.000  0.00  0.00    +0.000 NA
ENDROOT
BRANCH   2   9
ATOM      9  N   UNL     1       3.572  -2.888   0.000  0.00  0.00    +0.000 NA
ATOM     10  C   UNL     1       4.287  -2.475   0.000  0.00  0.00    +0.000 C 
ATOM     11  O   UNL     1       4.287  -1.650   0.000  0.00  0.00    +0.000 OA
BRANCH  10  12
ATOM     12  C   UNL     1       5.001  -2.888   0.000  0.00  0.00    +0.000 C 
ATOM     13  O   UNL     1       5.001  -3.712   0.000  0.00  0.00    +0.000 OA
BRANCH  12  14
ATOM     14  C   UNL     1       5.716  -2.475   0.000  0.00  0.00    +0.000 C 
BRANCH  14  15
ATOM     15  C   UNL     1       6.430  -2.888   0.000  0.00  0.00    +0.000 C 
ATOM     16  N   UNL     1       7.145  -2.475   0.000  0.00  0.00    +0.000 NA
ENDBRANCH  14  15
ENDBRANCH  12  14
ENDBRANCH  10  12
ENDBRANCH   2   9
BRANCH   1  17
ATOM     17  O   UNL     1       3.572  -1.238   0.000  0.00  0.00    +0.000 OA
BRANCH  17  22
ATOM     18  C   UNL     1       4.103   1.869   0.000  0.00  0.00    +0.000 C 
ATOM     19  C   UNL     1       3.572   1.238   0.000  0.00  0.00    +0.000 C 
ATOM     20  C   UNL     1       2.858   0.825   0.000  0.00  0.00    +0.000 C 
ATOM     21  O   UNL     1       2.858   0.000   0.000  0.00  0.00    +0.000 OA
ATOM     22  C   UNL     1       3.572  -0.412   0.000  0.00  0.00    +0.000 C 
ATOM     23  C   UNL     1       4.287   0.000   0.000  0.00  0.00    +0.000 C 
ATOM     24  C   UNL     1       4.287   0.825   0.000  0.00  0.00    +0.000 C 
ATOM     25  O   UNL     1       5.001  -0.412   0.000  0.00  0.00    +0.000 OA
ATOM     26  O   UNL     1       3.042   1.869   0.000  0.00  0.00    +0.000 OA
BRANCH  24  27
ATOM     27  N   UNL     1       5.001   1.238   0.000  0.00  0.00    +0.000 NA
ATOM     28  C   UNL     1       5.001   2.062   0.000  0.00  0.00    +0.000 C 
ENDBRANCH  24  27
ENDBRANCH  17  22
ENDBRANCH   1  17
BRANCH   5  29
ATOM     29  O   UNL     1       0.715  -1.238   0.000  0.00  0.00    +0.000 OA
BRANCH  29  30
ATOM     30  C   UNL     1       0.715  -0.412   0.000  0.00  0.00    +0.000 C 
ATOM     31  C   UNL     1       0.000   0.000   0.000  0.00  0.00    +0.000 C 
ATOM     32  C   UNL     1       0.000   0.825   0.000  0.00  0.00    +0.000 C 
ATOM     33  C   UNL     1       0.715   1.238   0.000  0.00  0.00    +0.000 C 
ATOM     34  C   UNL     1       1.429   0.825   0.000  0.00  0.00    +0.000 C 
ATOM     35  O   UNL     1       1.429   0.000   0.000  0.00  0.00    +0.000 OA
ATOM     36  N   UNL     1      -0.715  -0.412   0.000  0.00  0.00    +0.000 NA
BRANCH  34  37
ATOM     37  C   UNL     1       2.143   1.238   0.000  0.00  0.00    +0.000 C 
BRANCH  37  38
ATOM     38  N   UNL     1       2.143   2.062   0.000  0.00  0.00    +0.000 NA
BRANCH  38  39
ATOM     39  C   UNL     1       2.858   2.475   0.000  0.00  0.00    +0.000 C 
BRANCH  39  40
ATOM     40  C   UNL     1       2.858   3.300   0.000  0.00  0.00    +0.000 C 
ATOM     41  O   UNL     1       2.143   3.712   0.000  0.00  0.00    +0.000 OA
ENDBRANCH  39  40
ENDBRANCH  38  39
ENDBRANCH  37  38
ENDBRANCH  34  37
ENDBRANCH  29  30
ENDBRANCH   5  29
TORSDOF 13
