REMARK  Name = 
REMARK  22 active torsions:
REMARK  status: ('A' for Active; 'I' for Inactive)
REMARK    1  A    between atoms: N_10  and  CA_19
REMARK    2  A    between atoms: N_11  and  CA_23
REMARK    3  A    between atoms: N_12  and  CA_20
REMARK    4  A    between atoms: N_13  and  CA_34
REMARK    5  A    between atoms: NE_16  and  CD_41
REMARK    6  A    between atoms: CA_19  and  CB_21
REMARK    7  A    between atoms: CA_19  and  C_27
REMARK    8  A    between atoms: CA_20  and  CB_22
REMARK    9  A    between atoms: CA_20  and  C_25
REMARK   10  A    between atoms: CB_22  and  CG_24
REMARK   11  A    between atoms: CA_23  and  C_26
REMARK   12  A    between atoms: CA_23  and  CB_31
REMARK   13  A    between atoms: CG_24  and  CD_28
REMARK   14  A    between atoms: CD_28  and  CE_36
REMARK   15  A    between atoms: CB_31  and  CG_39
REMARK   16  A    between atoms: CA_32  and  C_33
REMARK   17  A    between atoms: CA_32  and  CB_35
REMARK   18  A    between atoms: CA_34  and  CB_37
REMARK   19  A    between atoms: CA_34  and  C_42
REMARK   20  A    between atoms: CB_35  and  CG_38
REMARK   21  A    between atoms: CB_37  and  CG_40
REMARK   22  A    between atoms: CG_38  and  CD_41
REMARK                            x       y       z     vdW  Elec       q    Type
REMARK                         _______ _______ _______ _____ _____    ______ ____
ROOT
ATOM      1  CA  ASP A   3      -0.357   0.825   0.000  0.00  0.00    +0.000 C 
ENDROOT
BRANCH   1   4
ATOM      2  O   ASP A   3      -1.072  -0.412   0.000  0.00  0.00    +0.000 OA
ATOM      3  N   VAL A   4      -1.786   0.825   0.000  0.00  0.00    +0.000 NA
ATOM      4  C   ASP A   3      -1.072   0.412   0.000  0.00  0.00    +0.000 C 
BRANCH   3   5
ATOM      5  CA  VAL A   4      -2.501   0.412   0.000  0.00  0.00    +0.000 C 
BRANCH   5   8
ATOM      6  O   VAL A   4      -3.215   1.650   0.000  0.00  0.00    +0.000 OA
ATOM      7  N   TYR A   5      -3.930   0.412   0.000  0.00  0.00    +0.000 NA
ATOM      8  C   VAL A   4      -3.215   0.825   0.000  0.00  0.00    +0.000 C 
BRANCH   7   9
ATOM      9  CA  TYR A   5      -4.644   0.825   0.000  0.00  0.00    +0.000 C 
BRANCH   9  12
ATOM     10  O   TYR A   5      -5.359   2.062   0.000  0.00  0.00    +0.000 OA
ATOM     11  OXT TYR A   5      -3.930   2.062   0.000  0.00  0.00    +0.000 OA
ATOM     12  C   TYR A   5      -4.644   1.650   0.000  0.00  0.00    +0.000 C 
ENDBRANCH   9  12
BRANCH   9  13
ATOM     13  CB  TYR A   5      -5.359   0.412   0.000  0.00  0.00    +0.000 C 
BRANCH  13  15
ATOM     14  OH  TYR A   5      -8.216   2.062   0.000  0.00  0.00    +0.000 OA
ATOM     15  CG  TYR A   5      -6.073   0.825   0.000  0.00  0.00    +0.000 A 
ATOM     16  CD1 TYR A   5      -6.787   0.412   0.000  0.00  0.00    +0.000 A 
ATOM     17  CD2 TYR A   5      -6.073   1.650   0.000  0.00  0.00    +0.000 A 
ATOM     18  CE1 TYR A   5      -7.502   0.825   0.000  0.00  0.00    +0.000 A 
ATOM     19  CE2 TYR A   5      -6.787   2.062   0.000  0.00  0.00    +0.000 A 
ATOM     20  CZ  TYR A   5      -7.502   1.650   0.000  0.00  0.00    +0.000 A 
ENDBRANCH  13  15
ENDBRANCH   9  13
ENDBRANCH   7   9
ENDBRANCH   5   8
BRANCH   5  21
ATOM     21  CB  VAL A   4      -2.501  -0.412   0.000  0.00  0.00    +0.000 C 
ATOM     22  CG1 VAL A   4      -3.215  -0.825   0.000  0.00  0.00    +0.000 C 
ATOM     23  CG2 VAL A   4      -1.786  -0.825   0.000  0.00  0.00    +0.000 C 
ENDBRANCH   5  21
ENDBRANCH   3   5
ENDBRANCH   1   4
BRANCH   1  25
ATOM     24  O   LYS A   2       1.072   1.650   0.000  0.00  0.00    +0.000 OA
ATOM     25  N   ASP A   3       0.357   0.412   0.000  0.00  0.00    +0.000 NA
ATOM     26  C   LYS A   2       1.072   0.825   0.000  0.00  0.00    +0.000 C 
BRANCH  26  27
ATOM     27  CA  LYS A   2       1.786   0.412   0.000  0.00  0.00    +0.000 C 
BRANCH  27  29
ATOM     28  O   ARG A   1       3.215  -0.412   0.000  0.00  0.00    +0.000 OA
ATOM     29  N   LYS A   2       2.501   0.825   0.000  0.00  0.00    +0.000 NA
ATOM     30  C   ARG A   1       3.215   0.412   0.000  0.00  0.00    +0.000 C 
BRANCH  30  32
ATOM     31  N   ARG A   1       3.930   1.650   0.000  0.00  0.00    +0.000 NA
ATOM     32  CA  ARG A   1       3.930   0.825   0.000  0.00  0.00    +0.000 C 
BRANCH  32  33
ATOM     33  CB  ARG A   1       4.644   0.412   0.000  0.00  0.00    +0.000 C 
BRANCH  33  34
ATOM     34  CG  ARG A   1       5.359   0.825   0.000  0.00  0.00    +0.000 C 
BRANCH  34  35
ATOM     35  CD  ARG A   1       6.073   0.412   0.000  0.00  0.00    +0.000 C 
BRANCH  35  36
ATOM     36  NE  ARG A   1       6.787   0.825   0.000  0.00  0.00    +0.000 NA
ATOM     37  NH1 ARG A   1       8.216   0.825   0.000  0.00  0.00    +0.000 NA
ATOM     38  NH2 ARG A   1       7.502  -0.412   0.000  0.00  0.00    +0.000 NA
ATOM     39  CZ  ARG A   1       7.502   0.412   0.000  0.00  0.00    +0.000 C 
ENDBRANCH  35  36
ENDBRANCH  34  35
ENDBRANCH  33  34
ENDBRANCH  32  33
ENDBRANCH  30  32
ENDBRANCH  27  29
BRANCH  27  40
ATOM     40  CB  LYS A   2       1.786  -0.412   0.000  0.00  0.00    +0.000 C 
BRANCH  40  41
ATOM     41  CG  LYS A   2       2.501  -0.825   0.000  0.00  0.00    +0.000 C 
BRANCH  41  42
ATOM     42  CD  LYS A   2       2.501  -1.650   0.000  0.00  0.00    +0.000 C 
BRANCH  42  44
ATOM     43  NZ  LYS A   2       3.215  -2.888   0.000  0.00  0.00    +0.000 NA
ATOM     44  CE  LYS A   2       3.215  -2.062   0.000  0.00  0.00    +0.000 C 
ENDBRANCH  42  44
ENDBRANCH  41  42
ENDBRANCH  40  41
ENDBRANCH  27  40
ENDBRANCH  26  27
ENDBRANCH   1  25
BRANCH   1  45
ATOM     45  CB  ASP A   3      -0.357   1.650   0.000  0.00  0.00    +0.000 C 
BRANCH  45  48
ATOM     46  OD1 ASP A   3      -1.786   1.650   0.000  0.00  0.00    +0.000 OA
ATOM     47  OD2 ASP A   3      -1.072   2.887   0.000  0.00  0.00    +0.000 OA
ATOM     48  CG  ASP A   3      -1.072   2.062   0.000  0.00  0.00    +0.000 C 
ENDBRANCH  45  48
ENDBRANCH   1  45
TORSDOF 22
