REMARK  Name = 
REMARK  6 active torsions:
REMARK  status: ('A' for Active; 'I' for Inactive)
REMARK    1  A    between atoms: CG1_2  and  CB_3
REMARK    2  A    between atoms: CB_3  and  CA_5
REMARK    3  A    between atoms: C_9  and  C_28
REMARK    4  A    between atoms: N_12  and  C_13
REMARK    5  A    between atoms: C_13  and  C_14
REMARK    6  A    between atoms: C_13  and  C_20
REMARK                            x       y       z     vdW  Elec       q    Type
REMARK                         _______ _______ _______ _____ _____    ______ ____
ROOT
ATOM      1  CA  ILE A   2      -1.821  -0.698   0.000  0.00  0.00    +0.000 C 
ATOM      2  C   ILE A   2      -1.409  -1.412   0.000  0.00  0.00    +0.000 C 
ATOM      3  O   ILE A   2      -1.821  -2.127   0.000  0.00  0.00    +0.000 OA
ATOM      4  N   UNK A   1      -0.584  -1.412   0.000  0.00  0.00    +0.000 NA
ATOM      5  C   UNK A   1      -0.171  -0.698   0.000  0.00  0.00    +0.000 C 
ATOM      6  C   UNK A   1      -0.584   0.017   0.000  0.00  0.00    +0.000 C 
ATOM      7  O   UNK A   1      -0.171   0.731   0.000  0.00  0.00    +0.000 OA
ATOM      8  N   ILE A   2      -1.409   0.017   0.000  0.00  0.00    +0.000 N 
ENDROOT
BRANCH   5   9
ATOM      9  C   UNK A   1       0.654  -0.698   0.000  0.00  0.00    +0.000 C 
ATOM     10  C   UNK A   1       1.139  -0.030   0.000  0.00  0.00    +0.000 C 
ATOM     11  C   UNK A   1       1.923  -0.285   0.000  0.00  0.00    +0.000 A 
ATOM     12  C   UNK A   1       2.638   0.127   0.000  0.00  0.00    +0.000 A 
ATOM     13  C   UNK A   1       3.352  -0.285   0.000  0.00  0.00    +0.000 A 
ATOM     14  C   UNK A   1       3.352  -1.110   0.000  0.00  0.00    +0.000 A 
ATOM     15  C   UNK A   1       2.638  -1.523   0.000  0.00  0.00    +0.000 A 
ATOM     16  C   UNK A   1       1.923  -1.110   0.000  0.00  0.00    +0.000 A 
ATOM     17  C   UNK A   1       1.139  -1.365   0.000  0.00  0.00    +0.000 C 
ENDBRANCH   5   9
BRANCH   1  18
ATOM     18  CB  ILE A   2      -2.646  -0.698   0.000  0.00  0.00    +0.000 C 
ATOM     19  CG2 ILE A   2      -3.400  -0.362   0.000  0.00  0.00    +0.000 C 
BRANCH  18  21
ATOM     20  CD1 ILE A   2      -3.884  -1.412   0.000  0.00  0.00    +0.000 C 
ATOM     21  CG1 ILE A   2      -3.059  -1.412   0.000  0.00  0.00    +0.000 C 
ENDBRANCH  18  21
ENDBRANCH   1  18
BRANCH   8  22
ATOM     22  C   UNK A   0      -1.821   0.731   0.000  0.00  0.00    +0.000 C 
BRANCH  22  23
ATOM     23  C   UNK A   0      -1.409   1.446   0.000  0.00  0.00    +0.000 C 
ATOM     24  O   UNK A   0      -0.584   1.446   0.000  0.00  0.00    +0.000 OA
ATOM     25  N   UNK A   0      -1.821   2.160   0.000  0.00  0.00    +0.000 N 
ATOM     26  C   UNK A   0      -2.646   2.160   0.000  0.00  0.00    +0.000 C 
ATOM     27  C   UNK A   0      -3.059   2.874   0.000  0.00  0.00    +0.000 C 
ATOM     28  O   UNK A   0      -2.646   3.589   0.000  0.00  0.00    +0.000 OA
ATOM     29  C   UNK A   0      -1.821   3.589   0.000  0.00  0.00    +0.000 C 
ATOM     30  C   UNK A   0      -1.409   2.874   0.000  0.00  0.00    +0.000 C 
ENDBRANCH  22  23
BRANCH  22  31
ATOM     31  C   UNK A   0      -2.646   0.731   0.000  0.00  0.00    +0.000 A 
ATOM     32  C   UNK A   0      -3.131   0.064   0.000  0.00  0.00    +0.000 A 
ATOM     33  O   UNK A   0      -3.916   0.319   0.000  0.00  0.00    +0.000 OA
ATOM     34  C   UNK A   0      -3.916   1.143   0.000  0.00  0.00    +0.000 A 
ATOM     35  N   UNK A   0      -3.131   1.398   0.000  0.00  0.00    +0.000 NA
ATOM     36  C   UNK A   0      -4.583   1.628   0.000  0.00  0.00    +0.000 C 
ENDBRANCH  22  31
ENDBRANCH   8  22
TORSDOF 6
