REMARK  Name = 
REMARK  6 active torsions:
REMARK  status: ('A' for Active; 'I' for Inactive)
REMARK    1  A    between atoms: N_2  and  C_4
REMARK    2  A    between atoms: C_4  and  C_5
REMARK    3  A    between atoms: C_5  and  C_6
REMARK    4  A    between atoms: C_6  and  N_7
REMARK    5  A    between atoms: C_11  and  N_25
REMARK    6  A    between atoms: C_18  and  O_23
REMARK                            x       y       z     vdW  Elec       q    Type
REMARK                         _______ _______ _______ _____ _____    ______ ____
ROOT
ATOM      1  N   UNL     1      -0.292  -1.173   0.000  0.00  0.00    +0.000 N 
ATOM      2  C   UNL     1      -0.587  -0.403   0.000  0.00  0.00    +0.000 A 
ATOM      3  C   UNL     1      -1.356  -0.106   0.000  0.00  0.00    +0.000 A 
ATOM      4  C   UNL     1      -1.484   0.709   0.000  0.00  0.00    +0.000 A 
ATOM      5  C   UNL     1      -0.842   1.228   0.000  0.00  0.00    +0.000 A 
ATOM      6  C   UNL     1      -0.073   0.931   0.000  0.00  0.00    +0.000 A 
ATOM      7  C   UNL     1       0.055   0.116   0.000  0.00  0.00    +0.000 A 
ATOM      8  C   UNL     1       0.747  -0.335   0.000  0.00  0.00    +0.000 A 
ATOM      9  N   UNL     1       0.532  -1.131   0.000  0.00  0.00    +0.000 NA
ATOM     10  C   UNL     1       1.482   0.039   0.000  0.00  0.00    +0.000 A 
ATOM     11  C   UNL     1       2.174  -0.411   0.000  0.00  0.00    +0.000 A 
ATOM     12  C   UNL     1       2.909  -0.038   0.000  0.00  0.00    +0.000 A 
ATOM     13  C   UNL     1       2.953   0.786   0.000  0.00  0.00    +0.000 A 
ATOM     14  C   UNL     1       2.262   1.236   0.000  0.00  0.00    +0.000 A 
ATOM     15  C   UNL     1       1.526   0.863   0.000  0.00  0.00    +0.000 A 
ATOM     16  N   UNL     1       0.835   1.313   0.000  0.00  0.00    +0.000 NA
ENDROOT
BRANCH   5  17
ATOM     17  N   UNL     1      -0.970   2.042   0.000  0.00  0.00    +0.000 N 
ATOM     18  O   UNL     1      -0.328   2.561   0.000  0.00  0.00    +0.000 OA
ATOM     19  O   UNL     1      -1.740   2.339   0.000  0.00  0.00    +0.000 OA
ENDBRANCH   5  17
BRANCH  12  20
ATOM     20  O   UNL     1       3.600  -0.488   0.000  0.00  0.00    +0.000 OA
ATOM     21  C   UNL     1       4.336  -0.115   0.000  0.00  0.00    +0.000 C 
ENDBRANCH  12  20
BRANCH   1  22
ATOM     22  C   UNL     1      -0.742  -1.864   0.000  0.00  0.00    +0.000 C 
BRANCH  22  23
ATOM     23  C   UNL     1      -1.566  -1.820   0.000  0.00  0.00    +0.000 C 
BRANCH  23  24
ATOM     24  C   UNL     1      -2.016  -2.511   0.000  0.00  0.00    +0.000 C 
BRANCH  24  26
ATOM     25  C   UNL     1      -3.291  -3.158   0.000  0.00  0.00    +0.000 C 
ATOM     26  N   UNL     1      -2.840  -2.467   0.000  0.00  0.00    +0.000 NA
ATOM     27  C   UNL     1      -3.214  -1.731   0.000  0.00  0.00    +0.000 C 
ENDBRANCH  24  26
ENDBRANCH  23  24
ENDBRANCH  22  23
ENDBRANCH   1  22
TORSDOF 6
