REMARK  Name = 
REMARK  0 active torsions:
REMARK  status: ('A' for Active; 'I' for Inactive)
REMARK                            x       y       z     vdW  Elec       q    Type
REMARK                         _______ _______ _______ _____ _____    ______ ____
ROOT
ATOM      1 CO   UNL     1       6.990  -5.660   0.000  0.00  0.00    +0.000 Co
ATOM      2  N   UNL     1       6.990  -4.626   0.000  0.00  0.00    +0.000 NA
ATOM      3  N   UNL     1       6.990  -6.599   0.000  0.00  0.00    +0.000 NA
ATOM      4  N   UNL     1       7.737  -5.313   0.000  0.00  0.00    +0.000 NA
ATOM      5  N   UNL     1       6.325  -5.298   0.000  0.00  0.00    +0.000 NA
ATOM      6  N   UNL     1       7.744  -6.000   0.000  0.00  0.00    +0.000 NA
ATOM      7  N   UNL     1       6.318  -5.941   0.000  0.00  0.00    +0.000 NA
ENDROOT
TORSDOF 0
