REMARK  Name = 
REMARK  2 active torsions:
REMARK  status: ('A' for Active; 'I' for Inactive)
REMARK    1  A    between atoms: C_2  and  C_3
REMARK    2  A    between atoms: C_7  and  N_9
REMARK                            x       y       z     vdW  Elec       q    Type
REMARK                         _______ _______ _______ _____ _____    ______ ____
ROOT
ATOM      1  N   UNL     1       4.095   0.111   0.000  0.00  0.00    +0.000 NA
ATOM      2  C   UNL     1       4.095  -0.715   0.000  0.00  0.00    +0.000 A 
ATOM      3  C   UNL     1       4.810  -1.127   0.000  0.00  0.00    +0.000 A 
ATOM      4  C   UNL     1       5.524  -0.715   0.000  0.00  0.00    +0.000 A 
ATOM      5  C   UNL     1       6.239  -1.127   0.000  0.00  0.00    +0.000 A 
ATOM      6  C   UNL     1       6.239  -1.952   0.000  0.00  0.00    +0.000 A 
ATOM      7  C   UNL     1       5.524  -2.365   0.000  0.00  0.00    +0.000 A 
ATOM      8  C   UNL     1       4.810  -1.952   0.000  0.00  0.00    +0.000 A 
ATOM      9  N   UNL     1       4.095  -2.365   0.000  0.00  0.00    +0.000 NA
ATOM     10  C   UNL     1       3.381  -1.952   0.000  0.00  0.00    +0.000 A 
ATOM     11  N   UNL     1       3.381  -1.127   0.000  0.00  0.00    +0.000 NA
ATOM     12  O   UNL     1       6.953  -2.365   0.000  0.00  0.00    +0.000 OA
ATOM     13  C   UNL     1       7.366  -3.079   0.000  0.00  0.00    +0.000 C 
ATOM     14  C   UNL     1       8.191  -3.079   0.000  0.00  0.00    +0.000 C 
ATOM     15  O   UNL     1       8.603  -2.365   0.000  0.00  0.00    +0.000 OA
ATOM     16  C   UNL     1       9.318  -1.952   0.000  0.00  0.00    +0.000 C 
ATOM     17  C   UNL     1       9.318  -1.127   0.000  0.00  0.00    +0.000 C 
ATOM     18  O   UNL     1       8.603  -0.715   0.000  0.00  0.00    +0.000 OA
ATOM     19  C   UNL     1       8.191   0.000   0.000  0.00  0.00    +0.000 C 
ATOM     20  C   UNL     1       7.366   0.000   0.000  0.00  0.00    +0.000 C 
ATOM     21  O   UNL     1       6.953  -0.715   0.000  0.00  0.00    +0.000 OA
ENDROOT
BRANCH   1  26
ATOM     22  C   UNL     1       1.952   0.523   0.000  0.00  0.00    +0.000 A 
ATOM     23  C   UNL     1       1.952   1.348   0.000  0.00  0.00    +0.000 A 
ATOM     24  C   UNL     1       2.666   1.760   0.000  0.00  0.00    +0.000 A 
ATOM     25  C   UNL     1       3.381   1.348   0.000  0.00  0.00    +0.000 A 
ATOM     26  C   UNL     1       3.381   0.523   0.000  0.00  0.00    +0.000 A 
ATOM     27  C   UNL     1       2.666   0.111   0.000  0.00  0.00    +0.000 A 
BRANCH  22  29
ATOM     28  C   UNL     1       0.523  -0.302   0.000  0.00  0.00    +0.000 C 
ATOM     29  C   UNL     1       1.238   0.111   0.000  0.00  0.00    +0.000 C 
ENDBRANCH  22  29
ENDBRANCH   1  26
TORSDOF 2
