REMARK  Name = 
REMARK  1 active torsions:
REMARK  status: ('A' for Active; 'I' for Inactive)
REMARK    1  A    between atoms: S_4  and  C_5
REMARK                            x       y       z     vdW  Elec       q    Type
REMARK                         _______ _______ _______ _____ _____    ______ ____
ROOT
ATOM      1  N   UNL     1       0.175   0.000   0.000  0.00  0.00    +0.000 N 
ATOM      2  N   UNL     1       0.960   0.255   0.000  0.00  0.00    +0.000 NA
ATOM      3  C   UNL     1       1.445  -0.412   0.000  0.00  0.00    +0.000 A 
ATOM      4  N   UNL     1       0.960  -1.080   0.000  0.00  0.00    +0.000 NA
ATOM      5  C   UNL     1       0.175  -0.825   0.000  0.00  0.00    +0.000 A 
ATOM      6  N   UNL     1      -0.539  -1.238   0.000  0.00  0.00    +0.000 NA
ATOM      7  N   UNL     1      -1.254  -0.825   0.000  0.00  0.00    +0.000 NA
ATOM      8  O   UNL     1      -1.968   1.238   0.000  0.00  0.00    +0.000 OA
ATOM      9  O   UNL     1      -2.683   0.000   0.000  0.00  0.00    +0.000 OA
ATOM     10  N   UNL     1      -1.968   0.412   0.000  0.00  0.00    +0.000 N 
ATOM     11  C   UNL     1      -1.254   0.000   0.000  0.00  0.00    +0.000 A 
ATOM     12  C   UNL     1      -0.539   0.412   0.000  0.00  0.00    +0.000 A 
ATOM     13  O   UNL     1      -0.539   1.238   0.000  0.00  0.00    +0.000 OA
ENDROOT
BRANCH   3  15
ATOM     14  C   UNL     1       2.683  -1.127   0.000  0.00  0.00    +0.000 C 
ATOM     15  S   UNL     1       2.270  -0.412   0.000  0.00  0.00    +0.000 S 
ENDBRANCH   3  15
TORSDOF 1
