REMARK  Name = 
REMARK  7 active torsions:
REMARK  status: ('A' for Active; 'I' for Inactive)
REMARK    1  A    between atoms: C_5  and  C_13
REMARK    2  A    between atoms: C_6  and  C_14
REMARK    3  A    between atoms: C_7  and  C_11
REMARK    4  A    between atoms: C_7  and  S_23
REMARK    5  A    between atoms: C_8  and  C_12
REMARK    6  A    between atoms: C_8  and  S_24
REMARK    7  A    between atoms: S_23  and  S_24
REMARK                            x       y       z     vdW  Elec       q    Type
REMARK                         _______ _______ _______ _____ _____    ______ ____
ROOT
ATOM      1  S   UNL     1       0.000  -2.475   0.000  0.00  0.00    +0.000 S 
ENDROOT
BRANCH   1   2
ATOM      2  C   UNL     1      -0.715  -2.062   0.000  0.00  0.00    +0.000 C 
BRANCH   2   6
ATOM      3  C   UNL     1      -3.572  -3.712   0.000  0.00  0.00    +0.000 C 
ATOM      4  C   UNL     1      -1.429  -3.300   0.000  0.00  0.00    +0.000 A 
ATOM      5  C   UNL     1      -2.858  -3.300   0.000  0.00  0.00    +0.000 A 
ATOM      6  C   UNL     1      -1.429  -2.475   0.000  0.00  0.00    +0.000 A 
ATOM      7  C   UNL     1      -2.143  -2.062   0.000  0.00  0.00    +0.000 A 
ATOM      8  C   UNL     1      -2.858  -2.475   0.000  0.00  0.00    +0.000 A 
ATOM      9  N   UNL     1      -2.143  -3.712   0.000  0.00  0.00    +0.000 NA
ATOM     10  O   UNL     1      -3.572  -2.062   0.000  0.00  0.00    +0.000 OA
BRANCH   7  11
ATOM     11  C   UNL     1      -2.143  -1.238   0.000  0.00  0.00    +0.000 C 
ATOM     12  O   UNL     1      -2.858  -0.825   0.000  0.00  0.00    +0.000 OA
ENDBRANCH   7  11
ENDBRANCH   2   6
ENDBRANCH   1   2
BRANCH   1  13
ATOM     13  S   UNL     1       0.715  -2.062   0.000  0.00  0.00    +0.000 S 
BRANCH  13  14
ATOM     14  C   UNL     1       1.429  -2.475   0.000  0.00  0.00    +0.000 C 
BRANCH  14  18
ATOM     15  C   UNL     1       4.287  -0.825   0.000  0.00  0.00    +0.000 C 
ATOM     16  C   UNL     1       2.143  -1.238   0.000  0.00  0.00    +0.000 A 
ATOM     17  C   UNL     1       3.572  -1.238   0.000  0.00  0.00    +0.000 A 
ATOM     18  C   UNL     1       2.143  -2.062   0.000  0.00  0.00    +0.000 A 
ATOM     19  C   UNL     1       2.858  -2.475   0.000  0.00  0.00    +0.000 A 
ATOM     20  C   UNL     1       3.572  -2.062   0.000  0.00  0.00    +0.000 A 
ATOM     21  N   UNL     1       2.858  -0.825   0.000  0.00  0.00    +0.000 NA
ATOM     22  O   UNL     1       4.287  -2.475   0.000  0.00  0.00    +0.000 OA
BRANCH  19  23
ATOM     23  C   UNL     1       2.858  -3.300   0.000  0.00  0.00    +0.000 C 
ATOM     24  O   UNL     1       3.572  -3.712   0.000  0.00  0.00    +0.000 OA
ENDBRANCH  19  23
ENDBRANCH  14  18
ENDBRANCH  13  14
ENDBRANCH   1  13
TORSDOF 7
