REMARK  Name = 
REMARK  3 active torsions:
REMARK  status: ('A' for Active; 'I' for Inactive)
REMARK    1  A    between atoms: C_9  and  O_18
REMARK    2  A    between atoms: C_10  and  C_14
REMARK    3  A    between atoms: C_11  and  C_14
REMARK                            x       y       z     vdW  Elec       q    Type
REMARK                         _______ _______ _______ _____ _____    ______ ____
ROOT
ATOM      1  C   UNL     1       7.145   0.825   0.000  0.00  0.00    +0.000 A 
ATOM      2  C   UNL     1       6.430   1.238   0.000  0.00  0.00    +0.000 A 
ATOM      3  C   UNL     1       6.430  -0.412   0.000  0.00  0.00    +0.000 A 
ATOM      4  C   UNL     1       7.145   0.000   0.000  0.00  0.00    +0.000 A 
ATOM      5  C   UNL     1       5.716   0.825   0.000  0.00  0.00    +0.000 A 
ATOM      6  C   UNL     1       5.716   0.000   0.000  0.00  0.00    +0.000 A 
ATOM      7  O   UNL     1       5.001  -0.412   0.000  0.00  0.00    +0.000 OA
ENDROOT
BRANCH   4   9
ATOM      8  C   UNL     1       7.859  -1.238   0.000  0.00  0.00    +0.000 C 
ATOM      9  O   UNL     1       7.859  -0.412   0.000  0.00  0.00    +0.000 OA
ENDBRANCH   4   9
BRANCH   5  10
ATOM     10  C   UNL     1       5.001   1.238   0.000  0.00  0.00    +0.000 C 
ATOM     11  O   UNL     1       5.001   2.062   0.000  0.00  0.00    +0.000 OA
BRANCH  10  16
ATOM     12  C   UNL     1       3.572  -0.412   0.000  0.00  0.00    +0.000 A 
ATOM     13  C   UNL     1       2.858   0.000   0.000  0.00  0.00    +0.000 A 
ATOM     14  C   UNL     1       4.287   0.000   0.000  0.00  0.00    +0.000 A 
ATOM     15  C   UNL     1       2.858   0.825   0.000  0.00  0.00    +0.000 A 
ATOM     16  C   UNL     1       4.287   0.825   0.000  0.00  0.00    +0.000 A 
ATOM     17  C   UNL     1       3.572   1.238   0.000  0.00  0.00    +0.000 A 
ATOM     18  O   UNL     1       3.572   2.062   0.000  0.00  0.00    +0.000 OA
ENDBRANCH  10  16
ENDBRANCH   5  10
TORSDOF 3
