REMARK  Name = 
REMARK  17 active torsions:
REMARK  status: ('A' for Active; 'I' for Inactive)
REMARK    1  A    between atoms: C_6  and  C_7
REMARK    2  A    between atoms: C_23  and  O_24
REMARK    3  A    between atoms: O_24  and  C_25
REMARK    4  A    between atoms: C_25  and  C_27
REMARK    5  A    between atoms: C_27  and  C_28
REMARK    6  A    between atoms: C_28  and  C_29
REMARK    7  A    between atoms: C_29  and  C_30
REMARK    8  A    between atoms: C_30  and  C_31
REMARK    9  A    between atoms: C_31  and  C_32
REMARK   10  A    between atoms: C_32  and  C_33
REMARK   11  A    between atoms: C_33  and  C_34
REMARK   12  A    between atoms: C_34  and  C_35
REMARK   13  A    between atoms: C_35  and  C_36
REMARK   14  A    between atoms: C_36  and  C_37
REMARK   15  A    between atoms: C_37  and  C_38
REMARK   16  A    between atoms: C_40  and  O_41
REMARK   17  A    between atoms: O_41  and  C_42
REMARK                            x       y       z     vdW  Elec       q    Type
REMARK                         _______ _______ _______ _____ _____    ______ ____
ROOT
ATOM      1  C   UNL     1      -0.058  -4.354   0.000  0.00  0.00    +0.000 C 
ATOM      2  C   UNL     1      -0.773  -3.942   0.000  0.00  0.00    +0.000 C 
ATOM      3  C   UNL     1      -1.418  -4.456   0.000  0.00  0.00    +0.000 C 
ATOM      4  C   UNL     1      -2.222  -4.273   0.000  0.00  0.00    +0.000 C 
ATOM      5  C   UNL     1      -2.580  -3.530   0.000  0.00  0.00    +0.000 C 
ATOM      6  C   UNL     1      -2.222  -2.786   0.000  0.00  0.00    +0.000 C 
ATOM      7  O   UNL     1      -3.046  -2.823   0.000  0.00  0.00    +0.000 OA
ATOM      8  C   UNL     1      -2.645  -2.078   0.000  0.00  0.00    +0.000 C 
ATOM      9  O   UNL     1      -3.467  -2.004   0.000  0.00  0.00    +0.000 OA
ATOM     10  C   UNL     1      -2.102  -1.457   0.000  0.00  0.00    +0.000 C 
ATOM     11  C   UNL     1      -2.286  -0.652   0.000  0.00  0.00    +0.000 C 
ATOM     12  C   UNL     1      -1.344  -1.781   0.000  0.00  0.00    +0.000 C 
ATOM     13  C   UNL     1      -1.418  -2.603   0.000  0.00  0.00    +0.000 C 
ATOM     14  C   UNL     1      -0.773  -3.117   0.000  0.00  0.00    +0.000 C 
ATOM     15  O   UNL     1      -0.711  -2.294   0.000  0.00  0.00    +0.000 OA
ATOM     16  C   UNL     1      -0.058  -2.704   0.000  0.00  0.00    +0.000 C 
ATOM     17  C   UNL     1      -0.058  -1.879   0.000  0.00  0.00    +0.000 C 
ATOM     18  C   UNL     1       0.656  -3.117   0.000  0.00  0.00    +0.000 C 
ATOM     19  C   UNL     1       0.656  -3.942   0.000  0.00  0.00    +0.000 C 
ATOM     20  C   UNL     1       0.656  -4.767   0.000  0.00  0.00    +0.000 C 
ATOM     21  C   UNL     1       1.056  -5.489   0.000  0.00  0.00    +0.000 C 
ATOM     22  C   UNL     1       0.584  -5.589   0.000  0.00  0.00    +0.000 C 
ENDROOT
BRANCH   4  23
ATOM     23  C   UNL     1      -2.736  -4.918   0.000  0.00  0.00    +0.000 C 
ATOM     24  O   UNL     1      -3.552  -4.795   0.000  0.00  0.00    +0.000 OA
ENDBRANCH   4  23
BRANCH  18  25
ATOM     25  O   UNL     1       1.371  -2.704   0.000  0.00  0.00    +0.000 OA
BRANCH  25  26
ATOM     26  C   UNL     1       2.085  -3.117   0.000  0.00  0.00    +0.000 C 
ATOM     27  O   UNL     1       2.085  -3.942   0.000  0.00  0.00    +0.000 OA
BRANCH  26  28
ATOM     28  C   UNL     1       2.800  -2.704   0.000  0.00  0.00    +0.000 C 
BRANCH  28  29
ATOM     29  C   UNL     1       3.514  -3.117   0.000  0.00  0.00    +0.000 C 
BRANCH  29  30
ATOM     30  C   UNL     1       4.229  -2.704   0.000  0.00  0.00    +0.000 C 
BRANCH  30  31
ATOM     31  C   UNL     1       4.943  -3.117   0.000  0.00  0.00    +0.000 C 
BRANCH  31  32
ATOM     32  C   UNL     1       5.658  -2.704   0.000  0.00  0.00    +0.000 C 
BRANCH  32  33
ATOM     33  C   UNL     1       6.372  -3.117   0.000  0.00  0.00    +0.000 C 
BRANCH  33  34
ATOM     34  C   UNL     1       7.087  -2.704   0.000  0.00  0.00    +0.000 C 
BRANCH  34  35
ATOM     35  C   UNL     1       7.801  -3.117   0.000  0.00  0.00    +0.000 C 
BRANCH  35  36
ATOM     36  C   UNL     1       8.515  -2.704   0.000  0.00  0.00    +0.000 C 
BRANCH  36  37
ATOM     37  C   UNL     1       9.230  -3.117   0.000  0.00  0.00    +0.000 C 
BRANCH  37  38
ATOM     38  C   UNL     1       9.944  -2.704   0.000  0.00  0.00    +0.000 C 
BRANCH  38  39
ATOM     39  C   UNL     1      10.659  -3.117   0.000  0.00  0.00    +0.000 C 
ATOM     40  C   UNL     1      11.373  -2.704   0.000  0.00  0.00    +0.000 C 
ENDBRANCH  38  39
ENDBRANCH  37  38
ENDBRANCH  36  37
ENDBRANCH  35  36
ENDBRANCH  34  35
ENDBRANCH  33  34
ENDBRANCH  32  33
ENDBRANCH  31  32
ENDBRANCH  30  31
ENDBRANCH  29  30
ENDBRANCH  28  29
ENDBRANCH  26  28
ENDBRANCH  25  26
ENDBRANCH  18  25
BRANCH  19  41
ATOM     41  O   UNL     1       1.481  -3.942   0.000  0.00  0.00    +0.000 OA
BRANCH  41  42
ATOM     42  C   UNL     1       1.894  -4.657   0.000  0.00  0.00    +0.000 C 
ATOM     43  C   UNL     1       2.719  -4.657   0.000  0.00  0.00    +0.000 C 
ATOM     44  O   UNL     1       1.481  -5.371   0.000  0.00  0.00    +0.000 OA
ENDBRANCH  41  42
ENDBRANCH  19  41
TORSDOF 17
