REMARK  Name = 
REMARK  6 active torsions:
REMARK  status: ('A' for Active; 'I' for Inactive)
REMARK    1  A    between atoms: N_1  and  C_16
REMARK    2  A    between atoms: C_4  and  C_9
REMARK    3  A    between atoms: C_9  and  C_10
REMARK    4  A    between atoms: C_16  and  O_17
REMARK    5  A    between atoms: O_17  and  C_18
REMARK    6  A    between atoms: C_18  and  C_19
REMARK                            x       y       z     vdW  Elec       q    Type
REMARK                         _______ _______ _______ _____ _____    ______ ____
ROOT
ATOM      1  N   UNL     1       1.072   0.412   0.000  0.00  0.00    +0.000 N 
ATOM      2  N   UNL     1       1.786   1.650   0.000  0.00  0.00    +0.000 NA
ATOM      3  C   UNL     1       1.786   0.825   0.000  0.00  0.00    +0.000 A 
ATOM      4  C   UNL     1       0.357   1.650   0.000  0.00  0.00    +0.000 A 
ATOM      5  C   UNL     1       0.357   0.825   0.000  0.00  0.00    +0.000 A 
ATOM      6  C   UNL     1       1.072   2.062   0.000  0.00  0.00    +0.000 A 
ATOM      7  O   UNL     1       2.501   0.412   0.000  0.00  0.00    +0.000 OA
ATOM      8  O   UNL     1       1.072   2.887   0.000  0.00  0.00    +0.000 OA
ENDROOT
BRANCH   4   9
ATOM      9  C   UNL     1      -0.357   2.062   0.000  0.00  0.00    +0.000 C 
BRANCH   9  10
ATOM     10  C   UNL     1      -1.072   1.650   0.000  0.00  0.00    +0.000 A 
ATOM     11  C   UNL     1      -1.072   0.825   0.000  0.00  0.00    +0.000 A 
ATOM     12  C   UNL     1      -1.786   2.062   0.000  0.00  0.00    +0.000 A 
ATOM     13  C   UNL     1      -1.786   0.412   0.000  0.00  0.00    +0.000 A 
ATOM     14  C   UNL     1      -2.501   1.650   0.000  0.00  0.00    +0.000 A 
ATOM     15  C   UNL     1      -2.501   0.825   0.000  0.00  0.00    +0.000 A 
ENDBRANCH   9  10
ENDBRANCH   4   9
BRANCH   1  16
ATOM     16  C   UNL     1       1.072  -0.412   0.000  0.00  0.00    +0.000 C 
BRANCH  16  17
ATOM     17  O   UNL     1       0.357  -0.825   0.000  0.00  0.00    +0.000 OA
BRANCH  17  18
ATOM     18  C   UNL     1       0.357  -1.650   0.000  0.00  0.00    +0.000 C 
BRANCH  18  19
ATOM     19  C   UNL     1      -0.357  -2.062   0.000  0.00  0.00    +0.000 C 
ATOM     20  O   UNL     1      -0.357  -2.887   0.000  0.00  0.00    +0.000 OA
ENDBRANCH  18  19
ENDBRANCH  17  18
ENDBRANCH  16  17
ENDBRANCH   1  16
TORSDOF 6
