REMARK  Name = 
REMARK  9 active torsions:
REMARK  status: ('A' for Active; 'I' for Inactive)
REMARK    1  A    between atoms: N_1  and  C_2
REMARK    2  A    between atoms: N_1  and  C_8
REMARK    3  A    between atoms: N_1  and  C_41
REMARK    4  A    between atoms: C_10  and  C_11
REMARK    5  A    between atoms: C_14  and  C_15
REMARK    6  A    between atoms: C_15  and  N_16
REMARK    7  A    between atoms: C_25  and  C_26
REMARK    8  A    between atoms: N_28  and  C_29
REMARK    9  A    between atoms: C_29  and  C_30
REMARK                            x       y       z     vdW  Elec       q    Type
REMARK                         _______ _______ _______ _____ _____    ______ ____
ROOT
ATOM      1  C   UNL     1       0.000  -0.206   0.000  0.00  0.00    +0.000 A 
ATOM      2  C   UNL     1       0.714   0.206   0.000  0.00  0.00    +0.000 A 
ATOM      3  C   UNL     1       0.714   1.031   0.000  0.00  0.00    +0.000 A 
ATOM      4  C   UNL     1       0.000   1.444   0.000  0.00  0.00    +0.000 A 
ATOM      5  C   UNL     1      -0.714   1.031   0.000  0.00  0.00    +0.000 A 
ATOM      6  C   UNL     1      -0.714   0.206   0.000  0.00  0.00    +0.000 A 
ATOM      7  C   UNL     1      -1.429  -0.206   0.000  0.00  0.00    +0.000 C 
ENDROOT
BRANCH   3   8
ATOM      8  C   UNL     1       1.429   1.444   0.000  0.00  0.00    +0.000 A 
ATOM      9  C   UNL     1       2.143   1.031   0.000  0.00  0.00    +0.000 A 
ATOM     10  C   UNL     1       2.858   1.444   0.000  0.00  0.00    +0.000 A 
ATOM     11  C   UNL     1       2.858   2.269   0.000  0.00  0.00    +0.000 A 
ATOM     12  C   UNL     1       2.143   2.681   0.000  0.00  0.00    +0.000 A 
ATOM     13  C   UNL     1       1.429   2.269   0.000  0.00  0.00    +0.000 A 
BRANCH  11  14
ATOM     14  C   UNL     1       3.572   2.681   0.000  0.00  0.00    +0.000 C 
BRANCH  14  15
ATOM     15  N   UNL     1       4.287   2.269   0.000  0.00  0.00    +0.000 NA
ATOM     16  C   UNL     1       5.001   2.681   0.000  0.00  0.00    +0.000 C 
ATOM     17  C   UNL     1       5.716   2.269   0.000  0.00  0.00    +0.000 C 
ATOM     18  O   UNL     1       5.716   1.444   0.000  0.00  0.00    +0.000 OA
ATOM     19  C   UNL     1       5.001   1.031   0.000  0.00  0.00    +0.000 C 
ATOM     20  C   UNL     1       4.287   1.444   0.000  0.00  0.00    +0.000 C 
ENDBRANCH  14  15
ENDBRANCH  11  14
ENDBRANCH   3   8
BRANCH   5  21
ATOM     21  C   UNL     1      -1.429   1.444   0.000  0.00  0.00    +0.000 C 
ATOM     22  O   UNL     1      -1.429   2.269   0.000  0.00  0.00    +0.000 OA
ATOM     23  N   UNL     1      -2.143   1.031   0.000  0.00  0.00    +0.000 NA
BRANCH  23  24
ATOM     24  C   UNL     1      -2.858   1.444   0.000  0.00  0.00    +0.000 C 
BRANCH  24  25
ATOM     25  C   UNL     1      -3.572   1.031   0.000  0.00  0.00    +0.000 A 
ATOM     26  C   UNL     1      -4.287   1.444   0.000  0.00  0.00    +0.000 A 
ATOM     27  O   UNL     1      -4.287   2.269   0.000  0.00  0.00    +0.000 OA
ATOM     28  N   UNL     1      -5.001   1.031   0.000  0.00  0.00    +0.000 NA
ATOM     29  C   UNL     1      -5.001   0.206   0.000  0.00  0.00    +0.000 A 
ATOM     30  C   UNL     1      -5.716  -0.206   0.000  0.00  0.00    +0.000 C 
ATOM     31  C   UNL     1      -4.287  -0.206   0.000  0.00  0.00    +0.000 A 
ATOM     32  C   UNL     1      -3.572   0.206   0.000  0.00  0.00    +0.000 A 
ATOM     33  C   UNL     1      -2.858  -0.206   0.000  0.00  0.00    +0.000 C 
ENDBRANCH  24  25
ENDBRANCH  23  24
ENDBRANCH   5  21
BRANCH   1  34
ATOM     34  N   UNL     1       0.000  -1.031   0.000  0.00  0.00    +0.000 N 
BRANCH  34  35
ATOM     35  C   UNL     1      -0.715  -1.444   0.000  0.00  0.00    +0.000 C 
ATOM     36  C   UNL     1      -1.429  -1.031   0.000  0.00  0.00    +0.000 C 
ATOM     37  C   UNL     1      -2.143  -1.444   0.000  0.00  0.00    +0.000 C 
ATOM     38  O   UNL     1      -2.143  -2.269   0.000  0.00  0.00    +0.000 OA
ATOM     39  C   UNL     1      -1.429  -2.681   0.000  0.00  0.00    +0.000 C 
ATOM     40  C   UNL     1      -0.715  -2.269   0.000  0.00  0.00    +0.000 C 
ENDBRANCH  34  35
BRANCH  34  41
ATOM     41  C   UNL     1       0.714  -1.444   0.000  0.00  0.00    +0.000 C 
ATOM     42  C   UNL     1       1.429  -1.031   0.000  0.00  0.00    +0.000 C 
ENDBRANCH  34  41
ENDBRANCH   1  34
TORSDOF 9
