REMARK  Name = 
REMARK  2 active torsions:
REMARK  status: ('A' for Active; 'I' for Inactive)
REMARK    1  A    between atoms: C_1  and  C_2
REMARK    2  A    between atoms: C_1  and  C_3
REMARK                            x       y       z     vdW  Elec       q    Type
REMARK                         _______ _______ _______ _____ _____    ______ ____
ROOT
ATOM      1  C   UNL     1       0.351   0.000   0.000  0.00  0.00    +0.000 A 
ATOM      2  C   UNL     1       1.064   0.407   0.000  0.00  0.00    +0.000 A 
ATOM      3  C   UNL     1       0.351  -0.829   0.000  0.00  0.00    +0.000 A 
ATOM      4  C   UNL     1       1.074  -1.236   0.000  0.00  0.00    +0.000 A 
ATOM      5  C   UNL     1       1.786  -0.010   0.000  0.00  0.00    +0.000 A 
ATOM      6  C   UNL     1       1.791  -0.829   0.000  0.00  0.00    +0.000 A 
ENDROOT
BRANCH   1   7
ATOM      7  C   UNL     1      -0.361   0.412   0.000  0.00  0.00    +0.000 C 
ATOM      8  O   UNL     1      -0.361   1.236   0.000  0.00  0.00    +0.000 OA
BRANCH   7   9
ATOM      9  C   UNL     1      -1.074   0.000   0.000  0.00  0.00    +0.000 C 
ATOM     10  N   UNL     1      -1.791   0.422   0.000  0.00  0.00    +0.000 NA
ATOM     11  C   UNL     1      -1.074  -0.829   0.000  0.00  0.00    +0.000 C 
ENDBRANCH   7   9
ENDBRANCH   1   7
TORSDOF 2
