REMARK  Name = 
REMARK  2 active torsions:
REMARK  status: ('A' for Active; 'I' for Inactive)
REMARK    1  A    between atoms: C_2  and  C_9
REMARK    2  A    between atoms: C_13  and  C_20
REMARK                            x       y       z     vdW  Elec       q    Type
REMARK                         _______ _______ _______ _____ _____    ______ ____
ROOT
ATOM      1  C   UNK     1       0.179   0.584   0.000  0.00  0.00    +0.000 A 
ATOM      2  C   UNK     1       0.179  -0.241   0.000  0.00  0.00    +0.000 A 
ATOM      3  N   UNK     1      -0.536  -0.653   0.000  0.00  0.00    +0.000 NA
ATOM      4  C   UNK     1      -1.250  -0.241   0.000  0.00  0.00    +0.000 A 
ATOM      5  O   UNK     1      -1.965  -0.653   0.000  0.00  0.00    +0.000 OA
ATOM      6  N   UNK     1      -1.250   0.584   0.000  0.00  0.00    +0.000 NA
ATOM      7  C   UNK     1      -0.536   0.997   0.000  0.00  0.00    +0.000 A 
ATOM      8  O   UNK     1      -0.536   1.822   0.000  0.00  0.00    +0.000 OA
ENDROOT
BRANCH   2   9
ATOM      9  C   UNK     1       0.893  -0.653   0.000  0.00  0.00    +0.000 C 
ATOM     10  O   UNK     1       0.893  -1.478   0.000  0.00  0.00    +0.000 OA
ATOM     11  O   UNK     1       1.608  -0.241   0.000  0.00  0.00    +0.000 OA
ENDBRANCH   2   9
TORSDOF 1
REMARK  Name = 
REMARK  2 active torsions:
REMARK  status: ('A' for Active; 'I' for Inactive)
REMARK    1  A    between atoms: C_2  and  C_9
REMARK    2  A    between atoms: C_13  and  C_20
REMARK                            x       y       z     vdW  Elec       q    Type
REMARK                         _______ _______ _______ _____ _____    ______ ____
ROOT
ATOM      1  C   UNK     1       6.233   0.600   0.000  0.00  0.00    +0.000 A 
ATOM      2  C   UNK     1       6.233  -0.225   0.000  0.00  0.00    +0.000 A 
ATOM      3  N   UNK     1       5.519  -0.637   0.000  0.00  0.00    +0.000 NA
ATOM      4  C   UNK     1       4.804  -0.225   0.000  0.00  0.00    +0.000 A 
ATOM      5  O   UNK     1       4.090  -0.637   0.000  0.00  0.00    +0.000 OA
ATOM      6  N   UNK     1       4.804   0.600   0.000  0.00  0.00    +0.000 NA
ATOM      7  C   UNK     1       5.519   1.012   0.000  0.00  0.00    +0.000 A 
ATOM      8  O   UNK     1       5.519   1.837   0.000  0.00  0.00    +0.000 OA
ENDROOT
BRANCH   2   9
ATOM      9  C   UNK     1       6.948  -0.637   0.000  0.00  0.00    +0.000 C 
ATOM     10  O   UNK     1       7.662  -0.225   0.000  0.00  0.00    +0.000 OA
ATOM     11  O   UNK     1       6.948  -1.462   0.000  0.00  0.00    +0.000 OA
ENDBRANCH   2   9
TORSDOF 1
REMARK  Name = 
REMARK  2 active torsions:
REMARK  status: ('A' for Active; 'I' for Inactive)
REMARK    1  A    between atoms: C_2  and  C_9
REMARK    2  A    between atoms: C_13  and  C_20
REMARK                            x       y       z     vdW  Elec       q    Type
REMARK                         _______ _______ _______ _____ _____    ______ ____
ROOT
ATOM      1 MG   UNL     1       2.322   0.172   0.000  0.00  0.00    +0.000 Mg
ENDROOT
TORSDOF 0
