REMARK  Name = 
REMARK  4 active torsions:
REMARK  status: ('A' for Active; 'I' for Inactive)
REMARK    1  A    between atoms: C_5  and  C_11
REMARK    2  A    between atoms: C_8  and  O_19
REMARK    3  A    between atoms: C_13  and  O_21
REMARK    4  A    between atoms: C_15  and  O_22
REMARK                            x       y       z     vdW  Elec       q    Type
REMARK                         _______ _______ _______ _____ _____    ______ ____
ROOT
ATOM      1  C   UNL     1      -0.714  -1.031   0.000  0.00  0.00    +0.000 A 
ATOM      2  C   UNL     1       0.000  -1.444   0.000  0.00  0.00    +0.000 A 
ATOM      3  C   UNL     1      -1.429  -1.444   0.000  0.00  0.00    +0.000 A 
ATOM      4  C   UNL     1      -0.714  -0.206   0.000  0.00  0.00    +0.000 A 
ATOM      5  C   UNL     1       0.714  -0.206   0.000  0.00  0.00    +0.000 A 
ATOM      6  C   UNL     1       0.714  -1.031   0.000  0.00  0.00    +0.000 A 
ATOM      7  O   UNL     1       0.000   0.206   0.000  0.00  0.00    +0.000 OA
ATOM      8  C   UNL     1      -2.143  -1.031   0.000  0.00  0.00    +0.000 A 
ATOM      9  C   UNL     1      -1.429   0.206   0.000  0.00  0.00    +0.000 A 
ATOM     10  C   UNL     1      -2.143  -0.206   0.000  0.00  0.00    +0.000 A 
ATOM     11  O   UNL     1       0.000  -2.269   0.000  0.00  0.00    +0.000 OA
ATOM     12  O   UNL     1      -1.429  -2.269   0.000  0.00  0.00    +0.000 OA
ATOM     13  O   UNL     1      -2.858   0.206   0.000  0.00  0.00    +0.000 OA
ENDROOT
BRANCH   5  14
ATOM     14  C   UNL     1       1.429   0.206   0.000  0.00  0.00    +0.000 A 
ATOM     15  C   UNL     1       2.143  -0.206   0.000  0.00  0.00    +0.000 A 
ATOM     16  C   UNL     1       2.858   0.206   0.000  0.00  0.00    +0.000 A 
ATOM     17  C   UNL     1       2.858   1.031   0.000  0.00  0.00    +0.000 A 
ATOM     18  C   UNL     1       1.429   1.031   0.000  0.00  0.00    +0.000 A 
ATOM     19  C   UNL     1       2.143   1.444   0.000  0.00  0.00    +0.000 A 
BRANCH  16  20
ATOM     20  O   UNL     1       3.572  -0.206   0.000  0.00  0.00    +0.000 OA
ATOM     21  C   UNL     1       3.572  -1.031   0.000  0.00  0.00    +0.000 C 
ENDBRANCH  16  20
BRANCH  17  22
ATOM     22  O   UNL     1       3.572   1.444   0.000  0.00  0.00    +0.000 OA
ATOM     23  C   UNL     1       3.572   2.269   0.000  0.00  0.00    +0.000 C 
ENDBRANCH  17  22
ENDBRANCH   5  14
BRANCH   8  24
ATOM     24  O   UNL     1      -2.858  -1.444   0.000  0.00  0.00    +0.000 OA
ATOM     25  C   UNL     1      -3.572  -1.031   0.000  0.00  0.00    +0.000 C 
ENDBRANCH   8  24
TORSDOF 4
