REMARK  Name = 
REMARK  9 active torsions:
REMARK  status: ('A' for Active; 'I' for Inactive)
REMARK    1  A    between atoms: C_2  and  N_3
REMARK    2  A    between atoms: N_3  and  C_5
REMARK    3  A    between atoms: N_3  and  C_7
REMARK    4  A    between atoms: C_7  and  C_8
REMARK    5  A    between atoms: C_8  and  O_9
REMARK    6  A    between atoms: O_9  and  C_10
REMARK    7  A    between atoms: C_10  and  C_12
REMARK    8  A    between atoms: C_12  and  C_13
REMARK    9  A    between atoms: C_12  and  C_18
REMARK                            x       y       z     vdW  Elec       q    Type
REMARK                         _______ _______ _______ _____ _____    ______ ____
ROOT
ATOM      1  C   UNL     1      -0.412   0.015   0.000  0.00  0.00    +0.000 C 
ATOM      2  O   UNL     1       0.412   0.015   0.000  0.00  0.00    +0.000 OA
ENDROOT
BRANCH   1   3
ATOM      3  C   UNL     1      -1.238   0.015   0.000  0.00  0.00    +0.000 C 
ATOM      4  C   UNL     1      -1.722  -0.652   0.000  0.00  0.00    +0.000 C 
ATOM      5  C   UNL     1      -2.507  -0.397   0.000  0.00  0.00    +0.000 C 
ATOM      6  C   UNL     1      -2.507   0.428   0.000  0.00  0.00    +0.000 C 
ATOM      7  C   UNL     1      -1.722   0.683   0.000  0.00  0.00    +0.000 C 
ENDBRANCH   1   3
BRANCH   1   8
ATOM      8  C   UNL     1      -0.412  -0.810   0.000  0.00  0.00    +0.000 A 
ATOM      9  C   UNL     1       0.255  -1.294   0.000  0.00  0.00    +0.000 A 
ATOM     10  C   UNL     1       0.000  -2.079   0.000  0.00  0.00    +0.000 A 
ATOM     11  C   UNL     1      -0.825  -2.079   0.000  0.00  0.00    +0.000 A 
ATOM     12  S   UNL     1      -1.080  -1.294   0.000  0.00  0.00    +0.000 S 
ENDBRANCH   1   8
BRANCH   1  13
ATOM     13  C   UNL     1      -0.412   0.840   0.000  0.00  0.00    +0.000 C 
ATOM     14  O   UNL     1       0.302   1.253   0.000  0.00  0.00    +0.000 OA
BRANCH  13  15
ATOM     15  O   UNL     1      -1.127   1.253   0.000  0.00  0.00    +0.000 OA
BRANCH  15  16
ATOM     16  C   UNL     1      -1.127   2.078   0.000  0.00  0.00    +0.000 C 
BRANCH  16  17
ATOM     17  C   UNL     1      -1.841   2.490   0.000  0.00  0.00    +0.000 C 
BRANCH  17  18
ATOM     18  N   UNL     1      -1.841   3.315   0.000  0.00  0.00    +0.000 N 
ATOM     19  C   UNL     1      -2.666   3.315   0.000  0.00  0.00    +0.000 C 
BRANCH  18  20
ATOM     20  C   UNL     1      -1.016   3.315   0.000  0.00  0.00    +0.000 C 
ATOM     21  C   UNL     1      -0.604   2.601   0.000  0.00  0.00    +0.000 C 
ENDBRANCH  18  20
BRANCH  18  23
ATOM     22  C   UNL     1      -2.556   4.553   0.000  0.00  0.00    +0.000 C 
ATOM     23  C   UNL     1      -1.841   4.140   0.000  0.00  0.00    +0.000 C 
ENDBRANCH  18  23
ENDBRANCH  17  18
ENDBRANCH  16  17
ENDBRANCH  15  16
ENDBRANCH  13  15
ENDBRANCH   1  13
TORSDOF 9
