REMARK  Name = 
REMARK  3 active torsions:
REMARK  status: ('A' for Active; 'I' for Inactive)
REMARK    1  A    between atoms: C_3  and  C_15
REMARK    2  A    between atoms: N_5  and  C1*_6
REMARK    3  A    between atoms: C4*_9  and  C5*_11
REMARK                            x       y       z     vdW  Elec       q    Type
REMARK                         _______ _______ _______ _____ _____    ______ ____
ROOT
ATOM      1  C1* UNL     1       1.256  -0.180   0.000  0.00  0.00    +0.000 C 
ATOM      2  C2* UNL     1       0.589   0.305   0.000  0.00  0.00    +0.000 C 
ATOM      3  C3* UNL     1       0.844   1.089   0.000  0.00  0.00    +0.000 C 
ATOM      4  C4* UNL     1       1.669   1.089   0.000  0.00  0.00    +0.000 C 
ATOM      5  O4* UNL     1       1.924   0.305   0.000  0.00  0.00    +0.000 OA
ATOM      6  O3* UNL     1       0.359   1.757   0.000  0.00  0.00    +0.000 OA
ATOM      7  O2* UNL     1      -0.196   0.050   0.000  0.00  0.00    +0.000 OA
ENDROOT
BRANCH   1  12
ATOM      8  C   UNL     1       1.924  -1.490   0.000  0.00  0.00    +0.000 A 
ATOM      9  N   UNL     1       1.669  -2.275   0.000  0.00  0.00    +0.000 NA
ATOM     10  C   UNL     1       0.844  -2.275   0.000  0.00  0.00    +0.000 A 
ATOM     11  N   UNL     1       0.589  -1.490   0.000  0.00  0.00    +0.000 NA
ATOM     12  N   UNL     1       1.256  -1.005   0.000  0.00  0.00    +0.000 N 
BRANCH  10  13
ATOM     13  C   UNL     1       0.359  -2.942   0.000  0.00  0.00    +0.000 C 
ATOM     14  N   UNL     1       0.695  -3.696   0.000  0.00  0.00    +0.000 NA
ATOM     15  N   UNL     1      -0.462  -2.856   0.000  0.00  0.00    +0.000 NA
ENDBRANCH  10  13
ENDBRANCH   1  12
BRANCH   4  16
ATOM     16  C5* UNL     1       2.154   1.757   0.000  0.00  0.00    +0.000 C 
ATOM     17  O5* UNL     1       1.818   2.510   0.000  0.00  0.00    +0.000 OA
ENDBRANCH   4  16
TORSDOF 3
