REMARK  Name = 
REMARK  5 active torsions:
REMARK  status: ('A' for Active; 'I' for Inactive)
REMARK    1  A    between atoms: C_3  and  C_26
REMARK    2  A    between atoms: C_4  and  N_8
REMARK    3  A    between atoms: N_11  and  C_12
REMARK    4  A    between atoms: C_14  and  C_22
REMARK    5  A    between atoms: C_16  and  C_18
REMARK                            x       y       z     vdW  Elec       q    Type
REMARK                         _______ _______ _______ _____ _____    ______ ____
ROOT
ATOM      1  N   UNL     1      -0.608  -2.949   0.000  0.00  0.00    +0.000 NA
ATOM      2  C   UNL     1      -1.322  -2.537   0.000  0.00  0.00    +0.000 C 
ATOM      3  O   UNL     1      -1.322  -1.712   0.000  0.00  0.00    +0.000 OA
ATOM      4  N   UNL     1      -2.037  -2.949   0.000  0.00  0.00    +0.000 NA
ENDROOT
BRANCH   1   8
ATOM      5  C   UNL     1       1.536  -1.712   0.000  0.00  0.00    +0.000 A 
ATOM      6  C   UNL     1       1.536  -2.537   0.000  0.00  0.00    +0.000 A 
ATOM      7  C   UNL     1       0.821  -2.949   0.000  0.00  0.00    +0.000 A 
ATOM      8  C   UNL     1       0.107  -2.537   0.000  0.00  0.00    +0.000 A 
ATOM      9  C   UNL     1       0.107  -1.712   0.000  0.00  0.00    +0.000 A 
ATOM     10  C   UNL     1       0.821  -1.299   0.000  0.00  0.00    +0.000 A 
ATOM     11 BR   UNL     1       0.821  -0.474   0.000  0.00  0.00    +0.000 Br
BRANCH   7  12
ATOM     12  C   UNL     1       0.821  -3.774   0.000  0.00  0.00    +0.000 A 
ATOM     13  N   UNL     1       1.489  -4.259   0.000  0.00  0.00    +0.000 NA
ATOM     14  N   UNL     1       1.234  -5.044   0.000  0.00  0.00    +0.000 NA
ATOM     15  N   UNL     1       0.409  -5.044   0.000  0.00  0.00    +0.000 NA
ATOM     16  N   UNL     1       0.154  -4.259   0.000  0.00  0.00    +0.000 NA
ENDBRANCH   7  12
ENDBRANCH   1   8
BRANCH   4  17
ATOM     17  C   UNL     1      -2.751  -2.537   0.000  0.00  0.00    +0.000 A 
ATOM     18  C   UNL     1      -3.466  -2.949   0.000  0.00  0.00    +0.000 A 
ATOM     19  C   UNL     1      -4.180  -2.537   0.000  0.00  0.00    +0.000 A 
ATOM     20  C   UNL     1      -4.180  -1.712   0.000  0.00  0.00    +0.000 A 
ATOM     21  C   UNL     1      -3.466  -1.299   0.000  0.00  0.00    +0.000 A 
ATOM     22  C   UNL     1      -2.751  -1.712   0.000  0.00  0.00    +0.000 A 
BRANCH  21  23
ATOM     23  C   UNL     1      -3.466  -0.474   0.000  0.00  0.00    +0.000 C 
ATOM     24  F   UNL     1      -3.466   0.351   0.000  0.00  0.00    +0.000 F 
ATOM     25  F   UNL     1      -4.291  -0.474   0.000  0.00  0.00    +0.000 F 
ATOM     26  F   UNL     1      -2.641  -0.474   0.000  0.00  0.00    +0.000 F 
ENDBRANCH  21  23
BRANCH  19  27
ATOM     27  C   UNL     1      -4.895  -2.949   0.000  0.00  0.00    +0.000 C 
ATOM     28  F   UNL     1      -5.609  -3.362   0.000  0.00  0.00    +0.000 F 
ATOM     29  F   UNL     1      -5.307  -2.235   0.000  0.00  0.00    +0.000 F 
ATOM     30  F   UNL     1      -4.482  -3.664   0.000  0.00  0.00    +0.000 F 
ENDBRANCH  19  27
ENDBRANCH   4  17
TORSDOF 5
