REMARK  Name = 
REMARK  8 active torsions:
REMARK  status: ('A' for Active; 'I' for Inactive)
REMARK    1  A    between atoms: O_1  and  C_12
REMARK    2  A    between atoms: O_1  and  C_21
REMARK    3  A    between atoms: N_7  and  C_22
REMARK    4  A    between atoms: N_8  and  C_23
REMARK    5  A    between atoms: N_8  and  C_24
REMARK    6  A    between atoms: C_20  and  C_21
REMARK    7  A    between atoms: C_20  and  C_23
REMARK    8  A    between atoms: C_22  and  C_24
REMARK                            x       y       z     vdW  Elec       q    Type
REMARK                         _______ _______ _______ _____ _____    ______ ____
ROOT
ATOM      1  N   UNL     1       0.319  -0.404   0.000  0.00  0.00    +0.000 NA
ENDROOT
BRANCH   1   2
ATOM      2  C   UNL     1      -0.383   0.000   0.000  0.00  0.00    +0.000 C 
BRANCH   2   4
ATOM      3  O   UNL     1      -1.075  -1.234   0.000  0.00  0.00    +0.000 OA
ATOM      4  C   UNL     1      -1.075  -0.404   0.000  0.00  0.00    +0.000 C 
BRANCH   4   5
ATOM      5  C   UNL     1      -1.777   0.000   0.000  0.00  0.00    +0.000 C 
BRANCH   5   6
ATOM      6  O   UNL     1      -2.480  -0.404   0.000  0.00  0.00    +0.000 OA
BRANCH   6   8
ATOM      7  O   UNL     1      -5.321   1.234   0.000  0.00  0.00    +0.000 OA
ATOM      8  C   UNL     1      -3.182   0.000   0.000  0.00  0.00    +0.000 A 
ATOM      9  C   UNL     1      -3.182   0.830   0.000  0.00  0.00    +0.000 A 
ATOM     10  C   UNL     1      -3.895  -0.415   0.000  0.00  0.00    +0.000 A 
ATOM     11  C   UNL     1      -4.608   0.830   0.000  0.00  0.00    +0.000 A 
ATOM     12  C   UNL     1      -3.895   1.234   0.000  0.00  0.00    +0.000 A 
ATOM     13  C   UNL     1      -4.608   0.000   0.000  0.00  0.00    +0.000 A 
ENDBRANCH   6   8
ENDBRANCH   5   6
ENDBRANCH   4   5
ENDBRANCH   2   4
ENDBRANCH   1   2
BRANCH   1  14
ATOM     14  C   UNL     1       1.022   0.000   0.000  0.00  0.00    +0.000 C 
BRANCH  14  15
ATOM     15  C   UNL     1       1.756  -0.426   0.000  0.00  0.00    +0.000 C 
BRANCH  15  19
ATOM     16  O   UNL     1       5.321   0.809   0.000  0.00  0.00    +0.000 OA
ATOM     17  O   UNL     1       3.182  -1.234   0.000  0.00  0.00    +0.000 OA
ATOM     18  N   UNL     1       3.895  -0.011   0.000  0.00  0.00    +0.000 N 
ATOM     19  N   UNL     1       2.469  -0.011   0.000  0.00  0.00    +0.000 NA
ATOM     20  C   UNL     1       3.182  -0.426   0.000  0.00  0.00    +0.000 C 
ATOM     21  C   UNL     1       4.608  -0.426   0.000  0.00  0.00    +0.000 C 
ATOM     22  C   UNL     1       3.895   0.809   0.000  0.00  0.00    +0.000 C 
ATOM     23  C   UNL     1       5.321  -0.011   0.000  0.00  0.00    +0.000 C 
ATOM     24  C   UNL     1       4.608   1.224   0.000  0.00  0.00    +0.000 C 
ENDBRANCH  15  19
ENDBRANCH  14  15
ENDBRANCH   1  14
TORSDOF 8
