REMARK  Name = 
REMARK  1 active torsions:
REMARK  status: ('A' for Active; 'I' for Inactive)
REMARK    1  A    between atoms: C_2  and  C_7
REMARK                            x       y       z     vdW  Elec       q    Type
REMARK                         _______ _______ _______ _____ _____    ______ ____
ROOT
ATOM      1  N   UNL     1      -0.463  -0.519   0.000  0.00  0.00    +0.000 NA
ATOM      2  C   UNL     1      -1.178  -0.107   0.000  0.00  0.00    +0.000 A 
ATOM      3  N   UNL     1      -1.178   0.718   0.000  0.00  0.00    +0.000 NA
ATOM      4  C   UNL     1      -0.463   1.130   0.000  0.00  0.00    +0.000 A 
ATOM      5  C   UNL     1       0.251  -0.107   0.000  0.00  0.00    +0.000 A 
ATOM      6  C   UNL     1       0.251   0.718   0.000  0.00  0.00    +0.000 A 
ATOM      7  O   UNL     1       1.036   0.973   0.000  0.00  0.00    +0.000 OA
ATOM      8  C   UNL     1       1.036  -0.362   0.000  0.00  0.00    +0.000 A 
ATOM      9  C   UNL     1       1.521   0.305   0.000  0.00  0.00    +0.000 A 
ATOM     10  C   UNL     1       2.341   0.219   0.000  0.00  0.00    +0.000 A 
ATOM     11  C   UNL     1       2.677  -0.534   0.000  0.00  0.00    +0.000 A 
ATOM     12  C   UNL     1       2.192  -1.202   0.000  0.00  0.00    +0.000 A 
ATOM     13  C   UNL     1       1.371  -1.116   0.000  0.00  0.00    +0.000 A 
ATOM     14 CL   UNL     1       2.527  -1.955   0.000  0.00  0.00    +0.000 Cl
ATOM     15  O   UNL     1      -0.463   1.955   0.000  0.00  0.00    +0.000 OA
ENDROOT
BRANCH   2  17
ATOM     16  N   UNL     1      -2.677  -0.775   0.000  0.00  0.00    +0.000 NA
ATOM     17  C   UNL     1      -1.892  -0.520   0.000  0.00  0.00    +0.000 C 
ATOM     18  C   UNL     1      -1.407  -1.187   0.000  0.00  0.00    +0.000 C 
ATOM     19  C   UNL     1      -1.892  -1.854   0.000  0.00  0.00    +0.000 C 
ATOM     20  C   UNL     1      -2.677  -1.600   0.000  0.00  0.00    +0.000 C 
ENDBRANCH   2  17
TORSDOF 1
