REMARK  Name = 
REMARK  4 active torsions:
REMARK  status: ('A' for Active; 'I' for Inactive)
REMARK    1  A    between atoms: C_2  and  C_5
REMARK    2  A    between atoms: C_7  and  C_12
REMARK    3  A    between atoms: C_12  and  C_15
REMARK    4  A    between atoms: C_19  and  C_21
REMARK                            x       y       z     vdW  Elec       q    Type
REMARK                         _______ _______ _______ _____ _____    ______ ____
ROOT
ATOM      1  C   UNL     1       2.143  -3.712   0.000  0.00  0.00    +0.000 C 
ATOM      2  C   UNL     1       1.731  -4.427   0.000  0.00  0.00    +0.000 C 
ATOM      3  C   UNL     1       2.556  -2.998   0.000  0.00  0.00    +0.000 C 
ENDROOT
BRANCH   1   6
ATOM      4  C   UNL     1       0.715  -2.062   0.000  0.00  0.00    +0.000 A 
ATOM      5  C   UNL     1       1.429  -2.475   0.000  0.00  0.00    +0.000 A 
ATOM      6  C   UNL     1       1.429  -3.300   0.000  0.00  0.00    +0.000 A 
ATOM      7  C   UNL     1       0.715  -3.712   0.000  0.00  0.00    +0.000 A 
ATOM      8  C   UNL     1       0.000  -3.300   0.000  0.00  0.00    +0.000 A 
ATOM      9  C   UNL     1       0.000  -2.475   0.000  0.00  0.00    +0.000 A 
ATOM     10  O   UNL     1      -0.715  -2.062   0.000  0.00  0.00    +0.000 OA
BRANCH   4  12
ATOM     11  C   UNL     1       0.715  -0.412   0.000  0.00  0.00    +0.000 C 
ATOM     12  C   UNL     1       0.715  -1.238   0.000  0.00  0.00    +0.000 C 
ATOM     13  C   UNL     1      -0.111  -1.238   0.000  0.00  0.00    +0.000 C 
ATOM     14  C   UNL     1       1.540  -1.238   0.000  0.00  0.00    +0.000 C 
ENDBRANCH   4  12
ENDBRANCH   1   6
BRANCH   1  15
ATOM     15  C   UNL     1       2.858  -4.125   0.000  0.00  0.00    +0.000 A 
ATOM     16  C   UNL     1       3.572  -3.712   0.000  0.00  0.00    +0.000 A 
ATOM     17  C   UNL     1       4.287  -4.125   0.000  0.00  0.00    +0.000 A 
ATOM     18  C   UNL     1       4.287  -4.950   0.000  0.00  0.00    +0.000 A 
ATOM     19  C   UNL     1       3.572  -5.362   0.000  0.00  0.00    +0.000 A 
ATOM     20  C   UNL     1       2.858  -4.950   0.000  0.00  0.00    +0.000 A 
ATOM     21  O   UNL     1       5.001  -5.362   0.000  0.00  0.00    +0.000 OA
BRANCH  19  22
ATOM     22  C   UNL     1       3.572  -6.188   0.000  0.00  0.00    +0.000 C 
ATOM     23  C   UNL     1       3.572  -7.013   0.000  0.00  0.00    +0.000 C 
ATOM     24  C   UNL     1       2.747  -6.188   0.000  0.00  0.00    +0.000 C 
ATOM     25  C   UNL     1       4.397  -6.188   0.000  0.00  0.00    +0.000 C 
ENDBRANCH  19  22
ENDBRANCH   1  15
TORSDOF 4
