REMARK  Name = 
REMARK  12 active torsions:
REMARK  status: ('A' for Active; 'I' for Inactive)
REMARK    1  A    between atoms: C_3  and  C_7
REMARK    2  A    between atoms: C_4  and  N_11
REMARK    3  A    between atoms: C_12  and  C_13
REMARK    4  A    between atoms: N_14  and  C_15
REMARK    5  A    between atoms: C_15  and  C_16
REMARK    6  A    between atoms: N_17  and  C_18
REMARK    7  A    between atoms: C_18  and  C_19
REMARK    8  A    between atoms: C_18  and  C_33
REMARK    9  A    between atoms: C_19  and  C_20
REMARK   10  A    between atoms: C_20  and  O_21
REMARK   11  A    between atoms: O_21  and  C_22
REMARK   12  A    between atoms: C_33  and  C_34
REMARK                            x       y       z     vdW  Elec       q    Type
REMARK                         _______ _______ _______ _____ _____    ______ ____
ROOT
ATOM      1  C   UNL     1      -0.298   0.001   0.000  0.00  0.00    +0.000 C 
ATOM      2  N   UNL     1       0.417  -0.411   0.000  0.00  0.00    +0.000 NA
ATOM      3  O   UNL     1      -0.299   0.826   0.000  0.00  0.00    +0.000 OA
ENDROOT
BRANCH   1   4
ATOM      4  C   UNL     1      -1.012  -0.413   0.000  0.00  0.00    +0.000 C 
ATOM      5  C   UNL     1      -1.010  -1.238   0.000  0.00  0.00    +0.000 C 
BRANCH   4   7
ATOM      6  C   UNL     1      -2.441  -0.415   0.000  0.00  0.00    +0.000 C 
ATOM      7  N   UNL     1      -1.727  -0.001   0.000  0.00  0.00    +0.000 NA
ATOM      8  O   UNL     1      -2.439  -1.240   0.000  0.00  0.00    +0.000 OA
BRANCH   6  10
ATOM      9  N   UNL     1      -3.869  -0.417   0.000  0.00  0.00    +0.000 NA
ATOM     10  C   UNL     1      -3.156  -0.004   0.000  0.00  0.00    +0.000 C 
ATOM     11  O   UNL     1      -3.157   0.821   0.000  0.00  0.00    +0.000 OA
BRANCH   9  15
ATOM     12  C   UNL     1      -6.015   0.821   0.000  0.00  0.00    +0.000 A 
ATOM     13  C   UNL     1      -6.016  -0.006   0.000  0.00  0.00    +0.000 A 
ATOM     14  C   UNL     1      -5.301  -0.419   0.000  0.00  0.00    +0.000 A 
ATOM     15  C   UNL     1      -4.585  -0.006   0.000  0.00  0.00    +0.000 A 
ATOM     16  C   UNL     1      -4.588   0.825   0.000  0.00  0.00    +0.000 A 
ATOM     17  C   UNL     1      -5.303   1.234   0.000  0.00  0.00    +0.000 A 
BRANCH  14  18
ATOM     18  C   UNL     1      -5.301  -1.244   0.000  0.00  0.00    +0.000 C 
ATOM     19  C   UNL     1      -5.309  -2.067   0.000  0.00  0.00    +0.000 C 
ATOM     20  C   UNL     1      -4.480  -1.242   0.000  0.00  0.00    +0.000 C 
ATOM     21  C   UNL     1      -6.130  -1.242   0.000  0.00  0.00    +0.000 C 
ENDBRANCH  14  18
ENDBRANCH   9  15
ENDBRANCH   6  10
ENDBRANCH   4   7
ENDBRANCH   1   4
BRANCH   2  22
ATOM     22  C   UNL     1       1.131   0.003   0.000  0.00  0.00    +0.000 C 
BRANCH  22  23
ATOM     23  C   UNL     1       1.846  -0.408   0.000  0.00  0.00    +0.000 C 
ATOM     24  O   UNL     1       1.847  -1.233   0.000  0.00  0.00    +0.000 OA
BRANCH  23  25
ATOM     25  C   UNL     1       2.560   0.005   0.000  0.00  0.00    +0.000 C 
BRANCH  25  26
ATOM     26  O   UNL     1       3.275  -0.406   0.000  0.00  0.00    +0.000 OA
BRANCH  26  27
ATOM     27  C   UNL     1       3.989   0.007   0.000  0.00  0.00    +0.000 A 
ATOM     28  C   UNL     1       4.702  -0.408   0.000  0.00  0.00    +0.000 A 
ATOM     29  C   UNL     1       5.415   0.004   0.000  0.00  0.00    +0.000 A 
ATOM     30  C   UNL     1       5.414   0.830   0.000  0.00  0.00    +0.000 A 
ATOM     31  C   UNL     1       4.694   1.242   0.000  0.00  0.00    +0.000 A 
ATOM     32  C   UNL     1       3.984   0.826   0.000  0.00  0.00    +0.000 A 
ATOM     33  F   UNL     1       6.130  -0.407   0.000  0.00  0.00    +0.000 F 
ATOM     34  F   UNL     1       4.700  -1.233   0.000  0.00  0.00    +0.000 F 
ATOM     35  F   UNL     1       4.690   2.067   0.000  0.00  0.00    +0.000 F 
ATOM     36  F   UNL     1       3.267   1.234   0.000  0.00  0.00    +0.000 F 
ENDBRANCH  26  27
ENDBRANCH  25  26
ENDBRANCH  23  25
ENDBRANCH  22  23
BRANCH  22  37
ATOM     37  C   UNL     1       1.130   0.828   0.000  0.00  0.00    +0.000 C 
BRANCH  37  38
ATOM     38  C   UNL     1       1.844   1.242   0.000  0.00  0.00    +0.000 C 
ATOM     39  O   UNL     1       2.559   0.830   0.000  0.00  0.00    +0.000 OA
ATOM     40  O   UNL     1       1.842   2.067   0.000  0.00  0.00    +0.000 OA
ENDBRANCH  37  38
ENDBRANCH  22  37
ENDBRANCH   2  22
TORSDOF 12
