REMARK  Name = 
REMARK  5 active torsions:
REMARK  status: ('A' for Active; 'I' for Inactive)
REMARK    1  A    between atoms: N_3  and  C_6
REMARK    2  A    between atoms: C_6  and  C_7
REMARK    3  A    between atoms: N_8  and  C_9
REMARK    4  A    between atoms: C_12  and  N_31
REMARK    5  A    between atoms: C_14  and  C_28
REMARK                            x       y       z     vdW  Elec       q    Type
REMARK                         _______ _______ _______ _____ _____    ______ ____
ROOT
ATOM      1  C   UNL     1      -1.499   0.617   0.000  0.00  0.00    +0.000 A 
ATOM      2  C   UNL     1       2.778   0.614   0.000  0.00  0.00    +0.000 C 
ATOM      3  C   UNL     1       2.777  -0.211   0.000  0.00  0.00    +0.000 C 
ATOM      4  C   UNL     1       3.488  -0.621   0.000  0.00  0.00    +0.000 C 
ATOM      5  C   UNL     1       4.201  -0.213   0.000  0.00  0.00    +0.000 C 
ATOM      6  C   UNL     1       4.202   0.612   0.000  0.00  0.00    +0.000 C 
ATOM      7  C   UNL     1       3.491   1.030   0.000  0.00  0.00    +0.000 C 
ATOM      8  C   UNL     1       1.353   0.616   0.000  0.00  0.00    +0.000 C 
ATOM      9  C   UNL     1       1.351  -0.209   0.000  0.00  0.00    +0.000 C 
ATOM     10  C   UNL     1       2.063  -0.619   0.000  0.00  0.00    +0.000 C 
ATOM     11  C   UNL     1       2.065   1.032   0.000  0.00  0.00    +0.000 C 
ATOM     12  C   UNL     1      -0.071   0.618   0.000  0.00  0.00    +0.000 A 
ATOM     13  C   UNL     1      -0.073  -0.207   0.000  0.00  0.00    +0.000 A 
ATOM     14  C   UNL     1       0.639  -0.617   0.000  0.00  0.00    +0.000 C 
ATOM     15  C   UNL     1       0.641   1.034   0.000  0.00  0.00    +0.000 C 
ATOM     16  C   UNL     1      -1.501  -0.211   0.000  0.00  0.00    +0.000 A 
ATOM     17  C   UNL     1      -0.787  -0.625   0.000  0.00  0.00    +0.000 A 
ATOM     18  C   UNL     1      -0.786   1.028   0.000  0.00  0.00    +0.000 A 
ATOM     19  F   UNL     1      -0.796  -1.447   0.000  0.00  0.00    +0.000 F 
ATOM     20  O   UNL     1      -0.791   1.857   0.000  0.00  0.00    +0.000 OA
ATOM     21  O   UNL     1       0.638   1.859   0.000  0.00  0.00    +0.000 OA
ATOM     22  O   UNL     1       2.059   1.857   0.000  0.00  0.00    +0.000 OA
ATOM     23  O   UNL     1       3.484   1.855   0.000  0.00  0.00    +0.000 OA
ATOM     24  O   UNL     1       2.771   1.440   0.000  0.00  0.00    +0.000 OA
ATOM     25  O   UNL     1       4.910  -0.627   0.000  0.00  0.00    +0.000 OA
ENDROOT
BRANCH   1  27
ATOM     26  C   UNL     1      -2.924   0.619   0.000  0.00  0.00    +0.000 C 
ATOM     27  N   UNL     1      -2.211   1.030   0.000  0.00  0.00    +0.000 NA
ATOM     28  O   UNL     1      -2.932  -0.202   0.000  0.00  0.00    +0.000 OA
BRANCH  26  29
ATOM     29  C   UNL     1      -3.636   1.032   0.000  0.00  0.00    +0.000 C 
BRANCH  29  32
ATOM     30  C   UNL     1      -5.148  -0.448   0.000  0.00  0.00    +0.000 C 
ATOM     31  C   UNL     1      -4.361  -0.200   0.000  0.00  0.00    +0.000 C 
ATOM     32  N   UNL     1      -4.351   0.625   0.000  0.00  0.00    +0.000 NA
ATOM     33  C   UNL     1      -5.136   0.888   0.000  0.00  0.00    +0.000 C 
ATOM     34  C   UNL     1      -5.624   0.224   0.000  0.00  0.00    +0.000 C 
ENDBRANCH  29  32
ENDBRANCH  26  29
ENDBRANCH   1  27
BRANCH   6  35
ATOM     35  C   UNL     1       4.912   1.028   0.000  0.00  0.00    +0.000 C 
ATOM     36  N   UNL     1       5.624   0.614   0.000  0.00  0.00    +0.000 NA
ATOM     37  O   UNL     1       4.909   1.853   0.000  0.00  0.00    +0.000 OA
ENDBRANCH   6  35
BRANCH   4  38
ATOM     38  N   UNL     1       3.487  -1.446   0.000  0.00  0.00    +0.000 NA
ATOM     39  C   UNL     1       4.201  -1.859   0.000  0.00  0.00    +0.000 C 
ATOM     40  C   UNL     1       2.772  -1.857   0.000  0.00  0.00    +0.000 C 
ENDBRANCH   4  38
TORSDOF 5
