REMARK  Name = 
REMARK  10 active torsions:
REMARK  status: ('A' for Active; 'I' for Inactive)
REMARK    1  A    between atoms: O_2  and  C_3
REMARK    2  A    between atoms: C_5  and  C_23
REMARK    3  A    between atoms: C_6  and  C_11
REMARK    4  A    between atoms: C_8  and  C_9
REMARK    5  A    between atoms: N_13  and  C_14
REMARK    6  A    between atoms: C_17  and  C_20
REMARK    7  A    between atoms: C_26  and  C_32
REMARK    8  A    between atoms: CA_28  and  C_29
REMARK    9  A    between atoms: N_34  and  C_35
REMARK   10  A    between atoms: C_35  and  C_36
REMARK                            x       y       z     vdW  Elec       q    Type
REMARK                         _______ _______ _______ _____ _____    ______ ____
ROOT
ATOM      1  C   UNL     1      -0.302   6.902   0.000  0.00  0.00    +0.000 A 
ATOM      2  C   UNL     1       0.412   6.489   0.000  0.00  0.00    +0.000 A 
ATOM      3  C   UNL     1       1.127   6.902   0.000  0.00  0.00    +0.000 A 
ATOM      4  C   UNL     1       1.127   7.727   0.000  0.00  0.00    +0.000 A 
ATOM      5  C   UNL     1       0.412   8.139   0.000  0.00  0.00    +0.000 A 
ATOM      6  C   UNL     1      -0.302   7.727   0.000  0.00  0.00    +0.000 A 
ENDROOT
BRANCH   3   7
ATOM      7  C   UNL     1       1.841   6.489   0.000  0.00  0.00    +0.000 A 
ATOM      8  C   UNL     1       2.556   6.902   0.000  0.00  0.00    +0.000 A 
ATOM      9  C   UNL     1       3.270   6.489   0.000  0.00  0.00    +0.000 A 
ATOM     10  C   UNL     1       3.270   5.665   0.000  0.00  0.00    +0.000 A 
ATOM     11  N   UNL     1       2.556   5.252   0.000  0.00  0.00    +0.000 NA
ATOM     12  CA  UNL     1       1.841   5.665   0.000  0.00  0.00    +0.000 A 
BRANCH  12  13
ATOM     13  C   UNL     1       1.127   5.252   0.000  0.00  0.00    +0.000 C 
ATOM     14  O   UNL     1       0.412   5.665   0.000  0.00  0.00    +0.000 OA
ATOM     15  OXT UNL     1       1.127   4.427   0.000  0.00  0.00    +0.000 OA
ENDBRANCH  12  13
BRANCH  10  16
ATOM     16  C   UNL     1       3.985   5.252   0.000  0.00  0.00    +0.000 C 
ATOM     17  O   UNL     1       4.699   5.665   0.000  0.00  0.00    +0.000 OA
ATOM     18  N   UNL     1       3.985   4.427   0.000  0.00  0.00    +0.000 NA
BRANCH  18  19
ATOM     19  C   UNL     1       3.270   4.014   0.000  0.00  0.00    +0.000 C 
BRANCH  19  20
ATOM     20  C   UNL     1       3.270   3.189   0.000  0.00  0.00    +0.000 C 
ATOM     21  C   UNL     1       3.683   2.475   0.000  0.00  0.00    +0.000 C 
ATOM     22  C   UNL     1       2.858   2.475   0.000  0.00  0.00    +0.000 C 
ENDBRANCH  19  20
ENDBRANCH  18  19
ENDBRANCH  10  16
ENDBRANCH   3   7
BRANCH   4  23
ATOM     23  C   UNL     1       1.841   8.139   0.000  0.00  0.00    +0.000 C 
ATOM     24  O   UNL     1       2.556   7.727   0.000  0.00  0.00    +0.000 OA
ATOM     25  N   UNL     1       1.841   8.964   0.000  0.00  0.00    +0.000 NA
BRANCH  25  26
ATOM     26  C   UNL     1       2.556   9.377   0.000  0.00  0.00    +0.000 A 
ATOM     27  C   UNL     1       2.556  10.202   0.000  0.00  0.00    +0.000 A 
ATOM     28  C   UNL     1       3.270  10.614   0.000  0.00  0.00    +0.000 A 
ATOM     29  C   UNL     1       3.985  10.202   0.000  0.00  0.00    +0.000 A 
ATOM     30  C   UNL     1       3.985   9.377   0.000  0.00  0.00    +0.000 A 
ATOM     31  C   UNL     1       3.270   8.964   0.000  0.00  0.00    +0.000 A 
BRANCH  29  32
ATOM     32  C   UNL     1       4.699  10.614   0.000  0.00  0.00    +0.000 C 
ATOM     33  N   UNL     1       5.414  10.202   0.000  0.00  0.00    +0.000 NA
ATOM     34  N   UNL     1       4.699  11.440   0.000  0.00  0.00    +0.000 NA
ENDBRANCH  29  32
ENDBRANCH  25  26
ENDBRANCH   4  23
BRANCH   6  35
ATOM     35  C   UNL     1      -1.016   8.139   0.000  0.00  0.00    +0.000 C 
ATOM     36  C   UNL     1      -1.731   7.727   0.000  0.00  0.00    +0.000 C 
ENDBRANCH   6  35
BRANCH   1  38
ATOM     37  C   UNL     1      -1.731   6.902   0.000  0.00  0.00    +0.000 C 
ATOM     38  O   UNL     1      -1.016   6.489   0.000  0.00  0.00    +0.000 OA
ENDBRANCH   1  38
TORSDOF 10
