REMARK  Name = 
REMARK  5 active torsions:
REMARK  status: ('A' for Active; 'I' for Inactive)
REMARK    1  A    between atoms: N_2  and  C_4
REMARK    2  A    between atoms: C_4  and  C_5
REMARK    3  A    between atoms: C_5  and  C_6
REMARK    4  A    between atoms: C_6  and  C_7
REMARK    5  A    between atoms: C_18  and  O_21
REMARK                            x       y       z     vdW  Elec       q    Type
REMARK                         _______ _______ _______ _____ _____    ______ ____
ROOT
ATOM      1  C   UNL     1       0.052   0.869   0.000  0.00  0.00    +0.000 C 
ATOM      2  C   UNL     1       0.582   0.237   0.000  0.00  0.00    +0.000 A 
ATOM      3  C   UNL     1       0.300  -0.538   0.000  0.00  0.00    +0.000 A 
ATOM      4  C   UNL     1       0.831  -1.171   0.000  0.00  0.00    +0.000 A 
ATOM      5  C   UNL     1       1.643  -1.027   0.000  0.00  0.00    +0.000 A 
ATOM      6  C   UNL     1       1.925  -0.252   0.000  0.00  0.00    +0.000 A 
ATOM      7  C   UNL     1       1.395   0.380   0.000  0.00  0.00    +0.000 A 
ATOM      8  S   UNL     1       1.677   1.155   0.000  0.00  0.00    +0.000 S 
ATOM      9  C   UNL     1       1.147   1.787   0.000  0.00  0.00    +0.000 A 
ATOM     10  C   UNL     1       0.334   1.644   0.000  0.00  0.00    +0.000 A 
ATOM     11  C   UNL     1      -0.196   2.276   0.000  0.00  0.00    +0.000 A 
ATOM     12  C   UNL     1       0.086   3.051   0.000  0.00  0.00    +0.000 A 
ATOM     13  C   UNL     1       0.899   3.195   0.000  0.00  0.00    +0.000 A 
ATOM     14  C   UNL     1       1.429   2.562   0.000  0.00  0.00    +0.000 A 
ATOM     15  O   UNL     1      -0.478   0.237   0.000  0.00  0.00    +0.000 OA
ENDROOT
BRANCH  12  16
ATOM     16  O   UNL     1      -0.444   3.683   0.000  0.00  0.00    +0.000 OA
ATOM     17  C   UNL     1      -0.162   4.458   0.000  0.00  0.00    +0.000 C 
ENDBRANCH  12  16
BRANCH   1  18
ATOM     18  C   UNL     1      -0.662   1.281   0.000  0.00  0.00    +0.000 C 
BRANCH  18  19
ATOM     19  C   UNL     1      -1.377   0.869   0.000  0.00  0.00    +0.000 C 
BRANCH  19  20
ATOM     20  C   UNL     1      -2.091   1.281   0.000  0.00  0.00    +0.000 C 
BRANCH  20  22
ATOM     21  C   UNL     1      -3.520   1.281   0.000  0.00  0.00    +0.000 C 
ATOM     22  N   UNL     1      -2.806   0.869   0.000  0.00  0.00    +0.000 NA
ATOM     23  C   UNL     1      -2.806   0.044   0.000  0.00  0.00    +0.000 C 
ENDBRANCH  20  22
ENDBRANCH  19  20
ENDBRANCH  18  19
ENDBRANCH   1  18
TORSDOF 5
