REMARK  Name = 
REMARK  19 active torsions:
REMARK  status: ('A' for Active; 'I' for Inactive)
REMARK    1  A    between atoms: C_2  and  C_7
REMARK    2  A    between atoms: C_3  and  O_10
REMARK    3  A    between atoms: C_6  and  C_15
REMARK    4  A    between atoms: O_10  and  C_11
REMARK    5  A    between atoms: C_11  and  C_12
REMARK    6  A    between atoms: C_15  and  C_16
REMARK    7  A    between atoms: C_16  and  C_17
REMARK    8  A    between atoms: C_16  and  N_25
REMARK    9  A    between atoms: N_19  and  C_20
REMARK   10  A    between atoms: C_20  and  C_21
REMARK   11  A    between atoms: C_21  and  C_22
REMARK   12  A    between atoms: C_22  and  C_23
REMARK   13  A    between atoms: C_26  and  C_28
REMARK   14  A    between atoms: C_28  and  C_30
REMARK   15  A    between atoms: C_28  and  N_37
REMARK   16  A    between atoms: C_29  and  C_39
REMARK   17  A    between atoms: C_30  and  C_31
REMARK   18  A    between atoms: C_39  and  C_40
REMARK   19  A    between atoms: C_40  and  C_41
REMARK                            x       y       z     vdW  Elec       q    Type
REMARK                         _______ _______ _______ _____ _____    ______ ____
ROOT
ATOM      1  C   UNL     1      -0.710   0.212   0.000  0.00  0.00    +0.000 C 
ENDROOT
BRANCH   1   2
ATOM      2  C   UNL     1      -0.710  -0.613   0.000  0.00  0.00    +0.000 C 
ATOM      3  O   UNL     1      -1.432  -1.037   0.000  0.00  0.00    +0.000 OA
ATOM      4  N   UNL     1       0.000  -1.037   0.000  0.00  0.00    +0.000 NA
BRANCH   4   5
ATOM      5  C   UNL     1       0.000  -1.862   0.000  0.00  0.00    +0.000 C 
BRANCH   5   6
ATOM      6  C   UNL     1       0.710  -2.274   0.000  0.00  0.00    +0.000 C 
BRANCH   6   7
ATOM      7  C   UNL     1       1.432  -1.862   0.000  0.00  0.00    +0.000 C 
BRANCH   7   8
ATOM      8  C   UNL     1       2.143  -2.274   0.000  0.00  0.00    +0.000 C 
ATOM      9  C   UNL     1       2.864  -1.862   0.000  0.00  0.00    +0.000 C 
ENDBRANCH   7   8
ENDBRANCH   6   7
ENDBRANCH   5   6
ENDBRANCH   4   5
ENDBRANCH   1   2
BRANCH   1  10
ATOM     10  N   UNL     1       0.000   0.624   0.000  0.00  0.00    +0.000 NA
ATOM     11  C   UNL     1       0.710   0.212   0.000  0.00  0.00    +0.000 C 
ATOM     12  O   UNL     1       0.710  -0.613   0.000  0.00  0.00    +0.000 OA
BRANCH  11  13
ATOM     13  C   UNL     1       1.432   0.624   0.000  0.00  0.00    +0.000 C 
BRANCH  13  15
ATOM     14  C   UNL     1       2.864   0.624   0.000  0.00  0.00    +0.000 C 
ATOM     15  N   UNL     1       2.154   0.212   0.000  0.00  0.00    +0.000 NA
ATOM     16  O   UNL     1       2.864   1.449   0.000  0.00  0.00    +0.000 OA
BRANCH  14  17
ATOM     17  C   UNL     1       3.586   0.212   0.000  0.00  0.00    +0.000 C 
BRANCH  17  18
ATOM     18  C   UNL     1       4.297   0.624   0.000  0.00  0.00    +0.000 C 
BRANCH  18  19
ATOM     19  C   UNL     1       5.019   0.212   0.000  0.00  0.00    +0.000 C 
ATOM     20  O   UNL     1       5.019  -0.613   0.000  0.00  0.00    +0.000 OA
ATOM     21  O   UNL     1       5.729   0.624   0.000  0.00  0.00    +0.000 OA
ENDBRANCH  18  19
ENDBRANCH  17  18
ENDBRANCH  14  17
ENDBRANCH  13  15
BRANCH  13  22
ATOM     22  C   UNL     1       1.432   1.449   0.000  0.00  0.00    +0.000 C 
BRANCH  22  23
ATOM     23  C   UNL     1       0.722   1.862   0.000  0.00  0.00    +0.000 A 
ATOM     24  C   UNL     1       0.000   3.099   0.000  0.00  0.00    +0.000 A 
ATOM     25  C   UNL     1      -0.710   2.687   0.000  0.00  0.00    +0.000 A 
ATOM     26  C   UNL     1      -0.710   1.862   0.000  0.00  0.00    +0.000 A 
ATOM     27  C   UNL     1       0.000   1.449   0.000  0.00  0.00    +0.000 A 
ATOM     28  C   UNL     1       0.722   2.687   0.000  0.00  0.00    +0.000 A 
ENDBRANCH  22  23
ENDBRANCH  13  22
ENDBRANCH  11  13
ENDBRANCH   1  10
BRANCH   1  29
ATOM     29  C   UNL     1      -1.432   0.624   0.000  0.00  0.00    +0.000 C 
BRANCH  29  35
ATOM     30  C   UNL     1      -2.864   0.624   0.000  0.00  0.00    +0.000 A 
ATOM     31  C   UNL     1      -3.586   0.212   0.000  0.00  0.00    +0.000 A 
ATOM     32  C   UNL     1      -3.586  -0.613   0.000  0.00  0.00    +0.000 A 
ATOM     33  C   UNL     1      -2.864  -1.037   0.000  0.00  0.00    +0.000 A 
ATOM     34  C   UNL     1      -2.154  -0.613   0.000  0.00  0.00    +0.000 A 
ATOM     35  C   UNL     1      -2.154   0.212   0.000  0.00  0.00    +0.000 A 
BRANCH  31  36
ATOM     36  C   UNL     1      -4.297   0.624   0.000  0.00  0.00    +0.000 C 
ATOM     37  O   UNL     1      -4.297   1.449   0.000  0.00  0.00    +0.000 OA
ATOM     38  O   UNL     1      -5.019   0.212   0.000  0.00  0.00    +0.000 OA
ENDBRANCH  31  36
BRANCH  32  39
ATOM     39  O   UNL     1      -4.297  -1.037   0.000  0.00  0.00    +0.000 OA
BRANCH  39  40
ATOM     40  C   UNL     1      -4.297  -1.862   0.000  0.00  0.00    +0.000 C 
BRANCH  40  41
ATOM     41  C   UNL     1      -5.019  -2.274   0.000  0.00  0.00    +0.000 C 
ATOM     42  O   UNL     1      -5.019  -3.099   0.000  0.00  0.00    +0.000 OA
ATOM     43  O   UNL     1      -5.729  -1.862   0.000  0.00  0.00    +0.000 OA
ENDBRANCH  40  41
ENDBRANCH  39  40
ENDBRANCH  32  39
ENDBRANCH  29  35
ENDBRANCH   1  29
TORSDOF 19
