REMARK  Name = 
REMARK  2 active torsions:
REMARK  status: ('A' for Active; 'I' for Inactive)
REMARK    1  A    between atoms: C_6  and  C_12
REMARK    2  A    between atoms: C_18  and  N_23
REMARK                            x       y       z     vdW  Elec       q    Type
REMARK                         _______ _______ _______ _____ _____    ______ ____
ROOT
ATOM      1  C   UNL     1       2.760   6.524   0.000  0.00  0.00    +0.000 A 
ATOM      2  C   UNL     1       3.172   5.809   0.000  0.00  0.00    +0.000 A 
ATOM      3  C   UNL     1       2.760   5.095   0.000  0.00  0.00    +0.000 A 
ATOM      4  O   UNL     1       3.172   4.380   0.000  0.00  0.00    +0.000 OA
ATOM      5  N   UNL     1       1.935   5.095   0.000  0.00  0.00    +0.000 N 
ATOM      6  C   UNL     1       1.522   4.380   0.000  0.00  0.00    +0.000 A 
ATOM      7  C   UNL     1       0.697   4.380   0.000  0.00  0.00    +0.000 A 
ATOM      8  C   UNL     1       0.285   5.095   0.000  0.00  0.00    +0.000 A 
ATOM      9  C   UNL     1       0.697   5.809   0.000  0.00  0.00    +0.000 A 
ATOM     10  C   UNL     1       1.522   5.809   0.000  0.00  0.00    +0.000 A 
ATOM     11  N   UNL     1       1.935   6.524   0.000  0.00  0.00    +0.000 NA
ENDROOT
BRANCH   1  17
ATOM     12  C   UNL     1       6.018   9.357   0.000  0.00  0.00    +0.000 C 
ATOM     13  C   UNL     1       5.303   8.945   0.000  0.00  0.00    +0.000 A 
ATOM     14  C   UNL     1       5.217   8.124   0.000  0.00  0.00    +0.000 A 
ATOM     15  N   UNL     1       4.410   7.953   0.000  0.00  0.00    +0.000 N 
ATOM     16  N   UNL     1       3.997   7.238   0.000  0.00  0.00    +0.000 NA
ATOM     17  C   UNL     1       3.172   7.238   0.000  0.00  0.00    +0.000 A 
ATOM     18  C   UNL     1       2.760   7.953   0.000  0.00  0.00    +0.000 A 
ATOM     19  C   UNL     1       3.172   8.667   0.000  0.00  0.00    +0.000 A 
ATOM     20  C   UNL     1       2.760   9.382   0.000  0.00  0.00    +0.000 C 
ATOM     21  C   UNL     1       3.997   8.667   0.000  0.00  0.00    +0.000 A 
ATOM     22  N   UNL     1       4.549   9.280   0.000  0.00  0.00    +0.000 NA
ENDBRANCH   1  17
BRANCH   7  23
ATOM     23  N   UNL     1       0.285   3.666   0.000  0.00  0.00    +0.000 N 
ATOM     24  C   UNL     1       0.697   2.951   0.000  0.00  0.00    +0.000 C 
ATOM     25  C   UNL     1       0.285   2.237   0.000  0.00  0.00    +0.000 C 
ATOM     26  N   UNL     1      -0.540   2.237   0.000  0.00  0.00    +0.000 NA
ATOM     27  C   UNL     1      -0.953   2.951   0.000  0.00  0.00    +0.000 C 
ATOM     28  C   UNL     1      -1.667   2.539   0.000  0.00  0.00    +0.000 C 
ATOM     29  C   UNL     1      -1.667   3.364   0.000  0.00  0.00    +0.000 C 
ATOM     30  C   UNL     1      -0.540   3.666   0.000  0.00  0.00    +0.000 C 
ENDBRANCH   7  23
TORSDOF 2
