REMARK  Name = 
REMARK  5 active torsions:
REMARK  status: ('A' for Active; 'I' for Inactive)
REMARK    1  A    between atoms: N_1  and  C_6
REMARK    2  A    between atoms: N_1  and  S_11
REMARK    3  A    between atoms: C_3  and  N_10
REMARK    4  A    between atoms: C_7  and  O_8
REMARK    5  A    between atoms: O_8  and  C_9
REMARK                            x       y       z     vdW  Elec       q    Type
REMARK                         _______ _______ _______ _____ _____    ______ ____
ROOT
ATOM      1  C   UNL     1      -1.049  -0.393   0.000  0.00  0.00    +0.000 A 
ATOM      2  C   UNL     1      -1.027  -1.224   0.000  0.00  0.00    +0.000 A 
ATOM      3  C   UNL     1      -0.295  -1.620   0.000  0.00  0.00    +0.000 A 
ATOM      4  C   UNL     1       0.394  -1.186   0.000  0.00  0.00    +0.000 A 
ATOM      5  C   UNL     1       0.394  -0.355   0.000  0.00  0.00    +0.000 A 
ATOM      6  C   UNL     1      -0.338   0.019   0.000  0.00  0.00    +0.000 A 
ENDROOT
BRANCH   2   7
ATOM      7  N   UNL     1      -1.737  -1.658   0.000  0.00  0.00    +0.000 N 
ATOM      8  O   UNL     1      -1.716  -2.483   0.000  0.00  0.00    +0.000 OA
ATOM      9  O   UNL     1      -2.462  -1.264   0.000  0.00  0.00    +0.000 OA
ENDBRANCH   2   7
BRANCH   5  10
ATOM     10  N   UNL     1       1.104   0.079   0.000  0.00  0.00    +0.000 NA
BRANCH  10  11
ATOM     11  S   UNL     1       1.829  -0.315   0.000  0.00  0.00    +0.000 S 
ATOM     12  C   UNL     1       2.543   0.097   0.000  0.00  0.00    +0.000 C 
ATOM     13  O   UNL     1       1.416  -1.030   0.000  0.00  0.00    +0.000 OA
ATOM     14  O   UNL     1       2.241  -1.030   0.000  0.00  0.00    +0.000 OA
ENDBRANCH  10  11
ENDBRANCH   5  10
BRANCH   6  15
ATOM     15  O   UNL     1      -0.360   0.850   0.000  0.00  0.00    +0.000 OA
BRANCH  15  16
ATOM     16  C   UNL     1      -1.114   1.245   0.000  0.00  0.00    +0.000 C 
ATOM     17  C   UNL     1      -1.828   2.483   0.000  0.00  0.00    +0.000 C 
ATOM     18  C   UNL     1      -2.543   2.070   0.000  0.00  0.00    +0.000 C 
ATOM     19  C   UNL     1      -2.543   1.245   0.000  0.00  0.00    +0.000 C 
ATOM     20  C   UNL     1      -1.828   0.833   0.000  0.00  0.00    +0.000 C 
ATOM     21  C   UNL     1      -1.114   2.070   0.000  0.00  0.00    +0.000 C 
ENDBRANCH  15  16
ENDBRANCH   6  15
TORSDOF 5
