REMARK  Name = 
REMARK  10 active torsions:
REMARK  status: ('A' for Active; 'I' for Inactive)
REMARK    1  A    between atoms: O_2  and  C_23
REMARK    2  A    between atoms: O_2  and  C_34
REMARK    3  A    between atoms: N_12  and  C_21
REMARK    4  A    between atoms: N_13  and  C_22
REMARK    5  A    between atoms: N_14  and  C_18
REMARK    6  A    between atoms: N_15  and  C_39
REMARK    7  A    between atoms: C_18  and  C_21
REMARK    8  A    between atoms: C_18  and  C_22
REMARK    9  A    between atoms: C_20  and  C_28
REMARK   10  A    between atoms: C_33  and  C_35
REMARK                            x       y       z     vdW  Elec       q    Type
REMARK                         _______ _______ _______ _____ _____    ______ ____
ROOT
ATOM      1  C   UNL     1       1.429  -1.031   0.000  0.00  0.00    +0.000 A 
ATOM      2  C   UNL     1       0.715   0.206   0.000  0.00  0.00    +0.000 A 
ATOM      3  C   UNL     1       0.715  -0.619   0.000  0.00  0.00    +0.000 A 
ATOM      4  C   UNL     1       2.143  -0.619   0.000  0.00  0.00    +0.000 A 
ATOM      5  C   UNL     1       1.429   0.619   0.000  0.00  0.00    +0.000 A 
ATOM      6  C   UNL     1       2.143   0.206   0.000  0.00  0.00    +0.000 A 
ENDROOT
BRANCH   2   9
ATOM      7  O   UNL     1      -0.715   0.206   0.000  0.00  0.00    +0.000 OA
ATOM      8  N   UNL     1       0.000   1.444   0.000  0.00  0.00    +0.000 N 
ATOM      9  C   UNL     1       0.000   0.619   0.000  0.00  0.00    +0.000 C 
ATOM     10  H   UNL     1       0.443   1.700   0.000  0.00  0.00    +0.000 HD
BRANCH   8  11
ATOM     11  C   UNL     1      -0.715   1.856   0.000  0.00  0.00    +0.000 C 
BRANCH  11  12
ATOM     12  C   UNL     1      -0.715   2.681   0.000  0.00  0.00    +0.000 C 
BRANCH  12  14
ATOM     13  O   UNL     1       1.429   3.919   0.000  0.00  0.00    +0.000 OA
ATOM     14  N   UNL     1       0.000   3.094   0.000  0.00  0.00    +0.000 NA
ATOM     15  C   UNL     1       0.000   3.919   0.000  0.00  0.00    +0.000 C 
ATOM     16  C   UNL     1       0.715   2.681   0.000  0.00  0.00    +0.000 C 
ATOM     17  C   UNL     1       0.715   4.331   0.000  0.00  0.00    +0.000 C 
ATOM     18  C   UNL     1       1.429   3.094   0.000  0.00  0.00    +0.000 C 
ENDBRANCH  12  14
ENDBRANCH  11  12
BRANCH  11  19
ATOM     19  C   UNL     1      -1.429   1.444   0.000  0.00  0.00    +0.000 C 
BRANCH  19  21
ATOM     20  O   UNL     1      -3.572   2.681   0.000  0.00  0.00    +0.000 OA
ATOM     21  N   UNL     1      -2.143   1.856   0.000  0.00  0.00    +0.000 NA
ATOM     22  C   UNL     1      -2.143   2.681   0.000  0.00  0.00    +0.000 C 
ATOM     23  C   UNL     1      -2.858   1.444   0.000  0.00  0.00    +0.000 C 
ATOM     24  C   UNL     1      -2.858   3.094   0.000  0.00  0.00    +0.000 C 
ATOM     25  C   UNL     1      -3.572   1.856   0.000  0.00  0.00    +0.000 C 
ENDBRANCH  19  21
ENDBRANCH  11  19
ENDBRANCH   8  11
ENDBRANCH   2   9
BRANCH   6  28
ATOM     26  O   UNL     1       2.858   1.444   0.000  0.00  0.00    +0.000 OA
ATOM     27  O   UNL     1       3.572   0.206   0.000  0.00  0.00    +0.000 OA
ATOM     28  N   UNL     1       2.858   0.619   0.000  0.00  0.00    +0.000 N 
ENDBRANCH   6  28
BRANCH   1  29
ATOM     29  O   UNL     1       1.429  -1.856   0.000  0.00  0.00    +0.000 OA
BRANCH  29  38
ATOM     30  O   UNL     1       0.000  -1.856   0.000  0.00  0.00    +0.000 OA
ATOM     31  O   UNL     1       0.000  -4.331   0.000  0.00  0.00    +0.000 OA
ATOM     32  O   UNL     1      -1.429  -3.506   0.000  0.00  0.00    +0.000 OA
ATOM     33  O   UNL     1       1.429  -3.506   0.000  0.00  0.00    +0.000 OA
ATOM     34  C   UNL     1       0.000  -3.506   0.000  0.00  0.00    +0.000 C 
ATOM     35  C   UNL     1      -0.715  -3.094   0.000  0.00  0.00    +0.000 C 
ATOM     36  C   UNL     1       0.715  -3.094   0.000  0.00  0.00    +0.000 C 
ATOM     37  C   UNL     1      -0.715  -2.269   0.000  0.00  0.00    +0.000 C 
ATOM     38  C   UNL     1       0.715  -2.269   0.000  0.00  0.00    +0.000 C 
BRANCH  37  40
ATOM     39  O   UNL     1      -1.429  -1.031   0.000  0.00  0.00    +0.000 OA
ATOM     40  C   UNL     1      -1.429  -1.856   0.000  0.00  0.00    +0.000 C 
ENDBRANCH  37  40
ENDBRANCH  29  38
ENDBRANCH   1  29
TORSDOF 10
