REMARK  Name = 
REMARK  11 active torsions:
REMARK  status: ('A' for Active; 'I' for Inactive)
REMARK    1  A    between atoms: C_6  and  O_37
REMARK    2  A    between atoms: C_7  and  C_21
REMARK    3  A    between atoms: C_8  and  C_24
REMARK    4  A    between atoms: C_21  and  O_37
REMARK    5  A    between atoms: C_22  and  N_33
REMARK    6  A    between atoms: C_23  and  N_34
REMARK    7  A    between atoms: C_25  and  C_30
REMARK    8  A    between atoms: C_26  and  C_31
REMARK    9  A    between atoms: C_27  and  C_32
REMARK   10  A    between atoms: C_28  and  N_33
REMARK   11  A    between atoms: C_29  and  N_34
REMARK                            x       y       z     vdW  Elec       q    Type
REMARK                         _______ _______ _______ _____ _____    ______ ____
ROOT
ATOM      1  C   UNL     1       0.957  -0.203   0.000  0.00  0.00    +0.000 A 
ATOM      2  C   UNL     1       0.290   0.282   0.000  0.00  0.00    +0.000 A 
ATOM      3  C   UNL     1      -0.122  -0.987   0.000  0.00  0.00    +0.000 A 
ATOM      4  N   UNL     1       0.702  -0.987   0.000  0.00  0.00    +0.000 NA
ATOM      5  N   UNL     1      -0.378  -0.203   0.000  0.00  0.00    +0.000 NA
ENDROOT
BRANCH   2  10
ATOM      6  C   UNL     1       1.004   1.520   0.000  0.00  0.00    +0.000 A 
ATOM      7  C   UNL     1      -0.424   1.520   0.000  0.00  0.00    +0.000 A 
ATOM      8  C   UNL     1       1.004   2.345   0.000  0.00  0.00    +0.000 A 
ATOM      9  C   UNL     1      -0.424   2.345   0.000  0.00  0.00    +0.000 A 
ATOM     10  C   UNL     1       0.290   1.107   0.000  0.00  0.00    +0.000 A 
ATOM     11  C   UNL     1       0.290   2.757   0.000  0.00  0.00    +0.000 A 
BRANCH  11  12
ATOM     12  N   UNL     1       0.290   3.582   0.000  0.00  0.00    +0.000 NA
BRANCH  12  15
ATOM     13  C   UNL     1      -0.424   4.820   0.000  0.00  0.00    +0.000 C 
ATOM     14  C   UNL     1      -1.139   3.582   0.000  0.00  0.00    +0.000 C 
ATOM     15  C   UNL     1      -0.424   3.995   0.000  0.00  0.00    +0.000 C 
ENDBRANCH  12  15
ENDBRANCH  11  12
ENDBRANCH   2  10
BRANCH   3  21
ATOM     16  C   UNL     1      -0.757  -3.076   0.000  0.00  0.00    +0.000 A 
ATOM     17  C   UNL     1      -1.913  -2.236   0.000  0.00  0.00    +0.000 A 
ATOM     18  C   UNL     1      -0.272  -2.409   0.000  0.00  0.00    +0.000 A 
ATOM     19  C   UNL     1      -1.428  -1.569   0.000  0.00  0.00    +0.000 A 
ATOM     20  C   UNL     1      -1.577  -2.990   0.000  0.00  0.00    +0.000 A 
ATOM     21  C   UNL     1      -0.608  -1.655   0.000  0.00  0.00    +0.000 A 
BRANCH  20  23
ATOM     22  C   UNL     1      -2.883  -3.571   0.000  0.00  0.00    +0.000 C 
ATOM     23  C   UNL     1      -2.062  -3.657   0.000  0.00  0.00    +0.000 C 
BRANCH  22  24
ATOM     24  C   UNL     1      -3.368  -4.238   0.000  0.00  0.00    +0.000 C 
BRANCH  24  25
ATOM     25  O   UNL     1      -4.188  -4.152   0.000  0.00  0.00    +0.000 OA
BRANCH  25  27
ATOM     26  C   UNL     1      -5.494  -4.733   0.000  0.00  0.00    +0.000 C 
ATOM     27  C   UNL     1      -4.673  -4.820   0.000  0.00  0.00    +0.000 C 
ENDBRANCH  25  27
ENDBRANCH  24  25
ENDBRANCH  22  24
ENDBRANCH  20  23
ENDBRANCH   3  21
BRANCH   1  32
ATOM     28  C   UNL     1       2.355  -0.500   0.000  0.00  0.00    +0.000 A 
ATOM     29  C   UNL     1       1.913   0.859   0.000  0.00  0.00    +0.000 A 
ATOM     30  C   UNL     1       3.140  -0.245   0.000  0.00  0.00    +0.000 A 
ATOM     31  C   UNL     1       2.698   1.114   0.000  0.00  0.00    +0.000 A 
ATOM     32  C   UNL     1       1.742   0.052   0.000  0.00  0.00    +0.000 A 
ATOM     33  C   UNL     1       3.311   0.562   0.000  0.00  0.00    +0.000 A 
BRANCH  33  34
ATOM     34  N   UNL     1       4.096   0.817   0.000  0.00  0.00    +0.000 NA
BRANCH  34  37
ATOM     35  C   UNL     1       5.494   0.520   0.000  0.00  0.00    +0.000 C 
ATOM     36  C   UNL     1       4.537  -0.542   0.000  0.00  0.00    +0.000 C 
ATOM     37  C   UNL     1       4.709   0.265   0.000  0.00  0.00    +0.000 C 
ENDBRANCH  34  37
ENDBRANCH  33  34
ENDBRANCH   1  32
TORSDOF 11
