REMARK  Name = 
REMARK  0 active torsions:
REMARK  status: ('A' for Active; 'I' for Inactive)
REMARK                            x       y       z     vdW  Elec       q    Type
REMARK                         _______ _______ _______ _____ _____    ______ ____
ROOT
ATOM      1 BR   UNL     1      -2.289  -0.667   0.000  0.00  0.00    +0.000 Br
ATOM      2  O   UNL     1      -0.415   0.620   0.000  0.00  0.00    +0.000 OA
ATOM      3  O   UNL     1       1.941  -1.492   0.000  0.00  0.00    +0.000 OA
ATOM      4  N   UNL     1       1.672   0.207   0.000  0.00  0.00    +0.000 N 
ATOM      5  N   UNL     1       0.635  -2.156   0.000  0.00  0.00    +0.000 N 
ATOM      6  C   UNL     1       0.635  -0.828   0.000  0.00  0.00    +0.000 C 
ATOM      7  C   UNL     1       0.891  -0.044   0.000  0.00  0.00    +0.000 C 
ATOM      8  C   UNL     1      -0.146  -1.079   0.000  0.00  0.00    +0.000 A 
ATOM      9  C   UNL     1      -0.146  -1.905   0.000  0.00  0.00    +0.000 A 
ATOM     10  C   UNL     1       0.891   1.284   0.000  0.00  0.00    +0.000 A 
ATOM     11  C   UNL     1       1.675   1.028   0.000  0.00  0.00    +0.000 A 
ATOM     12  C   UNL     1       0.409   0.620   0.000  0.00  0.00    +0.000 C 
ATOM     13  C   UNL     1       1.116  -1.492   0.000  0.00  0.00    +0.000 C 
ATOM     14  C   UNL     1      -0.860  -0.667   0.000  0.00  0.00    +0.000 A 
ATOM     15  C   UNL     1      -0.860  -2.317   0.000  0.00  0.00    +0.000 A 
ATOM     16  C   UNL     1       0.721   2.091   0.000  0.00  0.00    +0.000 A 
ATOM     17  C   UNL     1       2.289   1.579   0.000  0.00  0.00    +0.000 A 
ATOM     18  C   UNL     1      -1.575  -1.079   0.000  0.00  0.00    +0.000 A 
ATOM     19  C   UNL     1      -1.575  -1.905   0.000  0.00  0.00    +0.000 A 
ATOM     20  C   UNL     1       1.335   2.642   0.000  0.00  0.00    +0.000 A 
ATOM     21  C   UNL     1       2.119   2.386   0.000  0.00  0.00    +0.000 A 
ATOM     22  H   UNL     1       2.084  -0.095   0.000  0.00  0.00    +0.000 HD
ATOM     23  H   UNL     1       0.794  -2.642   0.000  0.00  0.00    +0.000 HD
ENDROOT
TORSDOF 0
