REMARK  Name = 
REMARK  3 active torsions:
REMARK  status: ('A' for Active; 'I' for Inactive)
REMARK    1  A    between atoms: C_15  and  C_24
REMARK    2  A    between atoms: C_16  and  O_28
REMARK    3  A    between atoms: C_24  and  O_28
REMARK                            x       y       z     vdW  Elec       q    Type
REMARK                         _______ _______ _______ _____ _____    ______ ____
ROOT
ATOM      1  C   UNL     1       1.577  -0.387   0.000  0.00  0.00    +0.000 C 
ATOM      2  C   UNL     1       1.268   2.571   0.000  0.00  0.00    +0.000 C 
ATOM      3  C   UNL     1      -1.248   2.973   0.000  0.00  0.00    +0.000 C 
ATOM      4  C   UNL     1       2.892   2.281   0.000  0.00  0.00    +0.000 C 
ATOM      5  C   UNL     1       0.456   2.716   0.000  0.00  0.00    +0.000 C 
ATOM      6  C   UNL     1      -1.259   0.949   0.000  0.00  0.00    +0.000 C 
ATOM      7  C   UNL     1       2.080   2.426   0.000  0.00  0.00    +0.000 C 
ATOM      8  C   UNL     1      -0.357   2.862   0.000  0.00  0.00    +0.000 C 
ATOM      9  C   UNL     1      -1.942   1.412   0.000  0.00  0.00    +0.000 C 
ATOM     10  C   UNL     1       0.484   0.534   0.000  0.00  0.00    +0.000 C 
ATOM     11  C   UNL     1       2.640   0.874   0.000  0.00  0.00    +0.000 C 
ATOM     12  C   UNL     1       1.296   0.389   0.000  0.00  0.00    +0.000 C 
ATOM     13  C   UNL     1       3.172   1.505   0.000  0.00  0.00    +0.000 C 
ATOM     14  C   UNL     1       0.204   1.310   0.000  0.00  0.00    +0.000 C 
ATOM     15  C   UNL     1       0.736   1.940   0.000  0.00  0.00    +0.000 C 
ATOM     16  C   UNL     1      -0.608   1.455   0.000  0.00  0.00    +0.000 C 
ATOM     17  C   UNL     1       1.828   1.019   0.000  0.00  0.00    +0.000 C 
ATOM     18  C   UNL     1       1.548   1.795   0.000  0.00  0.00    +0.000 C 
ATOM     19  C   UNL     1      -0.888   2.231   0.000  0.00  0.00    +0.000 C 
ATOM     20  C   UNL     1      -1.713   2.204   0.000  0.00  0.00    +0.000 C 
ATOM     21  O   UNL     1       3.984   1.360   0.000  0.00  0.00    +0.000 OA
ENDROOT
BRANCH  20  23
ATOM     22  C   UNL     1      -3.057   1.719   0.000  0.00  0.00    +0.000 C 
ATOM     23  C   UNL     1      -2.525   2.349   0.000  0.00  0.00    +0.000 C 
ATOM     24  O   UNL     1      -3.208   2.812   0.000  0.00  0.00    +0.000 OA
ENDBRANCH  20  23
BRANCH  20  25
ATOM     25  O   UNL     1      -1.653   3.027   0.000  0.00  0.00    +0.000 OA
BRANCH  25  27
ATOM     26  C   UNL     1      -3.079   3.130   0.000  0.00  0.00    +0.000 C 
ATOM     27  C   UNL     1      -2.336   3.490   0.000  0.00  0.00    +0.000 C 
ATOM     28  O   UNL     1      -2.277   4.313   0.000  0.00  0.00    +0.000 OA
ENDBRANCH  25  27
ENDBRANCH  20  25
TORSDOF 3
