REMARK  Name = 
REMARK  5 active torsions:
REMARK  status: ('A' for Active; 'I' for Inactive)
REMARK    1  A    between atoms: P_1  and  O_2
REMARK    2  A    between atoms: O_2  and  C_13
REMARK    3  A    between atoms: C_11  and  C_12
REMARK    4  A    between atoms: C_11  and  C_13
REMARK    5  A    between atoms: C_12  and  C_14
REMARK                            x       y       z     vdW  Elec       q    Type
REMARK                         _______ _______ _______ _____ _____    ______ ____
ROOT
ATOM      1  O   UNL     1       0.000   1.031   0.000  0.00  0.00    +0.000 OA
ATOM      2  C   UNL     1       0.000   0.206   0.000  0.00  0.00    +0.000 C 
ENDROOT
BRANCH   2   4
ATOM      3  O   UNL     1      -0.714  -1.031   0.000  0.00  0.00    +0.000 OA
ATOM      4  C   UNL     1      -0.714  -0.206   0.000  0.00  0.00    +0.000 C 
BRANCH   4   8
ATOM      5  O   UNL     1      -1.429   1.031   0.000  0.00  0.00    +0.000 OA
ATOM      6  O   UNL     1      -2.858   0.206   0.000  0.00  0.00    +0.000 OA
ATOM      7  N   UNL     1      -2.143  -0.206   0.000  0.00  0.00    +0.000 N 
ATOM      8  C   UNL     1      -1.429   0.206   0.000  0.00  0.00    +0.000 C 
ATOM      9  H   UNL     1      -2.143  -0.718   0.000  0.00  0.00    +0.000 HD
ENDBRANCH   4   8
ENDBRANCH   2   4
BRANCH   2  10
ATOM     10  C   UNL     1       0.715  -0.206   0.000  0.00  0.00    +0.000 C 
BRANCH  10  11
ATOM     11  O   UNL     1       1.429   0.206   0.000  0.00  0.00    +0.000 OA
BRANCH  11  12
ATOM     12  P   UNL     1       2.143  -0.206   0.000  0.00  0.00    +0.000 P 
ATOM     13  O   UNL     1       2.556   0.508   0.000  0.00  0.00    +0.000 OA
ATOM     14  O   UNL     1       2.858  -0.619   0.000  0.00  0.00    +0.000 OA
ATOM     15  O   UNL     1       1.731  -0.921   0.000  0.00  0.00    +0.000 OA
ENDBRANCH  11  12
ENDBRANCH  10  11
ENDBRANCH   2  10
TORSDOF 5
