REMARK  Name = 
REMARK  8 active torsions:
REMARK  status: ('A' for Active; 'I' for Inactive)
REMARK    1  A    between atoms: C_1  and  C_4
REMARK    2  A    between atoms: C_7  and  C_9
REMARK    3  A    between atoms: C_12  and  S_14
REMARK    4  A    between atoms: S_14  and  C_15
REMARK    5  A    between atoms: C_15  and  C_16
REMARK    6  A    between atoms: C_16  and  C_17
REMARK    7  A    between atoms: C_17  and  N_19
REMARK    8  A    between atoms: N_19  and  C_20
REMARK                            x       y       z     vdW  Elec       q    Type
REMARK                         _______ _______ _______ _____ _____    ______ ____
ROOT
ATOM      1  C   UNL     1      -1.374   0.001   0.000  0.00  0.00    +0.000 A 
ATOM      2  N   UNL     1      -0.721  -0.504   0.000  0.00  0.00    +0.000 NA
ATOM      3  C   UNL     1      -1.107   0.773   0.000  0.00  0.00    +0.000 A 
ATOM      4  C   UNL     1      -0.037   0.001   0.000  0.00  0.00    +0.000 A 
ATOM      5  S   UNL     1      -0.274   0.773   0.000  0.00  0.00    +0.000 S 
ENDROOT
BRANCH   1   9
ATOM      6  C   UNL     1      -3.535   0.001   0.000  0.00  0.00    +0.000 A 
ATOM      7  S   UNL     1      -2.852   0.507   0.000  0.00  0.00    +0.000 S 
ATOM      8  C   UNL     1      -3.298  -0.771   0.000  0.00  0.00    +0.000 A 
ATOM      9  C   UNL     1      -2.199   0.001   0.000  0.00  0.00    +0.000 A 
ATOM     10  C   UNL     1      -2.467  -0.771   0.000  0.00  0.00    +0.000 A 
BRANCH   6  11
ATOM     11  C   UNL     1      -4.250   0.412   0.000  0.00  0.00    +0.000 C 
ATOM     12  N   UNL     1      -4.964   0.001   0.000  0.00  0.00    +0.000 NA
ATOM     13  O   UNL     1      -4.250   1.238   0.000  0.00  0.00    +0.000 OA
ENDBRANCH   6  11
ENDBRANCH   1   9
BRANCH   4  14
ATOM     14  S   UNL     1       0.678  -0.412   0.000  0.00  0.00    +0.000 S 
BRANCH  14  15
ATOM     15  C   UNL     1       1.392   0.001   0.000  0.00  0.00    +0.000 C 
BRANCH  15  16
ATOM     16  C   UNL     1       2.107  -0.412   0.000  0.00  0.00    +0.000 C 
ATOM     17  O   UNL     1       2.107  -1.238   0.000  0.00  0.00    +0.000 OA
BRANCH  16  18
ATOM     18  C   UNL     1       2.821   0.001   0.000  0.00  0.00    +0.000 C 
BRANCH  18  19
ATOM     19  N   UNL     1       3.535  -0.412   0.000  0.00  0.00    +0.000 NA
BRANCH  19  20
ATOM     20  C   UNL     1       4.250   0.001   0.000  0.00  0.00    +0.000 C 
ATOM     21  C   UNL     1       4.964  -0.412   0.000  0.00  0.00    +0.000 C 
ATOM     22  C   UNL     1       4.250   0.826   0.000  0.00  0.00    +0.000 C 
ATOM     23  C   UNL     1       4.964   0.412   0.000  0.00  0.00    +0.000 C 
ENDBRANCH  19  20
ENDBRANCH  18  19
ENDBRANCH  16  18
ENDBRANCH  15  16
ENDBRANCH  14  15
ENDBRANCH   4  14
TORSDOF 8
