REMARK  Name = 
REMARK  12 active torsions:
REMARK  status: ('A' for Active; 'I' for Inactive)
REMARK    1  A    between atoms: P_2  and  O_10
REMARK    2  A    between atoms: P_2  and  O_12
REMARK    3  A    between atoms: P_3  and  O_11
REMARK    4  A    between atoms: P_3  and  O_12
REMARK    5  A    between atoms: O_10  and  C_33
REMARK    6  A    between atoms: O_11  and  C_34
REMARK    7  A    between atoms: N_18  and  C_28
REMARK    8  A    between atoms: N_23  and  C_39
REMARK    9  A    between atoms: C_27  and  C_33
REMARK   10  A    between atoms: C_30  and  C_34
REMARK   11  A    between atoms: C_32  and  C_35
REMARK   12  A    between atoms: C_40  and  C_43
REMARK                            x       y       z     vdW  Elec       q    Type
REMARK                         _______ _______ _______ _____ _____    ______ ____
ROOT
ATOM      1  P   UNL     1      -1.802   2.082   0.000  0.00  0.00    +0.000 P 
ATOM      2  O   UNL     1      -1.318   1.413   0.000  0.00  0.00    +0.000 OA
ATOM      3  O   UNL     1      -2.286   2.750   0.000  0.00  0.00    +0.000 OA
ENDROOT
BRANCH   1   4
ATOM      4  O   UNL     1      -1.134   2.565   0.000  0.00  0.00    +0.000 OA
BRANCH   4   5
ATOM      5  P   UNL     1      -0.381   2.228   0.000  0.00  0.00    +0.000 P 
ATOM      6  O   UNL     1      -0.044   2.982   0.000  0.00  0.00    +0.000 OA
ATOM      7  O   UNL     1      -0.718   1.475   0.000  0.00  0.00    +0.000 OA
BRANCH   5   8
ATOM      8  O   UNL     1       0.372   1.892   0.000  0.00  0.00    +0.000 OA
BRANCH   8   9
ATOM      9  C   UNL     1       1.041   2.375   0.000  0.00  0.00    +0.000 C 
BRANCH   9  14
ATOM     10  O   UNL     1       2.509   2.450   0.000  0.00  0.00    +0.000 OA
ATOM     11  O   UNL     1       1.411   0.619   0.000  0.00  0.00    +0.000 OA
ATOM     12  O   UNL     1       3.196   0.428   0.000  0.00  0.00    +0.000 OA
ATOM     13  C   UNL     1       1.964   1.231   0.000  0.00  0.00    +0.000 C 
ATOM     14  C   UNL     1       1.794   2.038   0.000  0.00  0.00    +0.000 C 
ATOM     15  C   UNL     1       2.784   1.143   0.000  0.00  0.00    +0.000 C 
ATOM     16  C   UNL     1       3.121   1.897   0.000  0.00  0.00    +0.000 C 
BRANCH  16  19
ATOM     17 SE   UNL     1       4.265   2.820   0.000  0.00  0.00    +0.000 Se
ATOM     18  N   UNL     1       4.541   1.514   0.000  0.00  0.00    +0.000 NA
ATOM     19  C   UNL     1       3.929   2.067   0.000  0.00  0.00    +0.000 A 
ATOM     20  C   UNL     1       5.256   1.925   0.000  0.00  0.00    +0.000 A 
ATOM     21  C   UNL     1       5.086   2.732   0.000  0.00  0.00    +0.000 A 
BRANCH  20  24
ATOM     22  O   UNL     1       6.094   0.767   0.000  0.00  0.00    +0.000 OA
ATOM     23  N   UNL     1       6.677   2.072   0.000  0.00  0.00    +0.000 N 
ATOM     24  C   UNL     1       6.009   1.588   0.000  0.00  0.00    +0.000 C 
ATOM     25  H   UNL     1       6.625   2.581   0.000  0.00  0.00    +0.000 HD
ATOM     26  H   UNL     1       7.144   1.863   0.000  0.00  0.00    +0.000 HD
ENDBRANCH  20  24
ENDBRANCH  16  19
ENDBRANCH   9  14
ENDBRANCH   8   9
ENDBRANCH   5   8
ENDBRANCH   4   5
ENDBRANCH   1   4
BRANCH   1  27
ATOM     27  O   UNL     1      -2.470   1.598   0.000  0.00  0.00    +0.000 OA
BRANCH  27  28
ATOM     28  C   UNL     1      -3.223   1.935   0.000  0.00  0.00    +0.000 C 
BRANCH  28  34
ATOM     29  O   UNL     1      -3.893   0.626   0.000  0.00  0.00    +0.000 OA
ATOM     30  O   UNL     1      -4.929   2.492   0.000  0.00  0.00    +0.000 OA
ATOM     31  O   UNL     1      -5.987   1.042   0.000  0.00  0.00    +0.000 OA
ATOM     32  C   UNL     1      -4.676   1.707   0.000  0.00  0.00    +0.000 C 
ATOM     33  C   UNL     1      -5.162   1.041   0.000  0.00  0.00    +0.000 C 
ATOM     34  C   UNL     1      -3.892   1.451   0.000  0.00  0.00    +0.000 C 
ATOM     35  C   UNL     1      -4.678   0.372   0.000  0.00  0.00    +0.000 C 
BRANCH  35  36
ATOM     36  N   UNL     1      -4.935  -0.412   0.000  0.00  0.00    +0.000 N 
ATOM     37  N   UNL     1      -4.935  -1.740   0.000  0.00  0.00    +0.000 NA
ATOM     38  N   UNL     1      -6.430  -0.251   0.000  0.00  0.00    +0.000 NA
ATOM     39  N   UNL     1      -7.144  -1.488   0.000  0.00  0.00    +0.000 NA
ATOM     40  C   UNL     1      -5.715  -0.663   0.000  0.00  0.00    +0.000 A 
ATOM     41  C   UNL     1      -4.453  -1.076   0.000  0.00  0.00    +0.000 A 
ATOM     42  C   UNL     1      -5.715  -1.488   0.000  0.00  0.00    +0.000 A 
ATOM     43  C   UNL     1      -6.430  -1.901   0.000  0.00  0.00    +0.000 A 
ATOM     44  C   UNL     1      -7.144  -0.663   0.000  0.00  0.00    +0.000 A 
BRANCH  43  45
ATOM     45  N   UNL     1      -6.430  -2.726   0.000  0.00  0.00    +0.000 N 
ATOM     46  H   UNL     1      -6.873  -2.982   0.000  0.00  0.00    +0.000 HD
ATOM     47  H   UNL     1      -5.987  -2.982   0.000  0.00  0.00    +0.000 HD
ENDBRANCH  43  45
ENDBRANCH  35  36
ENDBRANCH  28  34
ENDBRANCH  27  28
ENDBRANCH   1  27
TORSDOF 12
