REMARK  Name = 
REMARK  4 active torsions:
REMARK  status: ('A' for Active; 'I' for Inactive)
REMARK    1  A    between atoms: C_5  and  C_46
REMARK    2  A    between atoms: C_7  and  O_17
REMARK    3  A    between atoms: C_13  and  O_17
REMARK    4  A    between atoms: C_15  and  O_20
REMARK                            x       y       z     vdW  Elec       q    Type
REMARK                         _______ _______ _______ _____ _____    ______ ____
ROOT
ATOM      1  C   UNL     1       2.876   1.305   0.000  0.00  0.00    +0.000 C 
ATOM      2  C   UNL     1       3.594   0.889   0.000  0.00  0.00    +0.000 C 
ATOM      3  C   UNL     1       4.303   1.303   0.000  0.00  0.00    +0.000 C 
ATOM      4  C   UNL     1       4.305   2.130   0.000  0.00  0.00    +0.000 C 
ATOM      5  C   UNL     1       3.587   2.537   0.000  0.00  0.00    +0.000 C 
ATOM      6  O   UNL     1       2.872   2.130   0.000  0.00  0.00    +0.000 OA
ATOM      7  C   UNL     1      -1.425   1.339   0.000  0.00  0.00    +0.000 C 
ATOM      8  C   UNL     1      -1.429   0.512   0.000  0.00  0.00    +0.000 C 
ATOM      9  C   UNL     1      -0.710   1.750   0.000  0.00  0.00    +0.000 C 
ATOM     10  C   UNL     1       0.004   1.335   0.000  0.00  0.00    +0.000 C 
ATOM     11  C   UNL     1       0.721   1.737   0.000  0.00  0.00    +0.000 C 
ATOM     12  C   UNL     1       1.436   1.324   0.000  0.00  0.00    +0.000 C 
ATOM     13  C   UNL     1       2.869   0.479   0.000  0.00  0.00    +0.000 C 
ATOM     14  O   UNL     1       2.158   1.726   0.000  0.00  0.00    +0.000 OA
ATOM     15  C   UNL     1      -0.720   0.093   0.000  0.00  0.00    +0.000 C 
ATOM     16  C   UNL     1      -0.727  -0.726   0.000  0.00  0.00    +0.000 C 
ATOM     17  O   UNL     1       2.123  -0.754   0.000  0.00  0.00    +0.000 OA
ATOM     18  C   UNL     1       2.136   0.069   0.000  0.00  0.00    +0.000 C 
ATOM     19  C   UNL     1       1.404  -1.152   0.000  0.00  0.00    +0.000 C 
ATOM     20  C   UNL     1      -0.009  -1.130   0.000  0.00  0.00    +0.000 C 
ATOM     21  C   UNL     1       1.399  -1.961   0.000  0.00  0.00    +0.000 C 
ATOM     22  C   UNL     1       1.368  -3.584   0.000  0.00  0.00    +0.000 C 
ATOM     23  C   UNL     1       2.081  -3.197   0.000  0.00  0.00    +0.000 C 
ATOM     24  C   UNL     1       2.097  -2.385   0.000  0.00  0.00    +0.000 C 
ATOM     25  C   UNL     1      -0.715  -2.335   0.000  0.00  0.00    +0.000 C 
ATOM     26  O   UNL     1      -0.725  -3.142   0.000  0.00  0.00    +0.000 OA
ATOM     27  C   UNL     1       0.667  -3.166   0.000  0.00  0.00    +0.000 C 
ATOM     28  C   UNL     1       0.681  -2.360   0.000  0.00  0.00    +0.000 C 
ATOM     29  C   UNL     1      -0.014  -1.934   0.000  0.00  0.00    +0.000 C 
ATOM     30  N   UNL     1       1.357  -4.414   0.000  0.00  0.00    +0.000 NA
ATOM     31  C   UNL     1       5.012   2.539   0.000  0.00  0.00    +0.000 C 
ATOM     32  O   UNL     1       0.686  -0.734   0.000  0.00  0.00    +0.000 OA
ATOM     33  C   UNL     1       1.412   0.491   0.000  0.00  0.00    +0.000 C 
ATOM     34  O   UNL     1       0.678  -1.532   0.000  0.00  0.00    +0.000 OA
ATOM     35  C   UNL     1       2.796  -3.600   0.000  0.00  0.00    +0.000 C 
ATOM     36  C   UNL     1      -0.720   2.576   0.000  0.00  0.00    +0.000 C 
ATOM     37  C   UNL     1      -2.021  -0.118   0.000  0.00  0.00    +0.000 C 
ATOM     38  O   UNL     1       0.736  -5.023   0.000  0.00  0.00    +0.000 OA
ENDROOT
BRANCH   5  39
ATOM     39  C   UNL     1       3.586   3.365   0.000  0.00  0.00    +0.000 C 
ATOM     40  C   UNL     1       4.306   3.789   0.000  0.00  0.00    +0.000 C 
ATOM     41  C   UNL     1       4.301   4.614   0.000  0.00  0.00    +0.000 C 
ATOM     42  C   UNL     1       3.583   5.023   0.000  0.00  0.00    +0.000 C 
ATOM     43  C   UNL     1       2.862   4.609   0.000  0.00  0.00    +0.000 C 
ATOM     44  C   UNL     1       2.861   3.778   0.000  0.00  0.00    +0.000 C 
ENDBRANCH   5  39
BRANCH   7  45
ATOM     45  O   UNL     1      -2.142   1.746   0.000  0.00  0.00    +0.000 OA
BRANCH  45  49
ATOM     46  C   UNL     1      -4.286   0.512   0.000  0.00  0.00    +0.000 C 
ATOM     47  C   UNL     1      -3.569   0.096   0.000  0.00  0.00    +0.000 C 
ATOM     48  O   UNL     1      -2.855   0.510   0.000  0.00  0.00    +0.000 OA
ATOM     49  C   UNL     1      -2.853   1.337   0.000  0.00  0.00    +0.000 C 
ATOM     50  C   UNL     1      -3.575   1.740   0.000  0.00  0.00    +0.000 C 
ATOM     51  C   UNL     1      -4.290   1.337   0.000  0.00  0.00    +0.000 C 
ATOM     52  O   UNL     1      -5.000   0.092   0.000  0.00  0.00    +0.000 OA
ATOM     53  C   UNL     1      -3.573  -0.726   0.000  0.00  0.00    +0.000 C 
BRANCH  51  54
ATOM     54  O   UNL     1      -5.008   1.746   0.000  0.00  0.00    +0.000 OA
ATOM     55  C   UNL     1      -5.012   2.572   0.000  0.00  0.00    +0.000 C 
ENDBRANCH  51  54
ENDBRANCH  45  49
ENDBRANCH   7  45
TORSDOF 4
