REMARK  Name = 
REMARK  3 active torsions:
REMARK  status: ('A' for Active; 'I' for Inactive)
REMARK    1  A    between atoms: C_17  and  C_27
REMARK    2  A    between atoms: C_27  and  S_28
REMARK    3  A    between atoms: S_28  and  C_31
REMARK                            x       y       z     vdW  Elec       q    Type
REMARK                         _______ _______ _______ _____ _____    ______ ____
ROOT
ATOM      1  C   UNL     1      -2.454  -0.350   0.000  0.00  0.00    +0.000 C 
ATOM      2  C   UNL     1      -2.454  -1.176   0.000  0.00  0.00    +0.000 C 
ATOM      3  C   UNL     1      -1.753  -1.547   0.000  0.00  0.00    +0.000 C 
ATOM      4  C   UNL     1      -1.052  -1.176   0.000  0.00  0.00    +0.000 C 
ATOM      5  C   UNL     1      -1.052  -0.350   0.000  0.00  0.00    +0.000 C 
ATOM      6  C   UNL     1      -1.753   0.062   0.000  0.00  0.00    +0.000 C 
ATOM      7  C   UNL     1      -0.351  -1.547   0.000  0.00  0.00    +0.000 C 
ATOM      8  C   UNL     1       0.392  -1.176   0.000  0.00  0.00    +0.000 C 
ATOM      9  C   UNL     1       0.392  -0.350   0.000  0.00  0.00    +0.000 C 
ATOM     10  C   UNL     1      -0.351   0.062   0.000  0.00  0.00    +0.000 C 
ATOM     11  C   UNL     1       1.093   0.062   0.000  0.00  0.00    +0.000 C 
ATOM     12  C   UNL     1       1.093   0.887   0.000  0.00  0.00    +0.000 C 
ATOM     13  C   UNL     1       0.392   1.300   0.000  0.00  0.00    +0.000 C 
ATOM     14  C   UNL     1      -0.351   0.887   0.000  0.00  0.00    +0.000 C 
ATOM     15  C   UNL     1       1.836  -0.185   0.000  0.00  0.00    +0.000 C 
ATOM     16  C   UNL     1       2.331   0.474   0.000  0.00  0.00    +0.000 C 
ATOM     17  C   UNL     1       1.836   1.135   0.000  0.00  0.00    +0.000 C 
ATOM     18  O   UNL     1      -3.156  -1.547   0.000  0.00  0.00    +0.000 OA
ATOM     19  C   UNL     1      -1.052   0.474   0.000  0.00  0.00    +0.000 C 
ATOM     20  O   UNL     1      -1.052   1.300   0.000  0.00  0.00    +0.000 OA
ATOM     21  C   UNL     1       1.093   1.712   0.000  0.00  0.00    +0.000 C 
ATOM     22  F   UNL     1      -0.351  -0.763   0.000  0.00  0.00    +0.000 F 
ATOM     23  F   UNL     1      -0.351  -2.372   0.000  0.00  0.00    +0.000 F 
ATOM     24  C   UNL     1       3.156   0.474   0.000  0.00  0.00    +0.000 C 
ATOM     25  O   UNL     1       2.550   1.547   0.000  0.00  0.00    +0.000 OA
ENDROOT
BRANCH  17  26
ATOM     26  C   UNL     1       1.836   1.960   0.000  0.00  0.00    +0.000 C 
ATOM     27  O   UNL     1       2.550   2.372   0.000  0.00  0.00    +0.000 OA
BRANCH  26  28
ATOM     28  S   UNL     1       1.121   2.372   0.000  0.00  0.00    +0.000 S 
BRANCH  28  29
ATOM     29  C   UNL     1       0.407   1.960   0.000  0.00  0.00    +0.000 C 
ATOM     30  F   UNL     1      -0.308   2.372   0.000  0.00  0.00    +0.000 F 
ENDBRANCH  28  29
ENDBRANCH  26  28
ENDBRANCH  17  26
TORSDOF 3
