REMARK  Name = 
REMARK  12 active torsions:
REMARK  status: ('A' for Active; 'I' for Inactive)
REMARK    1  A    between atoms: C_2  and  C_4
REMARK    2  A    between atoms: N_6  and  C_7
REMARK    3  A    between atoms: C_10  and  C_13
REMARK    4  A    between atoms: C_13  and  C_14
REMARK    5  A    between atoms: C_14  and  N_15
REMARK    6  A    between atoms: C_16  and  CA_18
REMARK    7  A    between atoms: CA_18  and  N_19
REMARK    8  A    between atoms: CA_18  and  C_29
REMARK    9  A    between atoms: C_20  and  C_22
REMARK   10  A    between atoms: C_22  and  C_23
REMARK   11  A    between atoms: C_23  and  N_24
REMARK   12  A    between atoms: C_25  and  C_27
REMARK                            x       y       z     vdW  Elec       q    Type
REMARK                         _______ _______ _______ _____ _____    ______ ____
ROOT
ATOM      1  N   UNL     1      -0.712  -0.576   0.000  0.00  0.00    +0.000 N 
ATOM      2  C   UNL     1      -0.713   0.249   0.000  0.00  0.00    +0.000 C 
ATOM      3  O   UNL     1      -0.141   0.579   0.000  0.00  0.00    +0.000 OA
ATOM      4  H   UNL     1      -1.188  -0.851   0.000  0.00  0.00    +0.000 HD
ENDROOT
BRANCH   1   5
ATOM      5  C   UNL     1       0.003  -0.989   0.000  0.00  0.00    +0.000 C 
BRANCH   5   6
ATOM      6  C   UNL     1       0.003  -1.814   0.000  0.00  0.00    +0.000 C 
BRANCH   6  10
ATOM      7  C   UNL     1       2.146  -3.051   0.000  0.00  0.00    +0.000 A 
ATOM      8  C   UNL     1       2.146  -2.226   0.000  0.00  0.00    +0.000 A 
ATOM      9  C   UNL     1       1.432  -1.814   0.000  0.00  0.00    +0.000 A 
ATOM     10  C   UNL     1       0.718  -2.226   0.000  0.00  0.00    +0.000 A 
ATOM     11  C   UNL     1       0.718  -3.051   0.000  0.00  0.00    +0.000 A 
ATOM     12  C   UNL     1       1.432  -3.463   0.000  0.00  0.00    +0.000 A 
BRANCH   7  15
ATOM     13  C   UNL     1       2.858  -4.290   0.000  0.00  0.00    +0.000 C 
ATOM     14  O   UNL     1       2.287  -4.619   0.000  0.00  0.00    +0.000 OA
ATOM     15  N   UNL     1       2.860  -3.465   0.000  0.00  0.00    +0.000 N 
ATOM     16  H   UNL     1       3.336  -3.191   0.000  0.00  0.00    +0.000 HD
BRANCH  13  18
ATOM     17  O   UNL     1       3.571  -5.529   0.000  0.00  0.00    +0.000 OA
ATOM     18  C   UNL     1       3.572  -4.704   0.000  0.00  0.00    +0.000 C 
ATOM     19  O   UNL     1       4.144  -4.375   0.000  0.00  0.00    +0.000 OA
ENDBRANCH  13  18
ENDBRANCH   7  15
ENDBRANCH   6  10
ENDBRANCH   5   6
ENDBRANCH   1   5
BRANCH   2  20
ATOM     20  CA  UNL     1      -1.427   0.661   0.000  0.00  0.00    +0.000 C 
BRANCH  20  21
ATOM     21  N   UNL     1      -1.427   1.486   0.000  0.00  0.00    +0.000 N 
ATOM     22  C   UNL     1      -2.142   1.899   0.000  0.00  0.00    +0.000 C 
ATOM     23  O   UNL     1      -2.713   1.569   0.000  0.00  0.00    +0.000 OA
ATOM     24  H   UNL     1      -0.952   1.761   0.000  0.00  0.00    +0.000 HD
BRANCH  22  25
ATOM     25  C   UNL     1      -2.143   2.724   0.000  0.00  0.00    +0.000 C 
BRANCH  25  26
ATOM     26  C   UNL     1      -2.857   3.136   0.000  0.00  0.00    +0.000 C 
BRANCH  26  27
ATOM     27  N   UNL     1      -2.858   3.962   0.000  0.00  0.00    +0.000 N 
ATOM     28  C   UNL     1      -3.572   4.374   0.000  0.00  0.00    +0.000 C 
ATOM     29  O   UNL     1      -4.143   4.044   0.000  0.00  0.00    +0.000 OA
ATOM     30  H   UNL     1      -2.382   4.237   0.000  0.00  0.00    +0.000 HD
BRANCH  28  31
ATOM     31  C   UNL     1      -3.573   5.199   0.000  0.00  0.00    +0.000 C 
ATOM     32 BR   UNL     1      -4.144   5.529   0.000  0.00  0.00    +0.000 Br
ENDBRANCH  28  31
ENDBRANCH  26  27
ENDBRANCH  25  26
ENDBRANCH  22  25
ENDBRANCH  20  21
BRANCH  20  33
ATOM     33  C   UNL     1      -2.141   0.249   0.000  0.00  0.00    +0.000 C 
ATOM     34  O   UNL     1      -2.856   0.660   0.000  0.00  0.00    +0.000 OA
ENDBRANCH  20  33
ENDBRANCH   2  20
TORSDOF 12
