REMARK  Name = 
REMARK  4 active torsions:
REMARK  status: ('A' for Active; 'I' for Inactive)
REMARK    1  A    between atoms: C_1  and  C_2
REMARK    2  A    between atoms: C_1  and  O_8
REMARK    3  A    between atoms: C_2  and  N_3
REMARK    4  A    between atoms: O_8  and  C_9
REMARK                            x       y       z     vdW  Elec       q    Type
REMARK                         _______ _______ _______ _____ _____    ______ ____
ROOT
ATOM      1  C   UNL     1       3.314  -1.279   0.000  0.00  0.00    +0.000 A 
ATOM      2  C   UNL     1       4.122  -1.447   0.000  0.00  0.00    +0.000 A 
ATOM      3  C   UNL     1       4.671  -0.831   0.000  0.00  0.00    +0.000 C 
ATOM      4  O   UNL     1       4.412  -0.048   0.000  0.00  0.00    +0.000 OA
ATOM      5  C   UNL     1       4.961   0.568   0.000  0.00  0.00    +0.000 C 
ATOM      6  C   UNL     1       5.769   0.400   0.000  0.00  0.00    +0.000 C 
ATOM      7  C   UNL     1       6.318   1.016   0.000  0.00  0.00    +0.000 C 
ATOM      8  C   UNL     1       7.126   0.848   0.000  0.00  0.00    +0.000 C 
ATOM      9  O   UNL     1       7.385   0.065   0.000  0.00  0.00    +0.000 OA
ATOM     10  C   UNL     1       6.835  -0.551   0.000  0.00  0.00    +0.000 C 
ATOM     11  C   UNL     1       7.094  -1.334   0.000  0.00  0.00    +0.000 A 
ATOM     12  C   UNL     1       7.810  -1.744   0.000  0.00  0.00    +0.000 A 
ATOM     13  C   UNL     1       7.643  -2.551   0.000  0.00  0.00    +0.000 A 
ATOM     14  C   UNL     1       6.803  -2.733   0.000  0.00  0.00    +0.000 A 
ATOM     15  O   UNL     1       6.545  -1.950   0.000  0.00  0.00    +0.000 OA
ATOM     16  C   UNL     1       6.254  -3.349   0.000  0.00  0.00    +0.000 A 
ATOM     17  C   UNL     1       6.513  -4.133   0.000  0.00  0.00    +0.000 A 
ATOM     18  C   UNL     1       5.964  -4.748   0.000  0.00  0.00    +0.000 A 
ATOM     19  N   UNL     1       5.156  -4.580   0.000  0.00  0.00    +0.000 NA
ATOM     20  C   UNL     1       4.897  -3.797   0.000  0.00  0.00    +0.000 A 
ATOM     21  N   UNL     1       4.090  -3.629   0.000  0.00  0.00    +0.000 NA
ATOM     22  C   UNL     1       3.831  -2.846   0.000  0.00  0.00    +0.000 A 
ATOM     23  C   UNL     1       3.023  -2.678   0.000  0.00  0.00    +0.000 A 
ATOM     24  C   UNL     1       2.765  -1.895   0.000  0.00  0.00    +0.000 A 
ATOM     25  C   UNL     1       4.380  -2.230   0.000  0.00  0.00    +0.000 A 
ATOM     26  N   UNL     1       5.447  -3.181   0.000  0.00  0.00    +0.000 NA
ENDROOT
BRANCH   1  27
ATOM     27  O   UNL     1       3.055  -0.496   0.000  0.00  0.00    +0.000 OA
BRANCH  27  28
ATOM     28  C   UNL     1       2.247  -0.328   0.000  0.00  0.00    +0.000 C 
BRANCH  28  29
ATOM     29  C   UNL     1       1.989   0.456   0.000  0.00  0.00    +0.000 C 
BRANCH  29  30
ATOM     30  N   UNL     1       1.181   0.623   0.000  0.00  0.00    +0.000 NA
ATOM     31  C   UNL     1       0.571   0.068   0.000  0.00  0.00    +0.000 C 
ATOM     32  C   UNL     1      -0.146   0.477   0.000  0.00  0.00    +0.000 C 
ATOM     33  C   UNL     1       0.022   1.285   0.000  0.00  0.00    +0.000 C 
ATOM     34  C   UNL     1       0.842   1.375   0.000  0.00  0.00    +0.000 C 
ENDBRANCH  29  30
ENDBRANCH  28  29
ENDBRANCH  27  28
ENDBRANCH   1  27
TORSDOF 4
