REMARK  Name = 
REMARK  7 active torsions:
REMARK  status: ('A' for Active; 'I' for Inactive)
REMARK    1  A    between atoms: O_2  and  C_14
REMARK    2  A    between atoms: N_8  and  C_13
REMARK    3  A    between atoms: N_9  and  C_15
REMARK    4  A    between atoms: C_12  and  C_14
REMARK    5  A    between atoms: C_14  and  C_18
REMARK    6  A    between atoms: C_16  and  C_19
REMARK    7  A    between atoms: C_18  and  C_21
REMARK                            x       y       z     vdW  Elec       q    Type
REMARK                         _______ _______ _______ _____ _____    ______ ____
ROOT
ATOM      1  O   UNL     1       0.354   0.951   0.000  0.00  0.00    +0.000 OA
ATOM      2  C   UNL     1       0.354   0.126   0.000  0.00  0.00    +0.000 C 
ATOM      3  C   UNL     1      -0.387  -0.287   0.000  0.00  0.00    +0.000 C 
ATOM      4  C   UNL     1      -1.096   0.126   0.000  0.00  0.00    +0.000 C 
ATOM      5  C   UNL     1      -0.387   1.370   0.000  0.00  0.00    +0.000 C 
ATOM      6  C   UNL     1      -1.096   0.951   0.000  0.00  0.00    +0.000 C 
ENDROOT
BRANCH   3   8
ATOM      7  O   UNL     1      -1.837  -1.337   0.000  0.00  0.00    +0.000 OA
ATOM      8  N   UNL     1      -0.400  -1.363   0.000  0.00  0.00    +0.000 NA
ATOM      9  C   UNL     1      -1.115  -1.763   0.000  0.00  0.00    +0.000 C 
ATOM     10  C   UNL     1      -1.121  -2.607   0.000  0.00  0.00    +0.000 C 
ENDBRANCH   3   8
BRANCH   4  11
ATOM     11  N   UNL     1      -1.811  -0.287   0.000  0.00  0.00    +0.000 NA
ATOM     12  N   UNL     1      -2.514   0.951   0.000  0.00  0.00    +0.000 NA
ATOM     13  N   UNL     1      -3.223  -0.280   0.000  0.00  0.00    +0.000 NA
ATOM     14  C   UNL     1      -2.514   0.126   0.000  0.00  0.00    +0.000 C 
ENDBRANCH   4  11
BRANCH   5  17
ATOM     15  O   UNL     1      -1.096   2.607   0.000  0.00  0.00    +0.000 OA
ATOM     16  O   UNL     1       0.316   2.607   0.000  0.00  0.00    +0.000 OA
ATOM     17  C   UNL     1      -0.387   2.195   0.000  0.00  0.00    +0.000 C 
ENDBRANCH   5  17
BRANCH   2  18
ATOM     18  C   UNL     1       1.070  -0.293   0.000  0.00  0.00    +0.000 C 
BRANCH  18  20
ATOM     19  O   UNL     1       1.792   0.951   0.000  0.00  0.00    +0.000 OA
ATOM     20  C   UNL     1       1.785   0.113   0.000  0.00  0.00    +0.000 C 
BRANCH  20  22
ATOM     21  O   UNL     1       3.223   0.093   0.000  0.00  0.00    +0.000 OA
ATOM     22  C   UNL     1       2.507  -0.312   0.000  0.00  0.00    +0.000 C 
ENDBRANCH  20  22
ENDBRANCH  18  20
BRANCH  18  23
ATOM     23  O   UNL     1       1.063  -1.118   0.000  0.00  0.00    +0.000 OA
ATOM     24  C   UNL     1       1.772  -1.537   0.000  0.00  0.00    +0.000 C 
ENDBRANCH  18  23
ENDBRANCH   2  18
TORSDOF 7
