REMARK  Name = 
REMARK  4 active torsions:
REMARK  status: ('A' for Active; 'I' for Inactive)
REMARK    1  A    between atoms: C_15  and  C_19
REMARK    2  A    between atoms: C_16  and  C_19
REMARK    3  A    between atoms: C_19  and  C_23
REMARK    4  A    between atoms: C_20  and  C_23
REMARK                            x       y       z     vdW  Elec       q    Type
REMARK                         _______ _______ _______ _____ _____    ______ ____
ROOT
ATOM      1  C   UNL     1      -0.584   2.237   0.000  0.00  0.00    +0.000 C 
ENDROOT
BRANCH   1   7
ATOM      2  C   UNL     1      -3.059   2.237   0.000  0.00  0.00    +0.000 A 
ATOM      3  C   UNL     1      -2.646   1.523   0.000  0.00  0.00    +0.000 A 
ATOM      4  C   UNL     1      -2.646   2.952   0.000  0.00  0.00    +0.000 A 
ATOM      5  C   UNL     1      -1.821   1.523   0.000  0.00  0.00    +0.000 A 
ATOM      6  C   UNL     1      -1.821   2.952   0.000  0.00  0.00    +0.000 A 
ATOM      7  C   UNL     1      -1.409   2.237   0.000  0.00  0.00    +0.000 A 
ENDBRANCH   1   7
BRANCH   1  13
ATOM      8  C   UNL     1       0.654   4.381   0.000  0.00  0.00    +0.000 A 
ATOM      9  C   UNL     1      -0.171   4.381   0.000  0.00  0.00    +0.000 A 
ATOM     10  C   UNL     1       1.066   3.666   0.000  0.00  0.00    +0.000 A 
ATOM     11  C   UNL     1      -0.584   3.666   0.000  0.00  0.00    +0.000 A 
ATOM     12  C   UNL     1       0.654   2.952   0.000  0.00  0.00    +0.000 A 
ATOM     13  C   UNL     1      -0.171   2.952   0.000  0.00  0.00    +0.000 A 
ENDBRANCH   1  13
BRANCH   1  14
ATOM     14  C   UNL     1      -0.171   1.523   0.000  0.00  0.00    +0.000 C 
ATOM     15  O   UNL     1      -0.584   0.808   0.000  0.00  0.00    +0.000 OA
BRANCH  14  22
ATOM     16  C   UNL     1       3.352   1.110   0.000  0.00  0.00    +0.000 A 
ATOM     17  C   UNL     1       3.352   1.935   0.000  0.00  0.00    +0.000 A 
ATOM     18  C   UNL     1       2.638   0.698   0.000  0.00  0.00    +0.000 A 
ATOM     19  C   UNL     1       2.638   2.348   0.000  0.00  0.00    +0.000 A 
ATOM     20  C   UNL     1       1.923   1.110   0.000  0.00  0.00    +0.000 A 
ATOM     21  C   UNL     1       1.923   1.935   0.000  0.00  0.00    +0.000 A 
ATOM     22  C   UNL     1       0.654   1.523   0.000  0.00  0.00    +0.000 C 
ATOM     23  C   UNL     1       1.139   0.856   0.000  0.00  0.00    +0.000 C 
ATOM     24  C   UNL     1       1.139   2.190   0.000  0.00  0.00    +0.000 C 
ATOM     25  O   UNL     1       0.884   0.071   0.000  0.00  0.00    +0.000 OA
ATOM     26  O   UNL     1       1.139   3.015   0.000  0.00  0.00    +0.000 OA
ENDBRANCH  14  22
ENDBRANCH   1  14
TORSDOF 4
