REMARK  Name = 
REMARK  2 active torsions:
REMARK  status: ('A' for Active; 'I' for Inactive)
REMARK    1  A    between atoms: C_4  and  C_5
REMARK    2  A    between atoms: C_6  and  C_7
REMARK                            x       y       z     vdW  Elec       q    Type
REMARK                         _______ _______ _______ _____ _____    ______ ____
ROOT
ATOM      1  C   UNL     1       2.318  -1.136   0.000  0.00  0.00    +0.000 C 
ATOM      2  C   UNL     1       1.604  -0.724   0.000  0.00  0.00    +0.000 C 
ENDROOT
BRANCH   1   6
ATOM      3  N   UNL     1       2.731  -3.231   0.000  0.00  0.00    +0.000 NA
ATOM      4  C   UNL     1       1.906  -3.231   0.000  0.00  0.00    +0.000 A 
ATOM      5  C   UNL     1       1.651  -2.446   0.000  0.00  0.00    +0.000 A 
ATOM      6  C   UNL     1       2.318  -1.961   0.000  0.00  0.00    +0.000 A 
ATOM      7  N   UNL     1       2.986  -2.446   0.000  0.00  0.00    +0.000 NA
ENDBRANCH   1   6
BRANCH   2   8
ATOM      8  C   UNL     1       1.604   0.101   0.000  0.00  0.00    +0.000 A 
ATOM      9  C   UNL     1       0.936   0.586   0.000  0.00  0.00    +0.000 A 
ATOM     10  C   UNL     1       1.191   1.371   0.000  0.00  0.00    +0.000 A 
ATOM     11  C   UNL     1       2.016   1.371   0.000  0.00  0.00    +0.000 A 
ATOM     12  S   UNL     1       2.271   0.586   0.000  0.00  0.00    +0.000 S 
ENDBRANCH   2   8
TORSDOF 2
