REMARK  Name = 
REMARK  1 active torsions:
REMARK  status: ('A' for Active; 'I' for Inactive)
REMARK    1  A    between atoms: C_3  and  CL_14
REMARK                            x       y       z     vdW  Elec       q    Type
REMARK                         _______ _______ _______ _____ _____    ______ ____
ROOT
ATOM      1  N   UNL     1      -2.143   0.206   0.000  0.00  0.00    +0.000 NA
ATOM      2  C   UNL     1      -1.429  -0.206   0.000  0.00  0.00    +0.000 A 
ATOM      3  C   UNL     1      -0.714   0.206   0.000  0.00  0.00    +0.000 A 
ATOM      4  C   UNL     1       0.000  -0.206   0.000  0.00  0.00    +0.000 A 
ATOM      5  C   UNL     1       0.714   0.206   0.000  0.00  0.00    +0.000 A 
ATOM      6  N   UNL     1       0.714   1.031   0.000  0.00  0.00    +0.000 NA
ATOM      7  N   UNL     1       1.429  -0.206   0.000  0.00  0.00    +0.000 NA
ATOM      8  C   UNL     1       1.429  -1.031   0.000  0.00  0.00    +0.000 A 
ATOM      9  N   UNL     1       2.143  -1.444   0.000  0.00  0.00    +0.000 NA
ATOM     10  N   UNL     1       0.714  -1.444   0.000  0.00  0.00    +0.000 NA
ATOM     11  C   UNL     1       0.000  -1.031   0.000  0.00  0.00    +0.000 A 
ATOM     12  C   UNL     1      -0.714  -1.444   0.000  0.00  0.00    +0.000 A 
ATOM     13  C   UNL     1      -1.429  -1.031   0.000  0.00  0.00    +0.000 A 
ENDROOT
BRANCH   3  14
ATOM     14 CL   UNL     1      -0.714   1.031   0.000  0.00  0.00    +0.000 Cl
ATOM     15  O   UNL     1       0.000   1.444   0.000  0.00  0.00    +0.000 OA
ATOM     16  O   UNL     1      -1.429   1.444   0.000  0.00  0.00    +0.000 OA
ENDBRANCH   3  14
TORSDOF 1
