REMARK  Name = 
REMARK  4 active torsions:
REMARK  status: ('A' for Active; 'I' for Inactive)
REMARK    1  A    between atoms: C_7  and  C_9
REMARK    2  A    between atoms: C_15  and  C_17
REMARK    3  A    between atoms: C_22  and  N_23
REMARK    4  A    between atoms: N_23  and  S_24
REMARK                            x       y       z     vdW  Elec       q    Type
REMARK                         _______ _______ _______ _____ _____    ______ ____
ROOT
ATOM      1  C   UNL     1      -1.453   1.523   0.000  0.00  0.00    +0.000 C 
ATOM      2  C   UNL     1      -1.866   0.808   0.000  0.00  0.00    +0.000 C 
ATOM      3  C   UNL     1      -2.691   0.808   0.000  0.00  0.00    +0.000 C 
ATOM      4  C   UNL     1      -3.103   1.523   0.000  0.00  0.00    +0.000 C 
ATOM      5  C   UNL     1      -2.691   2.237   0.000  0.00  0.00    +0.000 C 
ATOM      6  N   UNL     1      -1.866   2.237   0.000  0.00  0.00    +0.000 N 
ATOM      7  C   UNL     1      -1.453   2.952   0.000  0.00  0.00    +0.000 C 
ATOM      8  O   UNL     1      -0.628   2.952   0.000  0.00  0.00    +0.000 OA
ENDROOT
BRANCH   1  15
ATOM      9  C   UNL     1       2.784   0.698   0.000  0.00  0.00    +0.000 C 
ATOM     10  C   UNL     1       2.070   1.110   0.000  0.00  0.00    +0.000 A 
ATOM     11  C   UNL     1       1.356   0.698   0.000  0.00  0.00    +0.000 A 
ATOM     12  N   UNL     1       0.641   1.110   0.000  0.00  0.00    +0.000 N 
ATOM     13  C   UNL     1       0.641   1.935   0.000  0.00  0.00    +0.000 A 
ATOM     14  C   UNL     1      -0.143   2.190   0.000  0.00  0.00    +0.000 A 
ATOM     15  C   UNL     1      -0.628   1.523   0.000  0.00  0.00    +0.000 A 
ATOM     16  N   UNL     1      -0.143   0.856   0.000  0.00  0.00    +0.000 NA
ATOM     17  N   UNL     1       1.356   2.348   0.000  0.00  0.00    +0.000 NA
ATOM     18  C   UNL     1       2.070   1.935   0.000  0.00  0.00    +0.000 A 
ATOM     19  N   UNL     1       2.784   2.348   0.000  0.00  0.00    +0.000 N 
ATOM     20  C   UNL     1       2.871   3.168   0.000  0.00  0.00    +0.000 C 
ATOM     21  C   UNL     1       3.678   3.340   0.000  0.00  0.00    +0.000 C 
ATOM     22  C   UNL     1       4.090   2.626   0.000  0.00  0.00    +0.000 C 
ATOM     23  C   UNL     1       3.538   2.012   0.000  0.00  0.00    +0.000 C 
ATOM     24  N   UNL     1       4.911   2.539   0.000  0.00  0.00    +0.000 NA
ENDBRANCH   1  15
BRANCH   7  25
ATOM     25  C   UNL     1      -1.866   3.666   0.000  0.00  0.00    +0.000 A 
ATOM     26  C   UNL     1      -2.691   3.666   0.000  0.00  0.00    +0.000 A 
ATOM     27  C   UNL     1      -3.103   4.381   0.000  0.00  0.00    +0.000 A 
ATOM     28  C   UNL     1      -2.691   5.095   0.000  0.00  0.00    +0.000 A 
ATOM     29  C   UNL     1      -1.866   5.095   0.000  0.00  0.00    +0.000 A 
ATOM     30  C   UNL     1      -1.453   4.381   0.000  0.00  0.00    +0.000 A 
ATOM     31 CL   UNL     1      -3.928   4.381   0.000  0.00  0.00    +0.000 Cl
BRANCH  30  32
ATOM     32  N   UNL     1      -0.628   4.381   0.000  0.00  0.00    +0.000 NA
BRANCH  32  33
ATOM     33  S   UNL     1      -0.216   5.095   0.000  0.00  0.00    +0.000 S 
ATOM     34  O   UNL     1       0.197   5.810   0.000  0.00  0.00    +0.000 OA
ATOM     35  O   UNL     1      -0.930   5.508   0.000  0.00  0.00    +0.000 OA
ATOM     36  C   UNL     1       0.498   4.683   0.000  0.00  0.00    +0.000 C 
ENDBRANCH  32  33
ENDBRANCH  30  32
ENDBRANCH   7  25
TORSDOF 4
