REMARK  Name = 
REMARK  6 active torsions:
REMARK  status: ('A' for Active; 'I' for Inactive)
REMARK    1  A    between atoms: C_2  and  C_3
REMARK    2  A    between atoms: C_3  and  C_8
REMARK    3  A    between atoms: C_8  and  N_13
REMARK    4  A    between atoms: C_9  and  C_12
REMARK    5  A    between atoms: C_9  and  N_13
REMARK    6  A    between atoms: C_10  and  C_12
REMARK                            x       y       z     vdW  Elec       q    Type
REMARK                         _______ _______ _______ _____ _____    ______ ____
ROOT
ATOM      1  C   UNL     1       0.715   3.712   0.000  0.00  0.00    +0.000 C 
ATOM      2  O   UNL     1       0.715   2.888   0.000  0.00  0.00    +0.000 OA
ENDROOT
BRANCH   1   7
ATOM      3  C   UNL     1       2.143   3.712   0.000  0.00  0.00    +0.000 A 
ATOM      4  C   UNL     1       1.429   4.950   0.000  0.00  0.00    +0.000 A 
ATOM      5  C   UNL     1       2.858   4.125   0.000  0.00  0.00    +0.000 A 
ATOM      6  C   UNL     1       2.143   5.362   0.000  0.00  0.00    +0.000 A 
ATOM      7  C   UNL     1       1.429   4.125   0.000  0.00  0.00    +0.000 A 
ATOM      8  C   UNL     1       2.858   4.950   0.000  0.00  0.00    +0.000 A 
ATOM      9  O   UNL     1       3.572   5.362   0.000  0.00  0.00    +0.000 OA
ENDBRANCH   1   7
BRANCH   1  10
ATOM     10  C   UNL     1       0.000   4.125   0.000  0.00  0.00    +0.000 C 
BRANCH  10  11
ATOM     11  N   UNL     1      -0.715   3.712   0.000  0.00  0.00    +0.000 NA
BRANCH  11  12
ATOM     12  C   UNL     1      -1.429   4.125   0.000  0.00  0.00    +0.000 C 
BRANCH  12  13
ATOM     13  C   UNL     1      -2.143   3.712   0.000  0.00  0.00    +0.000 C 
BRANCH  13  15
ATOM     14  C   UNL     1      -3.572   3.712   0.000  0.00  0.00    +0.000 C 
ATOM     15  C   UNL     1      -2.858   4.125   0.000  0.00  0.00    +0.000 C 
ENDBRANCH  13  15
ENDBRANCH  12  13
ENDBRANCH  11  12
ENDBRANCH  10  11
ENDBRANCH   1  10
TORSDOF 6
