REMARK  Name = 
REMARK  6 active torsions:
REMARK  status: ('A' for Active; 'I' for Inactive)
REMARK    1  A    between atoms: C_13  and  C_14
REMARK    2  A    between atoms: C_13  and  N_20
REMARK    3  A    between atoms: C_14  and  O_21
REMARK    4  A    between atoms: C_15  and  C_18
REMARK    5  A    between atoms: C_16  and  C_18
REMARK    6  A    between atoms: C_18  and  O_21
REMARK                            x       y       z     vdW  Elec       q    Type
REMARK                         _______ _______ _______ _____ _____    ______ ____
ROOT
ATOM      1  C   UNL     1       0.111   5.141   0.000  0.00  0.00    +0.000 C 
ATOM      2  C   UNL     1       0.111   4.316   0.000  0.00  0.00    +0.000 C 
ENDROOT
BRANCH   2   7
ATOM      3  C   UNL     1      -1.127   5.031   0.000  0.00  0.00    +0.000 A 
ATOM      4  C   UNL     1      -1.127   3.602   0.000  0.00  0.00    +0.000 A 
ATOM      5  C   UNL     1      -1.952   5.031   0.000  0.00  0.00    +0.000 A 
ATOM      6  C   UNL     1      -1.952   3.602   0.000  0.00  0.00    +0.000 A 
ATOM      7  C   UNL     1      -0.714   4.316   0.000  0.00  0.00    +0.000 A 
ATOM      8  C   UNL     1      -2.364   4.316   0.000  0.00  0.00    +0.000 A 
ATOM      9 CL   UNL     1      -3.189   4.316   0.000  0.00  0.00    +0.000 Cl
ENDBRANCH   2   7
BRANCH   2  15
ATOM     10  C   UNL     1       0.111   1.841   0.000  0.00  0.00    +0.000 A 
ATOM     11  C   UNL     1       0.825   2.254   0.000  0.00  0.00    +0.000 A 
ATOM     12  C   UNL     1      -0.604   2.254   0.000  0.00  0.00    +0.000 A 
ATOM     13  C   UNL     1       0.825   3.079   0.000  0.00  0.00    +0.000 A 
ATOM     14  C   UNL     1      -0.604   3.079   0.000  0.00  0.00    +0.000 A 
ATOM     15  C   UNL     1       0.111   3.491   0.000  0.00  0.00    +0.000 A 
ENDBRANCH   2  15
BRANCH   2  16
ATOM     16  O   UNL     1       0.935   4.316   0.000  0.00  0.00    +0.000 OA
BRANCH  16  17
ATOM     17  C   UNL     1       1.348   3.602   0.000  0.00  0.00    +0.000 C 
BRANCH  17  18
ATOM     18  C   UNL     1       2.173   3.602   0.000  0.00  0.00    +0.000 C 
BRANCH  18  21
ATOM     19  C   UNL     1       3.410   2.888   0.000  0.00  0.00    +0.000 C 
ATOM     20  C   UNL     1       2.173   2.173   0.000  0.00  0.00    +0.000 C 
ATOM     21  N   UNL     1       2.586   2.888   0.000  0.00  0.00    +0.000 NA
ENDBRANCH  18  21
ENDBRANCH  17  18
ENDBRANCH  16  17
ENDBRANCH   2  16
TORSDOF 6
