REMARK  Name = 
REMARK  15 active torsions:
REMARK  status: ('A' for Active; 'I' for Inactive)
REMARK    1  A    between atoms: C_1  and  C_7
REMARK    2  A    between atoms: C_2  and  C_8
REMARK    3  A    between atoms: C_3  and  C_21
REMARK    4  A    between atoms: C_9  and  N_19
REMARK    5  A    between atoms: C_10  and  N_20
REMARK    6  A    between atoms: C_11  and  N_22
REMARK    7  A    between atoms: C_18  and  C_24
REMARK    8  A    between atoms: C_23  and  C_30
REMARK    9  A    between atoms: C_28  and  N_31
REMARK   10  A    between atoms: C_30  and  C_39
REMARK   11  A    between atoms: N_31  and  C_45
REMARK   12  A    between atoms: N_31  and  C_46
REMARK   13  A    between atoms: N_33  and  C_39
REMARK   14  A    between atoms: C_45  and  C_48
REMARK   15  A    between atoms: C_46  and  C_47
REMARK                            x       y       z     vdW  Elec       q    Type
REMARK                         _______ _______ _______ _____ _____    ______ ____
ROOT
ATOM      1  C   UNL     1       0.785  -2.673   0.000  0.00  0.00    +0.000 C 
ATOM      2  N   UNL     1       0.071  -2.259   0.000  0.00  0.00    +0.000 NA
ATOM      3  O   UNL     1       0.784  -3.333   0.000  0.00  0.00    +0.000 OA
ENDROOT
BRANCH   2   6
ATOM      4  C   UNL     1      -1.940  -2.942   0.000  0.00  0.00    +0.000 A 
ATOM      5  N   UNL     1      -1.528  -3.657   0.000  0.00  0.00    +0.000 N 
ATOM      6  C   UNL     1      -0.645  -2.671   0.000  0.00  0.00    +0.000 A 
ATOM      7  C   UNL     1      -1.388  -2.329   0.000  0.00  0.00    +0.000 A 
ATOM      8  C   UNL     1      -0.721  -3.485   0.000  0.00  0.00    +0.000 A 
ATOM      9  C   UNL     1      -1.796  -4.260   0.000  0.00  0.00    +0.000 C 
BRANCH   4  10
ATOM     10  C   UNL     1      -2.760  -2.854   0.000  0.00  0.00    +0.000 C 
ATOM     11  N   UNL     1      -3.094  -2.100   0.000  0.00  0.00    +0.000 NA
ATOM     12  O   UNL     1      -3.148  -3.388   0.000  0.00  0.00    +0.000 OA
BRANCH  11  15
ATOM     13  C   UNL     1      -5.122  -1.470   0.000  0.00  0.00    +0.000 A 
ATOM     14  N   UNL     1      -5.209  -2.290   0.000  0.00  0.00    +0.000 N 
ATOM     15  C   UNL     1      -3.915  -2.012   0.000  0.00  0.00    +0.000 A 
ATOM     16  C   UNL     1      -4.316  -1.298   0.000  0.00  0.00    +0.000 A 
ATOM     17  C   UNL     1      -4.455  -2.626   0.000  0.00  0.00    +0.000 A 
ATOM     18  C   UNL     1      -5.780  -2.620   0.000  0.00  0.00    +0.000 C 
BRANCH  13  19
ATOM     19  C   UNL     1      -5.734  -0.917   0.000  0.00  0.00    +0.000 C 
ATOM     20  O   UNL     1      -6.362  -1.120   0.000  0.00  0.00    +0.000 OA
ATOM     21  N   UNL     1      -5.561  -0.110   0.000  0.00  0.00    +0.000 NA
BRANCH  21  22
ATOM     22  C   UNL     1      -6.173   0.444   0.000  0.00  0.00    +0.000 C 
BRANCH  22  23
ATOM     23  C   UNL     1      -6.000   1.251   0.000  0.00  0.00    +0.000 C 
BRANCH  23  24
ATOM     24  C   UNL     1      -6.613   1.804   0.000  0.00  0.00    +0.000 C 
ATOM     25  N   UNL     1      -6.474   2.450   0.000  0.00  0.00    +0.000 NA
ATOM     26  N   UNL     1      -7.241   1.602   0.000  0.00  0.00    +0.000 NA
ENDBRANCH  23  24
ENDBRANCH  22  23
ENDBRANCH  21  22
ENDBRANCH  13  19
ENDBRANCH  11  15
ENDBRANCH   4  10
ENDBRANCH   2   6
BRANCH   1  27
ATOM     27  C   UNL     1       1.500  -2.263   0.000  0.00  0.00    +0.000 A 
ATOM     28  N   UNL     1       2.253  -2.598   0.000  0.00  0.00    +0.000 N 
ATOM     29  C   UNL     1       2.388  -1.282   0.000  0.00  0.00    +0.000 A 
ATOM     30  C   UNL     1       1.586  -1.442   0.000  0.00  0.00    +0.000 A 
ATOM     31  C   UNL     1       2.805  -1.985   0.000  0.00  0.00    +0.000 A 
ATOM     32  C   UNL     1       2.390  -3.244   0.000  0.00  0.00    +0.000 C 
BRANCH  29  34
ATOM     33  C   UNL     1       3.546  -0.443   0.000  0.00  0.00    +0.000 C 
ATOM     34  N   UNL     1       2.725  -0.528   0.000  0.00  0.00    +0.000 NA
ATOM     35  O   UNL     1       3.933  -0.978   0.000  0.00  0.00    +0.000 OA
BRANCH  33  36
ATOM     36  C   UNL     1       3.884   0.310   0.000  0.00  0.00    +0.000 A 
ATOM     37  C   UNL     1       4.555   1.818   0.000  0.00  0.00    +0.000 A 
ATOM     38  C   UNL     1       4.704   0.397   0.000  0.00  0.00    +0.000 A 
ATOM     39  C   UNL     1       3.399   0.978   0.000  0.00  0.00    +0.000 A 
ATOM     40  C   UNL     1       3.734   1.731   0.000  0.00  0.00    +0.000 A 
ATOM     41  C   UNL     1       5.040   1.150   0.000  0.00  0.00    +0.000 A 
BRANCH  37  42
ATOM     42  N   UNL     1       4.892   2.571   0.000  0.00  0.00    +0.000 N 
BRANCH  42  43
ATOM     43  C   UNL     1       5.713   2.656   0.000  0.00  0.00    +0.000 C 
BRANCH  43  45
ATOM     44 CL   UNL     1       6.707   3.478   0.000  0.00  0.00    +0.000 Cl
ATOM     45  C   UNL     1       6.050   3.410   0.000  0.00  0.00    +0.000 C 
ENDBRANCH  43  45
ENDBRANCH  42  43
BRANCH  42  46
ATOM     46  C   UNL     1       4.409   3.241   0.000  0.00  0.00    +0.000 C 
BRANCH  46  48
ATOM     47 CL   UNL     1       4.362   4.529   0.000  0.00  0.00    +0.000 Cl
ATOM     48  C   UNL     1       4.747   3.994   0.000  0.00  0.00    +0.000 C 
ENDBRANCH  46  48
ENDBRANCH  42  46
ENDBRANCH  37  42
ENDBRANCH  33  36
ENDBRANCH  29  34
ENDBRANCH   1  27
TORSDOF 15
