REMARK  Name = 
REMARK  7 active torsions:
REMARK  status: ('A' for Active; 'I' for Inactive)
REMARK    1  A    between atoms: C_1  and  O_8
REMARK    2  A    between atoms: N_3  and  C_9
REMARK    3  A    between atoms: C_5  and  C_10
REMARK    4  A    between atoms: O_8  and  C_11
REMARK    5  A    between atoms: C_9  and  C_16
REMARK    6  A    between atoms: C_16  and  N_17
REMARK    7  A    between atoms: C_18  and  O_22
REMARK                            x       y       z     vdW  Elec       q    Type
REMARK                         _______ _______ _______ _____ _____    ______ ____
ROOT
ATOM      1  C   UNL     1       0.360   0.167   0.000  0.00  0.00    +0.000 C 
ATOM      2  C   UNL     1       0.003  -0.576   0.000  0.00  0.00    +0.000 C 
ATOM      3  N   UNL     1      -0.802  -0.760   0.000  0.00  0.00    +0.000 N 
ATOM      4  S   UNL     1      -0.802   1.094   0.000  0.00  0.00    +0.000 S 
ATOM      5  C   UNL     1       0.003   0.910   0.000  0.00  0.00    +0.000 C 
ATOM      6  C   UNL     1      -1.447  -0.245   0.000  0.00  0.00    +0.000 A 
ATOM      7  C   UNL     1      -1.447   0.580   0.000  0.00  0.00    +0.000 A 
ATOM      8  O   UNL     1       0.517  -1.221   0.000  0.00  0.00    +0.000 OA
ATOM      9  C   UNL     1      -2.161  -0.658   0.000  0.00  0.00    +0.000 A 
ATOM     10  C   UNL     1      -2.161   0.992   0.000  0.00  0.00    +0.000 A 
ATOM     11  C   UNL     1      -2.876  -0.245   0.000  0.00  0.00    +0.000 A 
ATOM     12  C   UNL     1      -2.876   0.580   0.000  0.00  0.00    +0.000 A 
ENDROOT
BRANCH   5  13
ATOM     13  C   UNL     1       0.517   1.555   0.000  0.00  0.00    +0.000 A 
ATOM     14  C   UNL     1       0.215   2.323   0.000  0.00  0.00    +0.000 A 
ATOM     15  C   UNL     1       1.333   1.433   0.000  0.00  0.00    +0.000 A 
ATOM     16  C   UNL     1       1.546   2.845   0.000  0.00  0.00    +0.000 A 
ATOM     17  C   UNL     1       1.847   2.078   0.000  0.00  0.00    +0.000 A 
ATOM     18  C   UNL     1       0.730   2.968   0.000  0.00  0.00    +0.000 A 
BRANCH  16  19
ATOM     19  O   UNL     1       2.060   3.490   0.000  0.00  0.00    +0.000 OA
ATOM     20  C   UNL     1       2.876   3.368   0.000  0.00  0.00    +0.000 C 
ENDBRANCH  16  19
ENDBRANCH   5  13
BRANCH   1  21
ATOM     21  O   UNL     1       1.185   0.167   0.000  0.00  0.00    +0.000 OA
BRANCH  21  22
ATOM     22  C   UNL     1       1.598  -0.547   0.000  0.00  0.00    +0.000 C 
ATOM     23  O   UNL     1       1.185  -1.262   0.000  0.00  0.00    +0.000 OA
ATOM     24  C   UNL     1       2.423  -0.547   0.000  0.00  0.00    +0.000 C 
ENDBRANCH  21  22
ENDBRANCH   1  21
BRANCH   3  25
ATOM     25  C   UNL     1      -0.985  -1.564   0.000  0.00  0.00    +0.000 C 
BRANCH  25  26
ATOM     26  C   UNL     1      -0.381  -2.125   0.000  0.00  0.00    +0.000 C 
BRANCH  26  27
ATOM     27  N   UNL     1      -0.564  -2.929   0.000  0.00  0.00    +0.000 NA
ATOM     28  C   UNL     1       0.041  -3.490   0.000  0.00  0.00    +0.000 C 
ATOM     29  C   UNL     1      -1.353  -3.173   0.000  0.00  0.00    +0.000 C 
ENDBRANCH  26  27
ENDBRANCH  25  26
ENDBRANCH   3  25
TORSDOF 7
