REMARK  Name = 
REMARK  5 active torsions:
REMARK  status: ('A' for Active; 'I' for Inactive)
REMARK    1  A    between atoms: O_9  and  C_31
REMARK    2  A    between atoms: O_9  and  C_35
REMARK    3  A    between atoms: C_31  and  C_40
REMARK    4  A    between atoms: C_34  and  C_41
REMARK    5  A    between atoms: C_39  and  C_42
REMARK                            x       y       z     vdW  Elec       q    Type
REMARK                         _______ _______ _______ _____ _____    ______ ____
ROOT
ATOM      1 FE   UNL     1      -1.726  -4.588   0.000  0.00  0.00    +0.000 Fe
ENDROOT
TORSDOF 0
REMARK  Name = 
REMARK  5 active torsions:
REMARK  status: ('A' for Active; 'I' for Inactive)
REMARK    1  A    between atoms: O_9  and  C_31
REMARK    2  A    between atoms: O_9  and  C_35
REMARK    3  A    between atoms: C_31  and  C_40
REMARK    4  A    between atoms: C_34  and  C_41
REMARK    5  A    between atoms: C_39  and  C_42
REMARK                            x       y       z     vdW  Elec       q    Type
REMARK                         _______ _______ _______ _____ _____    ______ ____
ROOT
ATOM      1 FE   UNL     1      -0.297  -4.588   0.000  0.00  0.00    +0.000 Fe
ENDROOT
TORSDOF 0
REMARK  Name = 
REMARK  5 active torsions:
REMARK  status: ('A' for Active; 'I' for Inactive)
REMARK    1  A    between atoms: O_9  and  C_31
REMARK    2  A    between atoms: O_9  and  C_35
REMARK    3  A    between atoms: C_31  and  C_40
REMARK    4  A    between atoms: C_34  and  C_41
REMARK    5  A    between atoms: C_39  and  C_42
REMARK                            x       y       z     vdW  Elec       q    Type
REMARK                         _______ _______ _______ _____ _____    ______ ____
ROOT
ATOM      1 FE   UNL     1       1.132  -4.588   0.000  0.00  0.00    +0.000 Fe
ENDROOT
TORSDOF 0
REMARK  Name = 
REMARK  5 active torsions:
REMARK  status: ('A' for Active; 'I' for Inactive)
REMARK    1  A    between atoms: O_9  and  C_31
REMARK    2  A    between atoms: O_9  and  C_35
REMARK    3  A    between atoms: C_31  and  C_40
REMARK    4  A    between atoms: C_34  and  C_41
REMARK    5  A    between atoms: C_39  and  C_42
REMARK                            x       y       z     vdW  Elec       q    Type
REMARK                         _______ _______ _______ _____ _____    ______ ____
ROOT
ATOM      1 FE   UNL     1       2.561  -4.588   0.000  0.00  0.00    +0.000 Fe
ENDROOT
TORSDOF 0
REMARK  Name = 
REMARK  5 active torsions:
REMARK  status: ('A' for Active; 'I' for Inactive)
REMARK    1  A    between atoms: O_9  and  C_31
REMARK    2  A    between atoms: O_9  and  C_35
REMARK    3  A    between atoms: C_31  and  C_40
REMARK    4  A    between atoms: C_34  and  C_41
REMARK    5  A    between atoms: C_39  and  C_42
REMARK                            x       y       z     vdW  Elec       q    Type
REMARK                         _______ _______ _______ _____ _____    ______ ____
ROOT
ATOM      1 FE   UNL     1       3.990  -4.588   0.000  0.00  0.00    +0.000 Fe
ENDROOT
TORSDOF 0
REMARK  Name = 
REMARK  5 active torsions:
REMARK  status: ('A' for Active; 'I' for Inactive)
REMARK    1  A    between atoms: O_9  and  C_31
REMARK    2  A    between atoms: O_9  and  C_35
REMARK    3  A    between atoms: C_31  and  C_40
REMARK    4  A    between atoms: C_34  and  C_41
REMARK    5  A    between atoms: C_39  and  C_42
REMARK                            x       y       z     vdW  Elec       q    Type
REMARK                         _______ _______ _______ _____ _____    ______ ____
ROOT
ATOM      1 NA   UNL     1       5.419  -4.588   0.000  0.00  0.00    +0.000 Na
ENDROOT
TORSDOF 0
REMARK  Name = 
REMARK  5 active torsions:
REMARK  status: ('A' for Active; 'I' for Inactive)
REMARK    1  A    between atoms: O_9  and  C_31
REMARK    2  A    between atoms: O_9  and  C_35
REMARK    3  A    between atoms: C_31  and  C_40
REMARK    4  A    between atoms: C_34  and  C_41
REMARK    5  A    between atoms: C_39  and  C_42
REMARK                            x       y       z     vdW  Elec       q    Type
REMARK                         _______ _______ _______ _____ _____    ______ ____
ROOT
ATOM      1 NA   UNL     1       4.705  -5.825   0.000  0.00  0.00    +0.000 Na
ENDROOT
TORSDOF 0
REMARK  Name = 
REMARK  5 active torsions:
REMARK  status: ('A' for Active; 'I' for Inactive)
REMARK    1  A    between atoms: O_9  and  C_31
REMARK    2  A    between atoms: O_9  and  C_35
REMARK    3  A    between atoms: C_31  and  C_40
REMARK    4  A    between atoms: C_34  and  C_41
REMARK    5  A    between atoms: C_39  and  C_42
REMARK                            x       y       z     vdW  Elec       q    Type
REMARK                         _______ _______ _______ _____ _____    ______ ____
ROOT
ATOM      1  O   UNL     1       0.464   1.030   0.000  0.00  0.00    +0.000 OA
ENDROOT
BRANCH   1   6
ATOM      2  O   UNL     1       1.179  -0.207   0.000  0.00  0.00    +0.000 OA
ATOM      3  O   UNL     1      -0.965   0.205   0.000  0.00  0.00    +0.000 OA
ATOM      4  O   UNL     1      -0.965  -1.445   0.000  0.00  0.00    +0.000 OA
ATOM      5  O   UNL     1       0.464  -2.270   0.000  0.00  0.00    +0.000 OA
ATOM      6  C   UNL     1       0.464   0.205   0.000  0.00  0.00    +0.000 C 
ATOM      7  C   UNL     1      -0.250  -0.207   0.000  0.00  0.00    +0.000 C 
ATOM      8  C   UNL     1      -0.250  -1.032   0.000  0.00  0.00    +0.000 C 
ATOM      9  C   UNL     1       0.464  -1.445   0.000  0.00  0.00    +0.000 C 
ATOM     10  C   UNL     1       1.179  -1.032   0.000  0.00  0.00    +0.000 C 
BRANCH  10  12
ATOM     11  O   UNL     1       1.893  -2.270   0.000  0.00  0.00    +0.000 OA
ATOM     12  C   UNL     1       1.893  -1.445   0.000  0.00  0.00    +0.000 C 
ENDBRANCH  10  12
ENDBRANCH   1   6
BRANCH   1  16
ATOM     13  O   UNL     1       1.986   1.614   0.000  0.00  0.00    +0.000 OA
ATOM     14  O   UNL     1      -0.054   2.244   0.000  0.00  0.00    +0.000 OA
ATOM     15  O   UNL     1       1.147   3.577   0.000  0.00  0.00    +0.000 OA
ATOM     16  C   UNL     1       1.179   1.443   0.000  0.00  0.00    +0.000 C 
ATOM     17  C   UNL     1       0.766   2.157   0.000  0.00  0.00    +0.000 C 
ATOM     18  C   UNL     1       1.318   2.770   0.000  0.00  0.00    +0.000 C 
ATOM     19  C   UNL     1       2.072   2.435   0.000  0.00  0.00    +0.000 C 
BRANCH  16  21
ATOM     20  O   UNL     1       2.135   0.381   0.000  0.00  0.00    +0.000 OA
ATOM     21  C   UNL     1       1.350   0.636   0.000  0.00  0.00    +0.000 C 
ENDBRANCH  16  21
BRANCH  19  23
ATOM     22  O   UNL     1       3.501   2.435   0.000  0.00  0.00    +0.000 OA
ATOM     23  C   UNL     1       2.786   2.847   0.000  0.00  0.00    +0.000 C 
ENDBRANCH  19  23
ENDBRANCH   1  16
TORSDOF 5
REMARK  Name = 
REMARK  5 active torsions:
REMARK  status: ('A' for Active; 'I' for Inactive)
REMARK    1  A    between atoms: O_9  and  C_31
REMARK    2  A    between atoms: O_9  and  C_35
REMARK    3  A    between atoms: C_31  and  C_40
REMARK    4  A    between atoms: C_34  and  C_41
REMARK    5  A    between atoms: C_39  and  C_42
REMARK                            x       y       z     vdW  Elec       q    Type
REMARK                         _______ _______ _______ _____ _____    ______ ____
ROOT
ATOM      1  O   HOH     1      -4.976  -1.159   0.000  0.00  0.00    +0.000 OA
ENDROOT
TORSDOF 0
REMARK  Name = 
REMARK  5 active torsions:
REMARK  status: ('A' for Active; 'I' for Inactive)
REMARK    1  A    between atoms: O_9  and  C_31
REMARK    2  A    between atoms: O_9  and  C_35
REMARK    3  A    between atoms: C_31  and  C_40
REMARK    4  A    between atoms: C_34  and  C_41
REMARK    5  A    between atoms: C_39  and  C_42
REMARK                            x       y       z     vdW  Elec       q    Type
REMARK                         _______ _______ _______ _____ _____    ______ ____
ROOT
ATOM      1  O   HOH     1      -4.976   0.903   0.000  0.00  0.00    +0.000 OA
ENDROOT
TORSDOF 0
REMARK  Name = 
REMARK  5 active torsions:
REMARK  status: ('A' for Active; 'I' for Inactive)
REMARK    1  A    between atoms: O_9  and  C_31
REMARK    2  A    between atoms: O_9  and  C_35
REMARK    3  A    between atoms: C_31  and  C_40
REMARK    4  A    between atoms: C_34  and  C_41
REMARK    5  A    between atoms: C_39  and  C_42
REMARK                            x       y       z     vdW  Elec       q    Type
REMARK                         _______ _______ _______ _____ _____    ______ ____
ROOT
ATOM      1  O   HOH     1       1.268   5.570   0.000  0.00  0.00    +0.000 OA
ENDROOT
TORSDOF 0
REMARK  Name = 
REMARK  5 active torsions:
REMARK  status: ('A' for Active; 'I' for Inactive)
REMARK    1  A    between atoms: O_9  and  C_31
REMARK    2  A    between atoms: O_9  and  C_35
REMARK    3  A    between atoms: C_31  and  C_40
REMARK    4  A    between atoms: C_34  and  C_41
REMARK    5  A    between atoms: C_39  and  C_42
REMARK                            x       y       z     vdW  Elec       q    Type
REMARK                         _______ _______ _______ _____ _____    ______ ____
ROOT
ATOM      1  O   HOH     1      -2.440  -4.176   0.000  0.00  0.00    +0.000 OA
ENDROOT
TORSDOF 0
REMARK  Name = 
REMARK  5 active torsions:
REMARK  status: ('A' for Active; 'I' for Inactive)
REMARK    1  A    between atoms: O_9  and  C_31
REMARK    2  A    between atoms: O_9  and  C_35
REMARK    3  A    between atoms: C_31  and  C_40
REMARK    4  A    between atoms: C_34  and  C_41
REMARK    5  A    between atoms: C_39  and  C_42
REMARK                            x       y       z     vdW  Elec       q    Type
REMARK                         _______ _______ _______ _____ _____    ______ ____
ROOT
ATOM      1  O   HOH     1      -1.011  -4.176   0.000  0.00  0.00    +0.000 OA
ENDROOT
TORSDOF 0
REMARK  Name = 
REMARK  5 active torsions:
REMARK  status: ('A' for Active; 'I' for Inactive)
REMARK    1  A    between atoms: O_9  and  C_31
REMARK    2  A    between atoms: O_9  and  C_35
REMARK    3  A    between atoms: C_31  and  C_40
REMARK    4  A    between atoms: C_34  and  C_41
REMARK    5  A    between atoms: C_39  and  C_42
REMARK                            x       y       z     vdW  Elec       q    Type
REMARK                         _______ _______ _______ _____ _____    ______ ____
ROOT
ATOM      1  O   HOH     1      -0.297  -5.413   0.000  0.00  0.00    +0.000 OA
ENDROOT
TORSDOF 0
REMARK  Name = 
REMARK  5 active torsions:
REMARK  status: ('A' for Active; 'I' for Inactive)
REMARK    1  A    between atoms: O_9  and  C_31
REMARK    2  A    between atoms: O_9  and  C_35
REMARK    3  A    between atoms: C_31  and  C_40
REMARK    4  A    between atoms: C_34  and  C_41
REMARK    5  A    between atoms: C_39  and  C_42
REMARK                            x       y       z     vdW  Elec       q    Type
REMARK                         _______ _______ _______ _____ _____    ______ ____
ROOT
ATOM      1  O   HOH     1       0.418  -4.176   0.000  0.00  0.00    +0.000 OA
ENDROOT
TORSDOF 0
REMARK  Name = 
REMARK  5 active torsions:
REMARK  status: ('A' for Active; 'I' for Inactive)
REMARK    1  A    between atoms: O_9  and  C_31
REMARK    2  A    between atoms: O_9  and  C_35
REMARK    3  A    between atoms: C_31  and  C_40
REMARK    4  A    between atoms: C_34  and  C_41
REMARK    5  A    between atoms: C_39  and  C_42
REMARK                            x       y       z     vdW  Elec       q    Type
REMARK                         _______ _______ _______ _____ _____    ______ ____
ROOT
ATOM      1  O   HOH     1       1.847  -4.176   0.000  0.00  0.00    +0.000 OA
ENDROOT
TORSDOF 0
REMARK  Name = 
REMARK  5 active torsions:
REMARK  status: ('A' for Active; 'I' for Inactive)
REMARK    1  A    between atoms: O_9  and  C_31
REMARK    2  A    between atoms: O_9  and  C_35
REMARK    3  A    between atoms: C_31  and  C_40
REMARK    4  A    between atoms: C_34  and  C_41
REMARK    5  A    between atoms: C_39  and  C_42
REMARK                            x       y       z     vdW  Elec       q    Type
REMARK                         _______ _______ _______ _____ _____    ______ ____
ROOT
ATOM      1  O   HOH     1       1.132  -5.413   0.000  0.00  0.00    +0.000 OA
ENDROOT
TORSDOF 0
REMARK  Name = 
REMARK  5 active torsions:
REMARK  status: ('A' for Active; 'I' for Inactive)
REMARK    1  A    between atoms: O_9  and  C_31
REMARK    2  A    between atoms: O_9  and  C_35
REMARK    3  A    between atoms: C_31  and  C_40
REMARK    4  A    between atoms: C_34  and  C_41
REMARK    5  A    between atoms: C_39  and  C_42
REMARK                            x       y       z     vdW  Elec       q    Type
REMARK                         _______ _______ _______ _____ _____    ______ ____
ROOT
ATOM      1  O   HOH     1       3.276  -4.176   0.000  0.00  0.00    +0.000 OA
ENDROOT
TORSDOF 0
REMARK  Name = 
REMARK  5 active torsions:
REMARK  status: ('A' for Active; 'I' for Inactive)
REMARK    1  A    between atoms: O_9  and  C_31
REMARK    2  A    between atoms: O_9  and  C_35
REMARK    3  A    between atoms: C_31  and  C_40
REMARK    4  A    between atoms: C_34  and  C_41
REMARK    5  A    between atoms: C_39  and  C_42
REMARK                            x       y       z     vdW  Elec       q    Type
REMARK                         _______ _______ _______ _____ _____    ______ ____
ROOT
ATOM      1  O   HOH     1       4.705  -4.176   0.000  0.00  0.00    +0.000 OA
ENDROOT
TORSDOF 0
REMARK  Name = 
REMARK  5 active torsions:
REMARK  status: ('A' for Active; 'I' for Inactive)
REMARK    1  A    between atoms: O_9  and  C_31
REMARK    2  A    between atoms: O_9  and  C_35
REMARK    3  A    between atoms: C_31  and  C_40
REMARK    4  A    between atoms: C_34  and  C_41
REMARK    5  A    between atoms: C_39  and  C_42
REMARK                            x       y       z     vdW  Elec       q    Type
REMARK                         _______ _______ _______ _____ _____    ______ ____
ROOT
ATOM      1  O   HOH     1       3.990  -5.413   0.000  0.00  0.00    +0.000 OA
ENDROOT
TORSDOF 0
