REMARK  Name = 
REMARK  2 active torsions:
REMARK  status: ('A' for Active; 'I' for Inactive)
REMARK    1  A    between atoms: C_2  and  N_3
REMARK    2  A    between atoms: C_7  and  C_10
REMARK                            x       y       z     vdW  Elec       q    Type
REMARK                         _______ _______ _______ _____ _____    ______ ____
ROOT
ATOM      1  N   UNL     1       0.000  -1.650   0.000  0.00  0.00    +0.000 N 
ATOM      2  C   UNL     1       0.715  -1.238   0.000  0.00  0.00    +0.000 A 
ATOM      3  C   UNL     1       0.715  -0.412   0.000  0.00  0.00    +0.000 A 
ATOM      4  C   UNL     1       0.000   0.000   0.000  0.00  0.00    +0.000 A 
ATOM      5  C   UNL     1      -0.715  -0.412   0.000  0.00  0.00    +0.000 A 
ATOM      6  C   UNL     1      -0.715  -1.238   0.000  0.00  0.00    +0.000 A 
ATOM      7  O   UNL     1      -1.429  -1.650   0.000  0.00  0.00    +0.000 OA
ATOM      8  C   UNL     1       1.429   0.000   0.000  0.00  0.00    +0.000 A 
ATOM      9  N   UNL     1       2.143  -0.412   0.000  0.00  0.00    +0.000 NA
ATOM     10  C   UNL     1       2.143  -1.238   0.000  0.00  0.00    +0.000 A 
ATOM     11  N   UNL     1       1.429  -1.650   0.000  0.00  0.00    +0.000 NA
ATOM     12  N   UNL     1       2.858  -1.650   0.000  0.00  0.00    +0.000 NA
ATOM     13  C   UNL     1       1.429   0.825   0.000  0.00  0.00    +0.000 C 
ENDROOT
BRANCH   5  14
ATOM     14  C   UNL     1      -1.429   0.000   0.000  0.00  0.00    +0.000 A 
ATOM     15  C   UNL     1      -2.183  -0.336   0.000  0.00  0.00    +0.000 A 
ATOM     16  C   UNL     1      -2.735   0.278   0.000  0.00  0.00    +0.000 A 
ATOM     17  N   UNL     1      -2.322   0.992   0.000  0.00  0.00    +0.000 NA
ATOM     18  N   UNL     1      -1.515   0.821   0.000  0.00  0.00    +0.000 NA
ENDBRANCH   5  14
BRANCH   1  20
ATOM     19  C   UNL     1      -0.715  -2.888   0.000  0.00  0.00    +0.000 C 
ATOM     20  C   UNL     1       0.000  -2.475   0.000  0.00  0.00    +0.000 C 
ENDBRANCH   1  20
TORSDOF 2
