REMARK  Name = 
REMARK  6 active torsions:
REMARK  status: ('A' for Active; 'I' for Inactive)
REMARK    1  A    between atoms: C_2  and  N_3
REMARK    2  A    between atoms: N_3  and  C_4
REMARK    3  A    between atoms: N_3  and  C_6
REMARK    4  A    between atoms: C_6  and  C_7
REMARK    5  A    between atoms: C_7  and  C_8
REMARK    6  A    between atoms: C_10  and  C_13
REMARK                            x       y       z     vdW  Elec       q    Type
REMARK                         _______ _______ _______ _____ _____    ______ ____
ROOT
ATOM      1  C   UNL     1       1.811  -5.008   0.000  0.00  0.00    +0.000 A 
ATOM      2  N   UNL     1       2.565  -4.673   0.000  0.00  0.00    +0.000 NA
ATOM      3  C   UNL     1       3.117  -5.286   0.000  0.00  0.00    +0.000 A 
ATOM      4  N   UNL     1       2.704  -6.000   0.000  0.00  0.00    +0.000 NA
ATOM      5  O   UNL     1       1.897  -5.829   0.000  0.00  0.00    +0.000 OA
ENDROOT
BRANCH   3   6
ATOM      6  C   UNL     1       3.937  -5.199   0.000  0.00  0.00    +0.000 A 
ATOM      7  C   UNL     1       4.273  -4.446   0.000  0.00  0.00    +0.000 A 
ATOM      8  C   UNL     1       5.093  -4.359   0.000  0.00  0.00    +0.000 A 
ATOM      9  C   UNL     1       5.578  -5.027   0.000  0.00  0.00    +0.000 A 
ATOM     10  C   UNL     1       5.243  -5.781   0.000  0.00  0.00    +0.000 A 
ATOM     11  C   UNL     1       4.422  -5.867   0.000  0.00  0.00    +0.000 A 
ENDBRANCH   3   6
BRANCH   1  12
ATOM     12  C   UNL     1       1.097  -4.596   0.000  0.00  0.00    +0.000 C 
BRANCH  12  13
ATOM     13  C   UNL     1       0.382  -5.008   0.000  0.00  0.00    +0.000 C 
BRANCH  13  14
ATOM     14  N   UNL     1      -0.332  -4.596   0.000  0.00  0.00    +0.000 NA
BRANCH  14  15
ATOM     15  C   UNL     1      -0.332  -3.771   0.000  0.00  0.00    +0.000 C 
ATOM     16  C   UNL     1       0.382  -3.358   0.000  0.00  0.00    +0.000 C 
ENDBRANCH  14  15
BRANCH  14  18
ATOM     17  C   UNL     1      -1.761  -4.596   0.000  0.00  0.00    +0.000 C 
ATOM     18  C   UNL     1      -1.047  -5.008   0.000  0.00  0.00    +0.000 C 
ENDBRANCH  14  18
ENDBRANCH  13  14
ENDBRANCH  12  13
ENDBRANCH   1  12
TORSDOF 6
