REMARK  Name = 
REMARK  11 active torsions:
REMARK  status: ('A' for Active; 'I' for Inactive)
REMARK    1  A    between atoms: C_1  and  CA_3
REMARK    2  A    between atoms: CA_3  and  CB_7
REMARK    3  A    between atoms: N_5  and  CE_6
REMARK    4  A    between atoms: N_5  and  CA_11
REMARK    5  A    between atoms: CE_6  and  CD_8
REMARK    6  A    between atoms: CB_7  and  CG_9
REMARK    7  A    between atoms: CD_8  and  CG_9
REMARK    8  A    between atoms: CA_11  and  C_12
REMARK    9  A    between atoms: CA_11  and  CB_15
REMARK   10  A    between atoms: CB_15  and  CG_16
REMARK   11  A    between atoms: CG_16  and  CD_17
REMARK                            x       y       z     vdW  Elec       q    Type
REMARK                         _______ _______ _______ _____ _____    ______ ____
ROOT
ATOM      1  N   GLU A   1      -1.073  -0.423   0.000  0.00  0.00    +0.000 NA
ENDROOT
BRANCH   1   2
ATOM      2  CA  GLU A   1      -1.071   0.423   0.000  0.00  0.00    +0.000 C 
BRANCH   2   3
ATOM      3  C   GLU A   1      -0.355   0.834   0.000  0.00  0.00    +0.000 C 
ATOM      4  O   GLU A   1      -0.353   1.659   0.000  0.00  0.00    +0.000 OA
ATOM      5  OXT GLU A   1       0.358   0.420   0.000  0.00  0.00    +0.000 OA
ENDBRANCH   2   3
BRANCH   2   6
ATOM      6  CB  GLU A   1      -1.785   0.836   0.000  0.00  0.00    +0.000 C 
BRANCH   6   7
ATOM      7  CG  GLU A   1      -2.499   0.423   0.000  0.00  0.00    +0.000 C 
BRANCH   7   8
ATOM      8  CD  GLU A   1      -3.214   0.836   0.000  0.00  0.00    +0.000 C 
ATOM      9  OE1 GLU A   1      -3.929   0.423   0.000  0.00  0.00    +0.000 OA
ATOM     10  OE2 GLU A   1      -3.214   1.661   0.000  0.00  0.00    +0.000 OA
ENDBRANCH   7   8
ENDBRANCH   6   7
ENDBRANCH   2   6
ENDBRANCH   1   2
BRANCH   1  11
ATOM     11  CE  GLU A   1      -0.358  -0.836   0.000  0.00  0.00    +0.000 C 
BRANCH  11  12
ATOM     12  CD  GLU A   1       0.356  -0.423   0.000  0.00  0.00    +0.000 C 
BRANCH  12  13
ATOM     13  CG  GLU A   1       1.071  -0.836   0.000  0.00  0.00    +0.000 C 
BRANCH  13  14
ATOM     14  CB  GLU A   1       1.785  -0.423   0.000  0.00  0.00    +0.000 C 
BRANCH  14  15
ATOM     15  CA  GLU A   1       2.500  -0.836   0.000  0.00  0.00    +0.000 C 
ATOM     16  N   GLU A   1       2.500  -1.661   0.000  0.00  0.00    +0.000 NA
BRANCH  15  17
ATOM     17  C   GLU A   1       3.214  -0.423   0.000  0.00  0.00    +0.000 C 
ATOM     18  O   GLU A   1       3.214   0.402   0.000  0.00  0.00    +0.000 OA
ATOM     19  OXT GLU A   1       3.929  -0.836   0.000  0.00  0.00    +0.000 OA
ENDBRANCH  15  17
ENDBRANCH  14  15
ENDBRANCH  13  14
ENDBRANCH  12  13
ENDBRANCH  11  12
ENDBRANCH   1  11
TORSDOF 11
