REMARK  Name = 
REMARK  0 active torsions:
REMARK  status: ('A' for Active; 'I' for Inactive)
REMARK                            x       y       z     vdW  Elec       q    Type
REMARK                         _______ _______ _______ _____ _____    ______ ____
ROOT
ATOM      1  N   UNL     1      -0.357   0.619   0.000  0.00  0.00    +0.000 NA
ATOM      2  C   UNL     1      -0.357  -0.206   0.000  0.00  0.00    +0.000 C 
ATOM      3  N   UNL     1       0.357  -0.619   0.000  0.00  0.00    +0.000 NA
ATOM      4  N   UNL     1      -1.072  -0.619   0.000  0.00  0.00    +0.000 NA
ATOM      5  O   UNL     1       1.072  -0.206   0.000  0.00  0.00    +0.000 OA
ENDROOT
TORSDOF 0
