REMARK  Name = 
REMARK  4 active torsions:
REMARK  status: ('A' for Active; 'I' for Inactive)
REMARK    1  A    between atoms: N_6  and  C_8
REMARK    2  A    between atoms: C_8  and  O_9
REMARK    3  A    between atoms: O_9  and  C_10
REMARK    4  A    between atoms: C_10  and  N_11
REMARK                            x       y       z     vdW  Elec       q    Type
REMARK                         _______ _______ _______ _____ _____    ______ ____
ROOT
ATOM      1  O   UNL     1      -0.003   0.071   0.000  0.00  0.00    +0.000 OA
ENDROOT
BRANCH   1   2
ATOM      2  C   UNL     1       0.698   0.514   0.000  0.00  0.00    +0.000 C 
BRANCH   2   8
ATOM      3  O   UNL     1       2.040  -1.412   0.000  0.00  0.00    +0.000 OA
ATOM      4  C   UNL     1       2.040  -0.585   0.000  0.00  0.00    +0.000 C 
ATOM      5  C   UNL     1       2.714  -0.095   0.000  0.00  0.00    +0.000 C 
ATOM      6  C   UNL     1       2.455   0.687   0.000  0.00  0.00    +0.000 C 
ATOM      7  C   UNL     1       1.632   0.694   0.000  0.00  0.00    +0.000 C 
ATOM      8  N   UNL     1       1.372  -0.099   0.000  0.00  0.00    +0.000 N 
ATOM      9  O   UNL     1       1.150   1.365   0.000  0.00  0.00    +0.000 OA
ENDBRANCH   2   8
ENDBRANCH   1   2
BRANCH   1  10
ATOM     10  C   UNL     1      -0.731   0.453   0.000  0.00  0.00    +0.000 C 
BRANCH  10  11
ATOM     11  N   UNL     1      -1.372  -0.057   0.000  0.00  0.00    +0.000 N 
ATOM     12  C   UNL     1      -1.654   0.728   0.000  0.00  0.00    +0.000 C 
ATOM     13  O   UNL     1      -1.190   1.412   0.000  0.00  0.00    +0.000 OA
ATOM     14  C   UNL     1      -2.477   0.698   0.000  0.00  0.00    +0.000 C 
ATOM     15  C   UNL     1      -2.714  -0.090   0.000  0.00  0.00    +0.000 C 
ATOM     16  C   UNL     1      -2.027  -0.562   0.000  0.00  0.00    +0.000 C 
ATOM     17  O   UNL     1      -2.004  -1.388   0.000  0.00  0.00    +0.000 OA
ENDBRANCH  10  11
ENDBRANCH   1  10
TORSDOF 4
