REMARK  Name = 
REMARK  8 active torsions:
REMARK  status: ('A' for Active; 'I' for Inactive)
REMARK    1  A    between atoms: C_3  and  O_16
REMARK    2  A    between atoms: C_6  and  N_7
REMARK    3  A    between atoms: C_9  and  C_13
REMARK    4  A    between atoms: O_16  and  C_17
REMARK    5  A    between atoms: C_17  and  C_18
REMARK    6  A    between atoms: N_21  and  C_24
REMARK    7  A    between atoms: C_33  and  C_39
REMARK    8  A    between atoms: N_35  and  C_36
REMARK                            x       y       z     vdW  Elec       q    Type
REMARK                         _______ _______ _______ _____ _____    ______ ____
ROOT
ATOM      1  C   UNL     1      -2.858  -2.475   0.000  0.00  0.00    +0.000 C 
ATOM      2  C   UNL     1      -2.858  -1.650   0.000  0.00  0.00    +0.000 C 
ATOM      3  C   UNL     1      -2.143  -1.238   0.000  0.00  0.00    +0.000 C 
ATOM      4  N   UNL     1      -1.429  -1.650   0.000  0.00  0.00    +0.000 N 
ATOM      5  C   UNL     1      -1.429  -2.475   0.000  0.00  0.00    +0.000 C 
ATOM      6  C   UNL     1      -2.143  -2.888   0.000  0.00  0.00    +0.000 C 
ATOM      7  O   UNL     1      -3.670  -2.332   0.000  0.00  0.00    +0.000 OA
ENDROOT
BRANCH   4   8
ATOM      8  C   UNL     1      -0.715  -1.238   0.000  0.00  0.00    +0.000 A 
ATOM      9  C   UNL     1       0.000  -1.650   0.000  0.00  0.00    +0.000 A 
ATOM     10  C   UNL     1       0.715  -1.238   0.000  0.00  0.00    +0.000 A 
ATOM     11  C   UNL     1       0.715  -0.412   0.000  0.00  0.00    +0.000 A 
ATOM     12  C   UNL     1       0.000   0.000   0.000  0.00  0.00    +0.000 A 
ATOM     13  C   UNL     1      -0.715  -0.412   0.000  0.00  0.00    +0.000 A 
ATOM     14  F   UNL     1      -1.429   0.000   0.000  0.00  0.00    +0.000 F 
ATOM     15  C   UNL     1       1.429   0.000   0.000  0.00  0.00    +0.000 A 
ATOM     16  O   UNL     1       1.429   0.825   0.000  0.00  0.00    +0.000 OA
ATOM     17  C   UNL     1       2.143  -0.412   0.000  0.00  0.00    +0.000 A 
ATOM     18  C   UNL     1       2.143  -1.238   0.000  0.00  0.00    +0.000 A 
ATOM     19  N   UNL     1       1.429  -1.650   0.000  0.00  0.00    +0.000 N 
BRANCH  17  20
ATOM     20  C   UNL     1       2.858   0.000   0.000  0.00  0.00    +0.000 C 
ATOM     21  O   UNL     1       2.858   0.825   0.000  0.00  0.00    +0.000 OA
ATOM     22  O   UNL     1       3.572  -0.412   0.000  0.00  0.00    +0.000 OA
ENDBRANCH  17  20
BRANCH  19  23
ATOM     23  C   UNL     1       1.429  -2.475   0.000  0.00  0.00    +0.000 C 
ATOM     24  C   UNL     1       1.841  -3.189   0.000  0.00  0.00    +0.000 C 
ATOM     25  C   UNL     1       1.016  -3.189   0.000  0.00  0.00    +0.000 C 
ENDBRANCH  19  23
ENDBRANCH   4   8
BRANCH   1  26
ATOM     26  C   UNL     1      -3.140  -3.250   0.000  0.00  0.00    +0.000 C 
BRANCH  26  27
ATOM     27  O   UNL     1      -3.953  -3.393   0.000  0.00  0.00    +0.000 OA
BRANCH  27  30
ATOM     28  C   UNL     1      -5.329  -5.087   0.000  0.00  0.00    +0.000 A 
ATOM     29  C   UNL     1      -5.047  -4.312   0.000  0.00  0.00    +0.000 A 
ATOM     30  C   UNL     1      -4.235  -4.169   0.000  0.00  0.00    +0.000 A 
ATOM     31  C   UNL     1      -3.704  -4.801   0.000  0.00  0.00    +0.000 A 
ATOM     32  C   UNL     1      -3.987  -5.576   0.000  0.00  0.00    +0.000 A 
ATOM     33  C   UNL     1      -4.799  -5.719   0.000  0.00  0.00    +0.000 A 
ATOM     34  F   UNL     1      -2.892  -4.657   0.000  0.00  0.00    +0.000 F 
BRANCH  33  35
ATOM     35  N   UNL     1      -5.081  -6.495   0.000  0.00  0.00    +0.000 N 
ATOM     36  C   UNL     1      -4.620  -7.178   0.000  0.00  0.00    +0.000 C 
ATOM     37  C   UNL     1      -5.128  -7.829   0.000  0.00  0.00    +0.000 C 
ATOM     38  O   UNL     1      -5.903  -7.546   0.000  0.00  0.00    +0.000 OA
ATOM     39  C   UNL     1      -5.874  -6.722   0.000  0.00  0.00    +0.000 C 
ATOM     40  O   UNL     1      -6.524  -6.214   0.000  0.00  0.00    +0.000 OA
BRANCH  37  41
ATOM     41  C   UNL     1      -4.900  -8.622   0.000  0.00  0.00    +0.000 C 
ATOM     42  O   UNL     1      -5.473  -9.215   0.000  0.00  0.00    +0.000 OA
ENDBRANCH  37  41
ENDBRANCH  33  35
ENDBRANCH  27  30
ENDBRANCH  26  27
ENDBRANCH   1  26
TORSDOF 8
