REMARK  Name = 
REMARK  4 active torsions:
REMARK  status: ('A' for Active; 'I' for Inactive)
REMARK    1  A    between atoms: C_4  and  C_7
REMARK    2  A    between atoms: C_7  and  N_8
REMARK    3  A    between atoms: N_8  and  C_9
REMARK    4  A    between atoms: C_9  and  C_10
REMARK                            x       y       z     vdW  Elec       q    Type
REMARK                         _______ _______ _______ _____ _____    ______ ____
ROOT
ATOM      1  C   UNL     1       0.994  -1.526   0.000  0.00  0.00    +0.000 C 
ATOM      2  C   UNL     1       0.604  -0.799   0.000  0.00  0.00    +0.000 C 
ATOM      3  O   UNL     1       1.039  -0.098   0.000  0.00  0.00    +0.000 OA
ATOM      4  C   UNL     1       1.864  -0.124   0.000  0.00  0.00    +0.000 A 
ATOM      5  C   UNL     1       2.298   0.578   0.000  0.00  0.00    +0.000 A 
ATOM      6  C   UNL     1       3.123   0.552   0.000  0.00  0.00    +0.000 A 
ATOM      7  C   UNL     1       3.513  -0.175   0.000  0.00  0.00    +0.000 A 
ATOM      8  C   UNL     1       3.078  -0.876   0.000  0.00  0.00    +0.000 A 
ATOM      9  C   UNL     1       2.253  -0.851   0.000  0.00  0.00    +0.000 A 
ATOM     10  O   UNL     1       1.819  -1.552   0.000  0.00  0.00    +0.000 OA
ATOM     11  C   UNL     1       3.611  -1.507   0.000  0.00  0.00    +0.000 C 
ATOM     12  C   UNL     1       4.375  -1.195   0.000  0.00  0.00    +0.000 C 
ATOM     13  O   UNL     1       5.076  -1.629   0.000  0.00  0.00    +0.000 OA
ATOM     14  N   UNL     1       4.314  -0.372   0.000  0.00  0.00    +0.000 NA
ENDROOT
BRANCH   1  15
ATOM     15  C   UNL     1       0.560  -2.228   0.000  0.00  0.00    +0.000 C 
BRANCH  15  16
ATOM     16  N   UNL     1      -0.265  -2.202   0.000  0.00  0.00    +0.000 NA
BRANCH  16  17
ATOM     17  C   UNL     1      -0.700  -2.903   0.000  0.00  0.00    +0.000 C 
BRANCH  17  21
ATOM     18  C   UNL     1      -3.173  -2.826   0.000  0.00  0.00    +0.000 A 
ATOM     19  C   UNL     1      -2.739  -2.124   0.000  0.00  0.00    +0.000 A 
ATOM     20  C   UNL     1      -1.914  -2.150   0.000  0.00  0.00    +0.000 A 
ATOM     21  C   UNL     1      -1.524  -2.877   0.000  0.00  0.00    +0.000 A 
ATOM     22  C   UNL     1      -1.959  -3.578   0.000  0.00  0.00    +0.000 A 
ATOM     23  C   UNL     1      -2.783  -3.553   0.000  0.00  0.00    +0.000 A 
ENDBRANCH  17  21
ENDBRANCH  16  17
ENDBRANCH  15  16
ENDBRANCH   1  15
TORSDOF 4
