REMARK  Name = 
REMARK  10 active torsions:
REMARK  status: ('A' for Active; 'I' for Inactive)
REMARK    1  A    between atoms: C_5  and  C_9
REMARK    2  A    between atoms: C_8  and  C_9
REMARK    3  A    between atoms: C_9  and  C_14
REMARK    4  A    between atoms: N_17  and  C_21
REMARK    5  A    between atoms: C_21  and  C_22
REMARK    6  A    between atoms: C_22  and  C_23
REMARK    7  A    between atoms: C_23  and  C_24
REMARK    8  A    between atoms: C_24  and  C_25
REMARK    9  A    between atoms: C_29  and  C_32
REMARK   10  A    between atoms: C_32  and  C_33
REMARK                            x       y       z     vdW  Elec       q    Type
REMARK                         _______ _______ _______ _____ _____    ______ ____
ROOT
ATOM      1  C   UNL     1      10.525  -9.900   0.000  0.00  0.00    +0.000 C 
ATOM      2  C   UNL     1      11.240  -9.486   0.000  0.00  0.00    +0.000 C 
ATOM      3  C   UNL     1      11.240  -8.661   0.000  0.00  0.00    +0.000 C 
ATOM      4  N   UNL     1      10.526  -8.249   0.000  0.00  0.00    +0.000 NA
ATOM      5  C   UNL     1       9.810  -8.662   0.000  0.00  0.00    +0.000 C 
ATOM      6  C   UNL     1       9.810  -9.487   0.000  0.00  0.00    +0.000 C 
ENDROOT
BRANCH   1   7
ATOM      7  C   UNL     1      10.525 -10.725   0.000  0.00  0.00    +0.000 C 
ATOM      8  O   UNL     1       9.810 -10.312   0.000  0.00  0.00    +0.000 OA
BRANCH   7  13
ATOM      9  C   UNL     1       8.381 -11.137   0.000  0.00  0.00    +0.000 A 
ATOM     10  C   UNL     1       8.381 -11.962   0.000  0.00  0.00    +0.000 A 
ATOM     11  C   UNL     1       9.096 -12.375   0.000  0.00  0.00    +0.000 A 
ATOM     12  C   UNL     1       9.810 -11.962   0.000  0.00  0.00    +0.000 A 
ATOM     13  C   UNL     1       9.810 -11.137   0.000  0.00  0.00    +0.000 A 
ATOM     14  C   UNL     1       9.096 -10.725   0.000  0.00  0.00    +0.000 A 
ENDBRANCH   7  13
BRANCH   7  16
ATOM     15  C   UNL     1      11.239 -11.962   0.000  0.00  0.00    +0.000 A 
ATOM     16  C   UNL     1      11.239 -11.137   0.000  0.00  0.00    +0.000 A 
ATOM     17  C   UNL     1      11.954 -12.375   0.000  0.00  0.00    +0.000 A 
ATOM     18  C   UNL     1      12.668 -11.962   0.000  0.00  0.00    +0.000 A 
ATOM     19  C   UNL     1      12.668 -11.137   0.000  0.00  0.00    +0.000 A 
ATOM     20  C   UNL     1      11.954 -10.725   0.000  0.00  0.00    +0.000 A 
ENDBRANCH   7  16
ENDBRANCH   1   7
BRANCH   4  21
ATOM     21  C   UNL     1      10.526  -7.425   0.000  0.00  0.00    +0.000 C 
BRANCH  21  22
ATOM     22  C   UNL     1      11.241  -7.012   0.000  0.00  0.00    +0.000 C 
BRANCH  22  23
ATOM     23  C   UNL     1      11.945  -7.419   0.000  0.00  0.00    +0.000 C 
BRANCH  23  24
ATOM     24  C   UNL     1      12.645  -7.015   0.000  0.00  0.00    +0.000 C 
ATOM     25  O   UNL     1      12.645  -6.187   0.000  0.00  0.00    +0.000 OA
BRANCH  24  26
ATOM     26  C   UNL     1      13.347  -7.420   0.000  0.00  0.00    +0.000 A 
ATOM     27  C   UNL     1      13.347  -8.249   0.000  0.00  0.00    +0.000 A 
ATOM     28  C   UNL     1      14.062  -8.662   0.000  0.00  0.00    +0.000 A 
ATOM     29  C   UNL     1      14.776  -8.249   0.000  0.00  0.00    +0.000 A 
ATOM     30  C   UNL     1      14.776  -7.420   0.000  0.00  0.00    +0.000 A 
ATOM     31  C   UNL     1      14.062  -7.008   0.000  0.00  0.00    +0.000 A 
BRANCH  29  32
ATOM     32  C   UNL     1      15.490  -8.662   0.000  0.00  0.00    +0.000 C 
ATOM     33  C   UNL     1      14.907  -9.245   0.000  0.00  0.00    +0.000 C 
ATOM     34  C   UNL     1      16.073  -9.245   0.000  0.00  0.00    +0.000 C 
BRANCH  32  35
ATOM     35  C   UNL     1      16.194  -8.255   0.000  0.00  0.00    +0.000 C 
ATOM     36  O   UNL     1      16.894  -8.659   0.000  0.00  0.00    +0.000 OA
ATOM     37  O   UNL     1      16.194  -7.425   0.000  0.00  0.00    +0.000 OA
ENDBRANCH  32  35
ENDBRANCH  29  32
ENDBRANCH  24  26
ENDBRANCH  23  24
ENDBRANCH  22  23
ENDBRANCH  21  22
ENDBRANCH   4  21
TORSDOF 10
