REMARK  Name = 
REMARK  44 active torsions:
REMARK  status: ('A' for Active; 'I' for Inactive)
REMARK    1  A    between atoms: C_1  and  C_3
REMARK    2  A    between atoms: C_10  and  C_13
REMARK    3  A    between atoms: N_14  and  N_15
REMARK    4  A    between atoms: C_16  and  O_17
REMARK    5  A    between atoms: O_17  and  C_18
REMARK    6  A    between atoms: C_18  and  C_19
REMARK    7  A    between atoms: C_19  and  S_20
REMARK    8  A    between atoms: S_20  and  S_21
REMARK    9  A    between atoms: S_21  and  C_22
REMARK   10  A    between atoms: C_22  and  C_23
REMARK   11  A    between atoms: C_23  and  N_24
REMARK   12  A    between atoms: C_23  and  C_91
REMARK   13  A    between atoms: C_25  and  C_26
REMARK   14  A    between atoms: C_26  and  N_27
REMARK   15  A    between atoms: C_26  and  C_86
REMARK   16  A    between atoms: C_28  and  C_29
REMARK   17  A    between atoms: C_29  and  N_30
REMARK   18  A    between atoms: C_29  and  C_81
REMARK   19  A    between atoms: C_31  and  C_32
REMARK   20  A    between atoms: C_32  and  N_33
REMARK   21  A    between atoms: C_32  and  C_73
REMARK   22  A    between atoms: C_34  and  C_35
REMARK   23  A    between atoms: C_35  and  N_36
REMARK   24  A    between atoms: C_35  and  C_68
REMARK   25  A    between atoms: C_37  and  C_38
REMARK   26  A    between atoms: C_38  and  C_39
REMARK   27  A    between atoms: C_39  and  C_40
REMARK   28  A    between atoms: C_40  and  N_41
REMARK   29  A    between atoms: C_40  and  C_64
REMARK   30  A    between atoms: C_42  and  C_44
REMARK   31  A    between atoms: C_47  and  N_50
REMARK   32  A    between atoms: N_50  and  C_51
REMARK   33  A    between atoms: C_51  and  C_52
REMARK   34  A    between atoms: C_68  and  C_69
REMARK   35  A    between atoms: C_73  and  C_74
REMARK   36  A    between atoms: C_74  and  C_75
REMARK   37  A    between atoms: C_75  and  N_76
REMARK   38  A    between atoms: C_81  and  C_82
REMARK   39  A    between atoms: C_86  and  C_87
REMARK   40  A    between atoms: C_99  and  O_129
REMARK   41  A    between atoms: C_100  and  C_102
REMARK   42  A    between atoms: C_102  and  C_103
REMARK   43  A    between atoms: C_103  and  O_104
REMARK   44  A    between atoms: C_123  and  C_125
REMARK                            x       y       z     vdW  Elec       q    Type
REMARK                         _______ _______ _______ _____ _____    ______ ____
ROOT
ATOM      1  C   UNK A   1      -3.579  -1.542   0.000  0.00  0.00    +0.000 C 
ENDROOT
BRANCH   1   2
ATOM      2  C   UNK A   1      -3.579  -0.717   0.000  0.00  0.00    +0.000 C 
ATOM      3  O   UNK A   1      -2.864  -0.303   0.000  0.00  0.00    +0.000 OA
ATOM      4  O   UNK A   1      -4.293  -0.303   0.000  0.00  0.00    +0.000 OA
ENDBRANCH   1   2
BRANCH   1   5
ATOM      5  N   UNK A   1      -2.864  -1.953   0.000  0.00  0.00    +0.000 NA
ATOM      6  C   UNK A   1      -2.150  -1.542   0.000  0.00  0.00    +0.000 C 
ATOM      7  O   UNK A   1      -2.150  -0.717   0.000  0.00  0.00    +0.000 OA
BRANCH   6   8
ATOM      8  C   UNK A   1      -1.435  -1.953   0.000  0.00  0.00    +0.000 C 
BRANCH   8   9
ATOM      9  N   UNK A   1      -0.721  -1.542   0.000  0.00  0.00    +0.000 NA
ATOM     10  C   UNK A   1      -0.006  -1.953   0.000  0.00  0.00    +0.000 C 
ATOM     11  O   UNK A   1      -0.006  -2.778   0.000  0.00  0.00    +0.000 OA
BRANCH  10  12
ATOM     12  C   UNK A   1       0.708  -1.542   0.000  0.00  0.00    +0.000 C 
BRANCH  12  13
ATOM     13  N   UNK A   1       1.423  -1.953   0.000  0.00  0.00    +0.000 NA
ATOM     14  C   UNK A   1       2.139  -1.542   0.000  0.00  0.00    +0.000 C 
ATOM     15  O   UNK A   1       2.139  -0.717   0.000  0.00  0.00    +0.000 OA
BRANCH  14  16
ATOM     16  C   UNK A   1       2.854  -1.953   0.000  0.00  0.00    +0.000 C 
BRANCH  16  17
ATOM     17  N   UNK A   1       3.568  -1.542   0.000  0.00  0.00    +0.000 NA
ATOM     18  C   UNK A   1       4.283  -1.953   0.000  0.00  0.00    +0.000 C 
ATOM     19  O   UNK A   1       4.283  -2.778   0.000  0.00  0.00    +0.000 OA
BRANCH  18  20
ATOM     20  C   UNK A   1       4.997  -1.542   0.000  0.00  0.00    +0.000 C 
BRANCH  20  21
ATOM     21  N   UNK A   1       5.712  -1.953   0.000  0.00  0.00    +0.000 NA
ATOM     22  C   UNK A   1       6.426  -1.542   0.000  0.00  0.00    +0.000 C 
ATOM     23  O   UNK A   1       6.426  -0.717   0.000  0.00  0.00    +0.000 OA
BRANCH  22  24
ATOM     24  C   UNK A   1       7.141  -1.953   0.000  0.00  0.00    +0.000 C 
BRANCH  24  25
ATOM     25  C   UNK A   1       7.855  -1.542   0.000  0.00  0.00    +0.000 C 
BRANCH  25  26
ATOM     26  C   UNK A   1       8.570  -1.953   0.000  0.00  0.00    +0.000 C 
BRANCH  26  27
ATOM     27  C   UNK A   1       8.570  -2.778   0.000  0.00  0.00    +0.000 C 
ATOM     28  O   UNK A   1       9.284  -3.192   0.000  0.00  0.00    +0.000 OA
ATOM     29  O   UNK A   1       7.855  -3.192   0.000  0.00  0.00    +0.000 OA
ENDBRANCH  26  27
BRANCH  26  30
ATOM     30  N   UNK A   1       9.284  -1.542   0.000  0.00  0.00    +0.000 NA
ATOM     31  C   UNK A   0       9.999  -1.953   0.000  0.00  0.00    +0.000 C 
ATOM     32  O   UNK A   0       9.999  -2.778   0.000  0.00  0.00    +0.000 OA
BRANCH  31  33
ATOM     33  C   UNK A   0      10.713  -1.542   0.000  0.00  0.00    +0.000 A 
ATOM     34  C   UNK A   0      10.713  -0.717   0.000  0.00  0.00    +0.000 A 
ATOM     35  C   UNK A   0      11.430  -0.303   0.000  0.00  0.00    +0.000 A 
ATOM     36  C   UNK A   0      12.143  -0.717   0.000  0.00  0.00    +0.000 A 
ATOM     37  C   UNK A   0      12.143  -1.542   0.000  0.00  0.00    +0.000 A 
ATOM     38  C   UNK A   0      11.430  -1.953   0.000  0.00  0.00    +0.000 A 
BRANCH  36  39
ATOM     39  N   UNK A   0      12.857  -0.303   0.000  0.00  0.00    +0.000 NA
BRANCH  39  40
ATOM     40  C   UNK A   0      13.572  -0.717   0.000  0.00  0.00    +0.000 C 
BRANCH  40  41
ATOM     41  C   UNK A   0      14.288  -0.303   0.000  0.00  0.00    +0.000 A 
ATOM     42  N   UNK A   0      15.001  -0.721   0.000  0.00  0.00    +0.000 NA
ATOM     43  C   UNK A   0      15.713  -0.303   0.000  0.00  0.00    +0.000 A 
ATOM     44  C   UNK A   0      15.713   0.528   0.000  0.00  0.00    +0.000 A 
ATOM     45  N   UNK A   0      15.001   0.944   0.000  0.00  0.00    +0.000 NA
ATOM     46  C   UNK A   0      14.288   0.528   0.000  0.00  0.00    +0.000 A 
ATOM     47  N   UNK A   0      16.426   0.944   0.000  0.00  0.00    +0.000 NA
ATOM     48  C   UNK A   0      17.138   0.528   0.000  0.00  0.00    +0.000 A 
ATOM     49  N   UNK A   0      17.138  -0.303   0.000  0.00  0.00    +0.000 NA
ATOM     50  C   UNK A   0      16.426  -0.721   0.000  0.00  0.00    +0.000 A 
ATOM     51  O   UNK A   0      16.426  -1.546   0.000  0.00  0.00    +0.000 OA
ATOM     52  N   UNK A   0      17.853   0.940   0.000  0.00  0.00    +0.000 NA
ENDBRANCH  40  41
ENDBRANCH  39  40
ENDBRANCH  36  39
ENDBRANCH  31  33
ENDBRANCH  26  30
ENDBRANCH  25  26
ENDBRANCH  24  25
ENDBRANCH  22  24
ENDBRANCH  20  21
BRANCH  20  53
ATOM     53  C   UNK A   1       4.997  -0.717   0.000  0.00  0.00    +0.000 C 
BRANCH  53  54
ATOM     54  C   UNK A   1       4.283  -0.303   0.000  0.00  0.00    +0.000 C 
ATOM     55  O   UNK A   1       3.560  -0.704   0.000  0.00  0.00    +0.000 OA
ATOM     56  O   UNK A   1       4.283   0.522   0.000  0.00  0.00    +0.000 OA
ENDBRANCH  53  54
ENDBRANCH  20  53
ENDBRANCH  18  20
ENDBRANCH  16  17
BRANCH  16  57
ATOM     57  C   UNK A   1       2.854  -3.452   0.000  0.00  0.00    +0.000 C 
BRANCH  57  58
ATOM     58  C   UNK A   1       3.568  -3.865   0.000  0.00  0.00    +0.000 C 
BRANCH  58  59
ATOM     59  C   UNK A   1       4.283  -3.452   0.000  0.00  0.00    +0.000 C 
BRANCH  59  60
ATOM     60  N   UNK A   1       4.997  -3.865   0.000  0.00  0.00    +0.000 NA
ATOM     61  C   UNK A   1       5.712  -3.452   0.000  0.00  0.00    +0.000 C 
ATOM     62  N   UNK A   1       5.712  -2.627   0.000  0.00  0.00    +0.000 NA
ATOM     63  N   UNK A   1       6.426  -3.865   0.000  0.00  0.00    +0.000 NA
ENDBRANCH  59  60
ENDBRANCH  58  59
ENDBRANCH  57  58
ENDBRANCH  16  57
ENDBRANCH  14  16
ENDBRANCH  12  13
BRANCH  12  64
ATOM     64  C   UNK A   1       0.708  -0.717   0.000  0.00  0.00    +0.000 C 
BRANCH  64  65
ATOM     65  C   UNK A   1      -0.006  -0.303   0.000  0.00  0.00    +0.000 C 
ATOM     66  O   UNK A   1      -0.727  -0.704   0.000  0.00  0.00    +0.000 OA
ATOM     67  O   UNK A   1      -0.006   0.522   0.000  0.00  0.00    +0.000 OA
ENDBRANCH  64  65
ENDBRANCH  12  64
ENDBRANCH  10  12
ENDBRANCH   8   9
BRANCH   8  68
ATOM     68  C   UNK A   1      -1.435  -2.778   0.000  0.00  0.00    +0.000 C 
BRANCH  68  69
ATOM     69  C   UNK A   1      -2.158  -3.179   0.000  0.00  0.00    +0.000 C 
ATOM     70  O   UNK A   1      -2.873  -2.766   0.000  0.00  0.00    +0.000 OA
ATOM     71  O   UNK A   1      -2.158  -4.005   0.000  0.00  0.00    +0.000 OA
ENDBRANCH  68  69
ENDBRANCH   8  68
ENDBRANCH   6   8
ENDBRANCH   1   5
BRANCH   1  72
ATOM     72  C   UNK A   1      -4.293  -1.953   0.000  0.00  0.00    +0.000 C 
BRANCH  72  73
ATOM     73  S   UNK A   1      -5.008  -1.542   0.000  0.00  0.00    +0.000 S 
BRANCH  73  74
ATOM     74  S   UNK A   1      -5.722  -1.953   0.000  0.00  0.00    +0.000 S 
BRANCH  74  75
ATOM     75  C   UNK A   1      -6.437  -1.542   0.000  0.00  0.00    +0.000 C 
BRANCH  75  76
ATOM     76  C   UNK A   1      -7.151  -1.953   0.000  0.00  0.00    +0.000 C 
BRANCH  76  77
ATOM     77  O   UNK A   1      -7.866  -1.542   0.000  0.00  0.00    +0.000 OA
BRANCH  77  79
ATOM     78  N   UNK A   1      -9.295  -1.542   0.000  0.00  0.00    +0.000 NA
ATOM     79  C   UNK A   1      -8.580  -1.953   0.000  0.00  0.00    +0.000 C 
ATOM     80  O   UNK A   1      -8.580  -2.778   0.000  0.00  0.00    +0.000 OA
BRANCH  78  82
ATOM     81  C   UNK A   1     -10.726  -1.542   0.000  0.00  0.00    +0.000 C 
ATOM     82  N   UNK A   1     -10.011  -1.953   0.000  0.00  0.00    +0.000 NA
ATOM     83  O   UNK A   1     -11.440  -1.953   0.000  0.00  0.00    +0.000 OA
BRANCH  81  91
ATOM     84  C   UNK A   1     -10.011   0.530   0.000  0.00  0.00    +0.000 C 
ATOM     85  C   UNK A   1     -10.726   0.946   0.000  0.00  0.00    +0.000 C 
ATOM     86  C   UNK A   1     -11.438   0.530   0.000  0.00  0.00    +0.000 C 
ATOM     87  C   UNK A   1     -12.863   0.530   0.000  0.00  0.00    +0.000 A 
ATOM     88  C   UNK A   1     -12.863  -0.301   0.000  0.00  0.00    +0.000 A 
ATOM     89  N   UNK A   1     -12.151  -0.717   0.000  0.00  0.00    +0.000 N 
ATOM     90  C   UNK A   1     -11.438  -0.301   0.000  0.00  0.00    +0.000 C 
ATOM     91  C   UNK A   1     -10.726  -0.717   0.000  0.00  0.00    +0.000 C 
ATOM     92  C   UNK A   1     -10.011  -0.301   0.000  0.00  0.00    +0.000 C 
ATOM     93  O   UNK A   1      -9.297  -0.713   0.000  0.00  0.00    +0.000 OA
ATOM     94  O   UNK A   1     -10.011  -1.128   0.000  0.00  0.00    +0.000 OA
ATOM     95  C   UNK A   1     -12.151  -1.542   0.000  0.00  0.00    +0.000 C 
ATOM     96  C   UNK A   1     -13.576  -0.717   0.000  0.00  0.00    +0.000 A 
ATOM     97  C   UNK A   1     -14.288  -0.301   0.000  0.00  0.00    +0.000 A 
ATOM     98  C   UNK A   1     -14.288   0.530   0.000  0.00  0.00    +0.000 A 
ATOM     99  C   UNK A   1     -13.576   0.946   0.000  0.00  0.00    +0.000 A 
ATOM    100  C   UNK A   1     -12.151   0.946   0.000  0.00  0.00    +0.000 C 
ATOM    101  C   UNK A   1     -12.151   1.777   0.000  0.00  0.00    +0.000 C 
ATOM    102  N   UNK A   1     -10.726   1.777   0.000  0.00  0.00    +0.000 NA
ATOM    103  C   UNK A   1     -10.011   2.195   0.000  0.00  0.00    +0.000 C 
ATOM    104  C   UNK A   1      -9.299   1.777   0.000  0.00  0.00    +0.000 C 
ATOM    105  C   UNK A   1      -9.299   0.946   0.000  0.00  0.00    +0.000 C 
BRANCH  98 106
ATOM    106  C   UNK A   1     -14.288   2.254   0.000  0.00  0.00    +0.000 C 
ATOM    107  C   UNK A   1     -15.001   2.670   0.000  0.00  0.00    +0.000 A 
ATOM    108  C   UNK A   1     -15.001   3.501   0.000  0.00  0.00    +0.000 A 
ATOM    109  C   UNK A   1     -16.428   3.501   0.000  0.00  0.00    +0.000 A 
ATOM    110  C   UNK A   1     -16.428   2.670   0.000  0.00  0.00    +0.000 A 
ATOM    111  N   UNK A   1     -15.715   2.254   0.000  0.00  0.00    +0.000 NA
ATOM    112  C   UNK A   1     -17.140   2.254   0.000  0.00  0.00    +0.000 A 
ATOM    113  C   UNK A   1     -17.853   2.670   0.000  0.00  0.00    +0.000 A 
ATOM    114  C   UNK A   1     -17.853   3.501   0.000  0.00  0.00    +0.000 A 
ATOM    115  C   UNK A   1     -17.140   3.917   0.000  0.00  0.00    +0.000 A 
ATOM    116  C   UNK A   1     -14.288   3.917   0.000  0.00  0.00    +0.000 C 
ATOM    117  C   UNK A   1     -13.576   3.501   0.000  0.00  0.00    +0.000 C 
ATOM    118  N   UNK A   1     -12.922   4.005   0.000  0.00  0.00    +0.000 NA
ATOM    119  C   UNK A   1     -12.538   3.114   0.000  0.00  0.00    +0.000 C 
ATOM    120  C   UNK A   1     -12.953   2.192   0.000  0.00  0.00    +0.000 C 
ATOM    121  C   UNK A   1     -13.576   2.670   0.000  0.00  0.00    +0.000 C 
ATOM    122  C   UNK A   1     -12.210   2.313   0.000  0.00  0.00    +0.000 C 
ATOM    123  C   UNK A   1     -11.794   3.026   0.000  0.00  0.00    +0.000 C 
ATOM    124  C   UNK A   1     -12.120   3.798   0.000  0.00  0.00    +0.000 C 
ATOM    125  O   UNK A   1     -11.221   2.432   0.000  0.00  0.00    +0.000 OA
BRANCH 123 126
ATOM    126  C   UNK A   1     -11.080   3.437   0.000  0.00  0.00    +0.000 C 
ATOM    127  C   UNK A   1     -10.364   3.026   0.000  0.00  0.00    +0.000 C 
ENDBRANCH 123 126
BRANCH 106 128
ATOM    128  C   UNK A   1     -15.484   1.552   0.000  0.00  0.00    +0.000 C 
ATOM    129  O   UNK A   1     -15.484   0.727   0.000  0.00  0.00    +0.000 OA
BRANCH 128 130
ATOM    130  O   UNK A   1     -16.198   1.963   0.000  0.00  0.00    +0.000 OA
ATOM    131  C   UNK A   1     -16.913   1.552   0.000  0.00  0.00    +0.000 C 
ENDBRANCH 128 130
ENDBRANCH 106 128
ENDBRANCH  98 106
BRANCH  97 132
ATOM    132  O   UNK A   1     -15.002  -0.713   0.000  0.00  0.00    +0.000 OA
ATOM    133  C   UNK A   1     -15.717  -0.301   0.000  0.00  0.00    +0.000 C 
ENDBRANCH  97 132
BRANCH  84 134
ATOM    134  C   UNK A   1      -9.297   0.119   0.000  0.00  0.00    +0.000 C 
ATOM    135  C   UNK A   1      -8.582   0.530   0.000  0.00  0.00    +0.000 C 
ENDBRANCH  84 134
ENDBRANCH  81  91
ENDBRANCH  78  82
ENDBRANCH  77  79
ENDBRANCH  76  77
ENDBRANCH  75  76
ENDBRANCH  74  75
ENDBRANCH  73  74
ENDBRANCH  72  73
ENDBRANCH   1  72
TORSDOF 44
