REMARK  Name = 
REMARK  6 active torsions:
REMARK  status: ('A' for Active; 'I' for Inactive)
REMARK    1  A    between atoms: C_2  and  C_3
REMARK    2  A    between atoms: C_6  and  O_27
REMARK    3  A    between atoms: C_7  and  O_25
REMARK    4  A    between atoms: C_10  and  C_15
REMARK    5  A    between atoms: C_18  and  O_23
REMARK    6  A    between atoms: C_19  and  O_21
REMARK                            x       y       z     vdW  Elec       q    Type
REMARK                         _______ _______ _______ _____ _____    ______ ____
ROOT
ATOM      1  C   UNL     1       0.645  -0.514   0.000  0.00  0.00    +0.000 C 
ATOM      2  C   UNL     1       0.000   0.000   0.000  0.00  0.00    +0.000 A 
ATOM      3  C   UNL     1      -0.715  -0.412   0.000  0.00  0.00    +0.000 A 
ATOM      4  C   UNL     1      -1.429   0.000   0.000  0.00  0.00    +0.000 A 
ATOM      5  C   UNL     1      -1.429   0.825   0.000  0.00  0.00    +0.000 A 
ATOM      6  C   UNL     1      -0.715   1.238   0.000  0.00  0.00    +0.000 A 
ATOM      7  C   UNL     1       0.000   0.825   0.000  0.00  0.00    +0.000 A 
ATOM      8  C   UNL     1       0.645   1.339   0.000  0.00  0.00    +0.000 C 
ATOM      9  N   UNL     1       1.449   1.156   0.000  0.00  0.00    +0.000 NA
ATOM     10  N   UNL     1       1.807   0.412   0.000  0.00  0.00    +0.000 NA
ATOM     11  C   UNL     1       1.449  -0.331   0.000  0.00  0.00    +0.000 C 
ATOM     12  C   UNL     1       1.964  -0.976   0.000  0.00  0.00    +0.000 C 
ENDROOT
BRANCH   8  13
ATOM     13  C   UNL     1       0.461   2.144   0.000  0.00  0.00    +0.000 A 
ATOM     14  C   UNL     1      -0.327   2.387   0.000  0.00  0.00    +0.000 A 
ATOM     15  C   UNL     1      -0.510   3.191   0.000  0.00  0.00    +0.000 A 
ATOM     16  C   UNL     1       0.094   3.752   0.000  0.00  0.00    +0.000 A 
ATOM     17  C   UNL     1       0.883   3.509   0.000  0.00  0.00    +0.000 A 
ATOM     18  C   UNL     1       1.066   2.705   0.000  0.00  0.00    +0.000 A 
BRANCH  17  19
ATOM     19  O   UNL     1       1.487   4.070   0.000  0.00  0.00    +0.000 OA
ATOM     20  C   UNL     1       2.276   3.827   0.000  0.00  0.00    +0.000 C 
ENDBRANCH  17  19
BRANCH  16  21
ATOM     21  O   UNL     1      -0.089   4.557   0.000  0.00  0.00    +0.000 OA
ATOM     22  C   UNL     1       0.515   5.118   0.000  0.00  0.00    +0.000 C 
ENDBRANCH  16  21
ENDBRANCH   8  13
BRANCH   1  24
ATOM     23  C   UNL     1       1.066  -1.880   0.000  0.00  0.00    +0.000 C 
ATOM     24  C   UNL     1       0.461  -1.319   0.000  0.00  0.00    +0.000 C 
ENDBRANCH   1  24
BRANCH   5  25
ATOM     25  O   UNL     1      -2.143   1.238   0.000  0.00  0.00    +0.000 OA
ATOM     26  C   UNL     1      -2.143   2.062   0.000  0.00  0.00    +0.000 C 
ENDBRANCH   5  25
BRANCH   4  27
ATOM     27  O   UNL     1      -2.143  -0.412   0.000  0.00  0.00    +0.000 OA
ATOM     28  C   UNL     1      -2.143  -1.238   0.000  0.00  0.00    +0.000 C 
ENDBRANCH   4  27
TORSDOF 6
