REMARK  Name = 
REMARK  3 active torsions:
REMARK  status: ('A' for Active; 'I' for Inactive)
REMARK    1  A    between atoms: C_2  and  C_16
REMARK    2  A    between atoms: C_11  and  O_13
REMARK    3  A    between atoms: O_13  and  C_18
REMARK                            x       y       z     vdW  Elec       q    Type
REMARK                         _______ _______ _______ _____ _____    ______ ____
ROOT
ATOM      1  N   UNL     1       0.357  -0.412   0.000  0.00  0.00    +0.000 N 
ATOM      2  C   UNL     1       1.072  -0.825   0.000  0.00  0.00    +0.000 C 
ATOM      3  C   UNL     1       1.072  -1.650   0.000  0.00  0.00    +0.000 C 
ATOM      4  N   UNL     1       0.357  -2.062   0.000  0.00  0.00    +0.000 NA
ATOM      5  C   UNL     1      -0.357  -1.650   0.000  0.00  0.00    +0.000 A 
ATOM      6  C   UNL     1      -1.072  -2.062   0.000  0.00  0.00    +0.000 A 
ATOM      7  C   UNL     1      -1.786  -1.650   0.000  0.00  0.00    +0.000 A 
ATOM      8  C   UNL     1      -1.786  -0.825   0.000  0.00  0.00    +0.000 A 
ATOM      9  C   UNL     1      -1.072  -0.412   0.000  0.00  0.00    +0.000 A 
ATOM     10  C   UNL     1      -0.357  -0.825   0.000  0.00  0.00    +0.000 A 
ATOM     11  C   UNL     1       0.357   0.412   0.000  0.00  0.00    +0.000 C 
ATOM     12  O   UNL     1       1.072   0.825   0.000  0.00  0.00    +0.000 OA
ATOM     13  O   UNL     1       1.786  -2.062   0.000  0.00  0.00    +0.000 OA
ATOM     14  F   UNL     1      -2.501  -0.412   0.000  0.00  0.00    +0.000 F 
ENDROOT
BRANCH   2  15
ATOM     15  C   UNL     1       1.786  -0.412   0.000  0.00  0.00    +0.000 C 
ATOM     16  C   UNL     1       2.501  -0.825   0.000  0.00  0.00    +0.000 C 
ENDBRANCH   2  15
BRANCH  11  17
ATOM     17  O   UNL     1      -0.357   0.825   0.000  0.00  0.00    +0.000 OA
BRANCH  17  18
ATOM     18  C   UNL     1      -0.357   1.650   0.000  0.00  0.00    +0.000 C 
ATOM     19  C   UNL     1      -1.072   2.062   0.000  0.00  0.00    +0.000 C 
ATOM     20  C   UNL     1       0.357   2.062   0.000  0.00  0.00    +0.000 C 
ENDBRANCH  17  18
ENDBRANCH  11  17
TORSDOF 3
