REMARK  Name = 
REMARK  7 active torsions:
REMARK  status: ('A' for Active; 'I' for Inactive)
REMARK    1  A    between atoms: C_1  and  C_2
REMARK    2  A    between atoms: C_1  and  C_3
REMARK    3  A    between atoms: C_1  and  C_4
REMARK    4  A    between atoms: C_4  and  O_10
REMARK    5  A    between atoms: O_10  and  C_16
REMARK    6  A    between atoms: C_16  and  C_19
REMARK    7  A    between atoms: C_19  and  N_20
REMARK                            x       y       z     vdW  Elec       q    Type
REMARK                         _______ _______ _______ _____ _____    ______ ____
ROOT
ATOM      1  C   UNL     1      -1.408   0.007   0.000  0.00  0.00    +0.000 C 
ATOM      2  O   UNL     1      -1.064  -0.738   0.000  0.00  0.00    +0.000 OA
ENDROOT
BRANCH   1   3
ATOM      3  C   UNL     1      -1.825   0.685   0.000  0.00  0.00    +0.000 A 
ATOM      4  C   UNL     1      -2.660   0.678   0.000  0.00  0.00    +0.000 A 
ATOM      5  C   UNL     1      -1.408   1.409   0.000  0.00  0.00    +0.000 A 
ATOM      6  C   UNL     1      -3.081   1.393   0.000  0.00  0.00    +0.000 A 
ATOM      7  C   UNL     1      -1.859   2.131   0.000  0.00  0.00    +0.000 A 
ATOM      8  C   UNL     1      -2.680   2.121   0.000  0.00  0.00    +0.000 A 
ENDBRANCH   1   3
BRANCH   1   9
ATOM      9  C   UNL     1      -2.116  -0.411   0.000  0.00  0.00    +0.000 A 
ATOM     10  C   UNL     1      -2.841  -0.023   0.000  0.00  0.00    +0.000 A 
ATOM     11  C   UNL     1      -2.112  -1.252   0.000  0.00  0.00    +0.000 A 
ATOM     12  C   UNL     1      -3.539  -0.417   0.000  0.00  0.00    +0.000 A 
ATOM     13  C   UNL     1      -2.827  -1.657   0.000  0.00  0.00    +0.000 A 
ATOM     14  C   UNL     1      -3.539  -1.242   0.000  0.00  0.00    +0.000 A 
ENDBRANCH   1   9
BRANCH   1  15
ATOM     15  C   UNL     1      -0.599   0.007   0.000  0.00  0.00    +0.000 C 
ATOM     16  O   UNL     1      -0.175   0.678   0.000  0.00  0.00    +0.000 OA
BRANCH  15  17
ATOM     17  O   UNL     1      -0.175  -0.688   0.000  0.00  0.00    +0.000 OA
BRANCH  17  18
ATOM     18  C   UNL     1       0.633  -0.678   0.000  0.00  0.00    +0.000 C 
BRANCH  18  19
ATOM     19  C   UNL     1       1.047  -1.403   0.000  0.00  0.00    +0.000 C 
BRANCH  19  20
ATOM     20  N   UNL     1       1.872  -1.403   0.000  0.00  0.00    +0.000 NA
ATOM     21  C   UNL     1       2.296  -2.131   0.000  0.00  0.00    +0.000 C 
ATOM     22  C   UNL     1       2.280  -0.688   0.000  0.00  0.00    +0.000 C 
ATOM     23  C   UNL     1       3.131  -2.124   0.000  0.00  0.00    +0.000 C 
ATOM     24  C   UNL     1       3.118  -0.688   0.000  0.00  0.00    +0.000 C 
ATOM     25  C   UNL     1       3.539  -1.416   0.000  0.00  0.00    +0.000 C 
ENDBRANCH  19  20
ENDBRANCH  18  19
ENDBRANCH  17  18
ENDBRANCH  15  17
ENDBRANCH   1  15
TORSDOF 7
