REMARK  Name = 
REMARK  21 active torsions:
REMARK  status: ('A' for Active; 'I' for Inactive)
REMARK    1  A    between atoms: N_2  and  C_6
REMARK    2  A    between atoms: N_2  and  C_7
REMARK    3  A    between atoms: N_5  and  C_8
REMARK    4  A    between atoms: N_5  and  C_19
REMARK    5  A    between atoms: C_6  and  C_9
REMARK    6  A    between atoms: C_7  and  C_8
REMARK    7  A    between atoms: C_10  and  O_16
REMARK    8  A    between atoms: C_19  and  C_23
REMARK    9  A    between atoms: C_23  and  C_30
REMARK   10  A    between atoms: C_24  and  C_25
REMARK   11  A    between atoms: C_25  and  C_29
REMARK   12  A    between atoms: C_26  and  C_27
REMARK   13  A    between atoms: C_26  and  C_36
REMARK   14  A    between atoms: C_27  and  C_28
REMARK   15  A    between atoms: C_28  and  C_29
REMARK   16  A    between atoms: C_30  and  C_31
REMARK   17  A    between atoms: C_31  and  C_32
REMARK   18  A    between atoms: C_32  and  C_33
REMARK   19  A    between atoms: C_33  and  C_34
REMARK   20  A    between atoms: C_34  and  C_35
REMARK   21  A    between atoms: C_35  and  C_36
REMARK                            x       y       z     vdW  Elec       q    Type
REMARK                         _______ _______ _______ _____ _____    ______ ____
ROOT
ATOM      1  N   UNL     1       2.437  -1.063   0.000  0.00  0.00    +0.000 N 
ATOM      2  C   UNL     1       2.840  -1.769   0.000  0.00  0.00    +0.000 C 
ATOM      3  C   UNL     1       2.024  -1.769   0.000  0.00  0.00    +0.000 C 
ENDROOT
BRANCH   1   4
ATOM      4  C   UNL     1       3.147  -0.636   0.000  0.00  0.00    +0.000 C 
BRANCH   4   5
ATOM      5  C   UNL     1       3.853  -1.083   0.000  0.00  0.00    +0.000 C 
BRANCH   5   7
ATOM      6  C   UNL     1       4.583   0.127   0.000  0.00  0.00    +0.000 A 
ATOM      7  N   UNL     1       4.573  -0.665   0.000  0.00  0.00    +0.000 N 
ATOM      8  N   UNL     1       5.308   0.516   0.000  0.00  0.00    +0.000 NA
ATOM      9  N   UNL     1       3.891   0.545   0.000  0.00  0.00    +0.000 NA
ATOM     10  C   UNL     1       4.631   1.769   0.000  0.00  0.00    +0.000 A 
ATOM     11  C   UNL     1       3.891   1.366   0.000  0.00  0.00    +0.000 A 
ATOM     12  C   UNL     1       5.337   1.342   0.000  0.00  0.00    +0.000 A 
BRANCH   7  13
ATOM     13  C   UNL     1       5.279  -1.092   0.000  0.00  0.00    +0.000 C 
BRANCH  13  14
ATOM     14  C   UNL     1       6.023  -0.708   0.000  0.00  0.00    +0.000 A 
ATOM     15  C   UNL     1       7.449   0.089   0.000  0.00  0.00    +0.000 A 
ATOM     16  C   UNL     1       6.719  -1.111   0.000  0.00  0.00    +0.000 A 
ATOM     17  C   UNL     1       5.999   0.098   0.000  0.00  0.00    +0.000 A 
ATOM     18  C   UNL     1       6.734   0.521   0.000  0.00  0.00    +0.000 A 
ATOM     19  C   UNL     1       7.411  -0.723   0.000  0.00  0.00    +0.000 A 
BRANCH  15  20
ATOM     20  O   UNL     1       8.155   0.516   0.000  0.00  0.00    +0.000 OA
ATOM     21  C   UNL     1       8.894   0.146   0.000  0.00  0.00    +0.000 C 
ENDBRANCH  15  20
ENDBRANCH  13  14
ENDBRANCH   7  13
ENDBRANCH   5   7
ENDBRANCH   4   5
ENDBRANCH   1   4
BRANCH   1  22
ATOM     22  C   UNL     1       1.721  -0.650   0.000  0.00  0.00    +0.000 C 
BRANCH  22  23
ATOM     23  C   UNL     1       1.016  -1.054   0.000  0.00  0.00    +0.000 C 
BRANCH  23  24
ATOM     24  C   UNL     1       0.295  -0.650   0.000  0.00  0.00    +0.000 C 
BRANCH  24  25
ATOM     25  C   UNL     1      -0.410  -1.063   0.000  0.00  0.00    +0.000 C 
BRANCH  25  26
ATOM     26  C   UNL     1      -1.092  -0.646   0.000  0.00  0.00    +0.000 C 
BRANCH  26  27
ATOM     27  C   UNL     1      -1.793  -1.083   0.000  0.00  0.00    +0.000 C 
BRANCH  27  28
ATOM     28  C   UNL     1      -2.514  -0.665   0.000  0.00  0.00    +0.000 C 
BRANCH  28  29
ATOM     29  C   UNL     1      -3.219  -1.092   0.000  0.00  0.00    +0.000 C 
BRANCH  29  30
ATOM     30  C   UNL     1      -3.925  -0.679   0.000  0.00  0.00    +0.000 C 
BRANCH  30  31
ATOM     31  C   UNL     1      -4.645  -1.097   0.000  0.00  0.00    +0.000 C 
BRANCH  31  32
ATOM     32  C   UNL     1      -5.351  -0.679   0.000  0.00  0.00    +0.000 C 
BRANCH  32  33
ATOM     33  C   UNL     1      -6.086  -1.107   0.000  0.00  0.00    +0.000 C 
BRANCH  33  34
ATOM     34  C   UNL     1      -6.777  -0.708   0.000  0.00  0.00    +0.000 C 
BRANCH  34  35
ATOM     35  C   UNL     1      -7.497  -1.111   0.000  0.00  0.00    +0.000 C 
BRANCH  35  36
ATOM     36  C   UNL     1      -8.203  -0.723   0.000  0.00  0.00    +0.000 C 
ATOM     37  C   UNL     1      -8.894  -1.121   0.000  0.00  0.00    +0.000 C 
ENDBRANCH  35  36
ENDBRANCH  34  35
ENDBRANCH  33  34
ENDBRANCH  32  33
ENDBRANCH  31  32
ENDBRANCH  30  31
ENDBRANCH  29  30
ENDBRANCH  28  29
ENDBRANCH  27  28
ENDBRANCH  26  27
ENDBRANCH  25  26
ENDBRANCH  24  25
ENDBRANCH  23  24
ENDBRANCH  22  23
ENDBRANCH   1  22
TORSDOF 21
