REMARK  Name = 
REMARK  4 active torsions:
REMARK  status: ('A' for Active; 'I' for Inactive)
REMARK    1  A    between atoms: C_7  and  C_13
REMARK    2  A    between atoms: C_13  and  N_14
REMARK    3  A    between atoms: N_14  and  C_15
REMARK    4  A    between atoms: C_18  and  C_19
REMARK                            x       y       z     vdW  Elec       q    Type
REMARK                         _______ _______ _______ _____ _____    ______ ____
ROOT
ATOM      1  C   UNL     1      -2.143  -0.619   0.000  0.00  0.00    +0.000 A 
ATOM      2  C   UNL     1      -2.143  -1.444   0.000  0.00  0.00    +0.000 A 
ATOM      3  N   UNL     1      -1.429  -0.206   0.000  0.00  0.00    +0.000 NA
ATOM      4  C   UNL     1      -2.858  -0.206   0.000  0.00  0.00    +0.000 A 
ATOM      5  N   UNL     1      -1.429  -1.856   0.000  0.00  0.00    +0.000 NA
ATOM      6  N   UNL     1      -2.858  -1.856   0.000  0.00  0.00    +0.000 NA
ATOM      7  C   UNL     1      -0.714  -0.619   0.000  0.00  0.00    +0.000 A 
ATOM      8  N   UNL     1      -3.572  -0.619   0.000  0.00  0.00    +0.000 NA
ATOM      9  O   UNL     1      -2.858   0.619   0.000  0.00  0.00    +0.000 OA
ATOM     10  C   UNL     1      -0.714  -1.444   0.000  0.00  0.00    +0.000 A 
ATOM     11  C   UNL     1      -3.572  -1.444   0.000  0.00  0.00    +0.000 A 
ATOM     12  N   UNL     1      -4.287  -1.856   0.000  0.00  0.00    +0.000 NA
ENDROOT
BRANCH   7  13
ATOM     13  C   UNL     1       0.000  -0.206   0.000  0.00  0.00    +0.000 C 
BRANCH  13  14
ATOM     14  N   UNL     1       0.715  -0.619   0.000  0.00  0.00    +0.000 NA
BRANCH  14  15
ATOM     15  C   UNL     1       1.429  -0.206   0.000  0.00  0.00    +0.000 A 
ATOM     16  C   UNL     1       1.429   0.619   0.000  0.00  0.00    +0.000 A 
ATOM     17  C   UNL     1       2.143   1.031   0.000  0.00  0.00    +0.000 A 
ATOM     18  C   UNL     1       2.858   0.619   0.000  0.00  0.00    +0.000 A 
ATOM     19  C   UNL     1       2.143  -0.619   0.000  0.00  0.00    +0.000 A 
ATOM     20  C   UNL     1       2.858  -0.206   0.000  0.00  0.00    +0.000 A 
BRANCH  18  21
ATOM     21  C   UNL     1       3.572   1.031   0.000  0.00  0.00    +0.000 C 
ATOM     22  O   UNL     1       3.572   1.856   0.000  0.00  0.00    +0.000 OA
ATOM     23  O   UNL     1       4.287   0.619   0.000  0.00  0.00    +0.000 OA
ENDBRANCH  18  21
ENDBRANCH  14  15
ENDBRANCH  13  14
ENDBRANCH   7  13
TORSDOF 4
