REMARK  Name = 
REMARK  3 active torsions:
REMARK  status: ('A' for Active; 'I' for Inactive)
REMARK    1  A    between atoms: C_5  and  C_9
REMARK    2  A    between atoms: C_9  and  C_10
REMARK    3  A    between atoms: C_10  and  N_11
REMARK                            x       y       z     vdW  Elec       q    Type
REMARK                         _______ _______ _______ _____ _____    ______ ____
ROOT
ATOM      1  C   UNL     1      -1.785   0.408   0.000  0.00  0.00    +0.000 A 
ATOM      2  C   UNL     1      -1.786  -0.419   0.000  0.00  0.00    +0.000 A 
ATOM      3  C   UNL     1      -1.071  -0.832   0.000  0.00  0.00    +0.000 A 
ATOM      4  C   UNL     1      -0.354  -0.419   0.000  0.00  0.00    +0.000 A 
ATOM      5  C   UNL     1      -0.357   0.411   0.000  0.00  0.00    +0.000 A 
ATOM      6  C   UNL     1      -1.073   0.821   0.000  0.00  0.00    +0.000 A 
ATOM      7  O   UNL     1      -2.499   0.820   0.000  0.00  0.00    +0.000 OA
ATOM      8  O   UNL     1      -2.501  -0.831   0.000  0.00  0.00    +0.000 OA
ENDROOT
BRANCH   5   9
ATOM      9  C   UNL     1       0.356   0.827   0.000  0.00  0.00    +0.000 C 
BRANCH   9  10
ATOM     10  C   UNL     1       1.072   0.417   0.000  0.00  0.00    +0.000 C 
BRANCH  10  11
ATOM     11  N   UNL     1       1.784   0.832   0.000  0.00  0.00    +0.000 NA
ATOM     12  C   UNL     1       2.501   0.422   0.000  0.00  0.00    +0.000 C 
ENDBRANCH  10  11
ENDBRANCH   9  10
ENDBRANCH   5   9
TORSDOF 3
