REMARK  Name = 
REMARK  5 active torsions:
REMARK  status: ('A' for Active; 'I' for Inactive)
REMARK    1  A    between atoms: C_10  and  C_11
REMARK    2  A    between atoms: C_13  and  C_14
REMARK    3  A    between atoms: C_14  and  C_15
REMARK    4  A    between atoms: C_19  and  C_22
REMARK    5  A    between atoms: C_26  and  N_27
REMARK                            x       y       z     vdW  Elec       q    Type
REMARK                         _______ _______ _______ _____ _____    ______ ____
ROOT
ATOM      1  C   UNL     1      -0.675  -0.714   0.000  0.00  0.00    +0.000 A 
ATOM      2  C   UNL     1      -1.088  -1.429   0.000  0.00  0.00    +0.000 A 
ATOM      3  C   UNL     1      -1.913  -1.429   0.000  0.00  0.00    +0.000 A 
ATOM      4  C   UNL     1      -2.325  -0.714   0.000  0.00  0.00    +0.000 A 
ATOM      5  C   UNL     1      -1.913   0.000   0.000  0.00  0.00    +0.000 A 
ATOM      6  C   UNL     1      -1.088   0.000   0.000  0.00  0.00    +0.000 A 
ATOM      7  O   UNL     1      -0.675   0.714   0.000  0.00  0.00    +0.000 OA
ENDROOT
BRANCH   1  17
ATOM      8  C   UNL     1       2.848  -0.302   0.000  0.00  0.00    +0.000 A 
ATOM      9  C   UNL     1       2.848  -1.127   0.000  0.00  0.00    +0.000 A 
ATOM     10  C   UNL     1       2.134  -1.539   0.000  0.00  0.00    +0.000 A 
ATOM     11  C   UNL     1       1.419  -1.127   0.000  0.00  0.00    +0.000 A 
ATOM     12  C   UNL     1       1.419  -0.302   0.000  0.00  0.00    +0.000 A 
ATOM     13  N   UNL     1       2.134   0.111   0.000  0.00  0.00    +0.000 NA
ATOM     14  N   UNL     1       3.563   0.111   0.000  0.00  0.00    +0.000 NA
ATOM     15  N   UNL     1       0.635  -1.382   0.000  0.00  0.00    +0.000 NA
ATOM     16  C   UNL     1       0.635  -0.047   0.000  0.00  0.00    +0.000 A 
ATOM     17  C   UNL     1       0.150  -0.714   0.000  0.00  0.00    +0.000 A 
ENDBRANCH   1  17
BRANCH   5  18
ATOM     18  C   UNL     1      -2.325   0.714   0.000  0.00  0.00    +0.000 A 
ATOM     19  C   UNL     1      -3.150   0.714   0.000  0.00  0.00    +0.000 A 
ATOM     20  C   UNL     1      -3.563   1.429   0.000  0.00  0.00    +0.000 A 
ATOM     21  C   UNL     1      -3.150   2.143   0.000  0.00  0.00    +0.000 A 
ATOM     22  C   UNL     1      -2.325   2.143   0.000  0.00  0.00    +0.000 A 
ATOM     23  C   UNL     1      -1.913   1.429   0.000  0.00  0.00    +0.000 A 
BRANCH  22  24
ATOM     24  N   UNL     1      -1.913   2.858   0.000  0.00  0.00    +0.000 N 
ATOM     25  O   UNL     1      -2.325   3.572   0.000  0.00  0.00    +0.000 OA
ATOM     26  O   UNL     1      -1.088   2.858   0.000  0.00  0.00    +0.000 OA
ENDBRANCH  22  24
ENDBRANCH   5  18
BRANCH   3  27
ATOM     27  C   UNL     1      -2.325  -2.143   0.000  0.00  0.00    +0.000 C 
BRANCH  27  28
ATOM     28  C   UNL     1      -1.913  -2.858   0.000  0.00  0.00    +0.000 C 
ATOM     29  O   UNL     1      -1.088  -2.858   0.000  0.00  0.00    +0.000 OA
ATOM     30  O   UNL     1      -2.325  -3.572   0.000  0.00  0.00    +0.000 OA
ENDBRANCH  27  28
ENDBRANCH   3  27
TORSDOF 5
