REMARK  Name = 
REMARK  7 active torsions:
REMARK  status: ('A' for Active; 'I' for Inactive)
REMARK    1  A    between atoms: O_2  and  C_3
REMARK    2  A    between atoms: C_7  and  N_9
REMARK    3  A    between atoms: C_24  and  C_38
REMARK    4  A    between atoms: N_25  and  C_26
REMARK    5  A    between atoms: C_28  and  C_34
REMARK    6  A    between atoms: C_31  and  O_32
REMARK    7  A    between atoms: C_38  and  C_39
REMARK                            x       y       z     vdW  Elec       q    Type
REMARK                         _______ _______ _______ _____ _____    ______ ____
ROOT
ATOM      1  N   UNL     1      -2.858  -2.475   0.000  0.00  0.00    +0.000 N 
ATOM      2  C   UNL     1      -2.858  -1.650   0.000  0.00  0.00    +0.000 C 
ATOM      3  C   UNL     1      -2.143  -1.237   0.000  0.00  0.00    +0.000 C 
ATOM      4  N   UNL     1      -1.429  -1.650   0.000  0.00  0.00    +0.000 N 
ATOM      5  C   UNL     1      -1.429  -2.475   0.000  0.00  0.00    +0.000 C 
ATOM      6  C   UNL     1      -2.143  -2.888   0.000  0.00  0.00    +0.000 C 
ATOM      7  C   UNL     1      -0.715  -1.237   0.000  0.00  0.00    +0.000 C 
ATOM      8  N   UNL     1       0.000  -1.650   0.000  0.00  0.00    +0.000 NA
ATOM      9  C   UNL     1       0.715  -1.237   0.000  0.00  0.00    +0.000 A 
ATOM     10  C   UNL     1       0.715  -0.412   0.000  0.00  0.00    +0.000 A 
ATOM     11  C   UNL     1       1.429   0.000   0.000  0.00  0.00    +0.000 A 
ATOM     12  C   UNL     1       2.143  -0.412   0.000  0.00  0.00    +0.000 A 
ATOM     13  C   UNL     1       2.143  -1.237   0.000  0.00  0.00    +0.000 A 
ATOM     14  C   UNL     1       1.429  -1.650   0.000  0.00  0.00    +0.000 A 
ATOM     15  F   UNL     1       1.429  -2.475   0.000  0.00  0.00    +0.000 F 
ATOM     16  C   UNL     1       0.000   0.000   0.000  0.00  0.00    +0.000 C 
ATOM     17  N   UNL     1      -0.715  -0.412   0.000  0.00  0.00    +0.000 N 
ENDROOT
BRANCH   1  22
ATOM     18  C   UNL     1      -4.287  -4.125   0.000  0.00  0.00    +0.000 A 
ATOM     19  C   UNL     1      -5.001  -3.712   0.000  0.00  0.00    +0.000 A 
ATOM     20  C   UNL     1      -5.001  -2.888   0.000  0.00  0.00    +0.000 A 
ATOM     21  C   UNL     1      -4.287  -2.475   0.000  0.00  0.00    +0.000 A 
ATOM     22  C   UNL     1      -3.572  -2.888   0.000  0.00  0.00    +0.000 A 
ATOM     23  C   UNL     1      -3.572  -3.712   0.000  0.00  0.00    +0.000 A 
BRANCH  18  25
ATOM     24  C   UNL     1      -5.001  -5.362   0.000  0.00  0.00    +0.000 C 
ATOM     25  O   UNL     1      -4.287  -4.950   0.000  0.00  0.00    +0.000 OA
ENDBRANCH  18  25
ENDBRANCH   1  22
BRANCH  17  26
ATOM     26  C   UNL     1      -1.429   0.000   0.000  0.00  0.00    +0.000 A 
ATOM     27  C   UNL     1      -2.143  -0.412   0.000  0.00  0.00    +0.000 A 
ATOM     28  C   UNL     1      -2.858   0.000   0.000  0.00  0.00    +0.000 A 
ATOM     29  C   UNL     1      -2.858   0.825   0.000  0.00  0.00    +0.000 A 
ATOM     30  C   UNL     1      -2.143   1.237   0.000  0.00  0.00    +0.000 A 
ATOM     31  C   UNL     1      -1.429   0.825   0.000  0.00  0.00    +0.000 A 
BRANCH  28  32
ATOM     32  C   UNL     1      -3.572  -0.412   0.000  0.00  0.00    +0.000 C 
ATOM     33  F   UNL     1      -4.287  -0.825   0.000  0.00  0.00    +0.000 F 
ATOM     34  F   UNL     1      -3.985   0.302   0.000  0.00  0.00    +0.000 F 
ATOM     35  F   UNL     1      -3.160  -1.127   0.000  0.00  0.00    +0.000 F 
ENDBRANCH  28  32
BRANCH  31  36
ATOM     36  O   UNL     1      -0.715   1.237   0.000  0.00  0.00    +0.000 OA
ATOM     37  C   UNL     1      -0.715   2.062   0.000  0.00  0.00    +0.000 C 
ENDBRANCH  31  36
ENDBRANCH  17  26
BRANCH  16  38
ATOM     38  C   UNL     1       0.000   0.825   0.000  0.00  0.00    +0.000 C 
BRANCH  38  39
ATOM     39  C   UNL     1       0.715   1.237   0.000  0.00  0.00    +0.000 C 
ATOM     40  O   UNL     1       1.429   0.825   0.000  0.00  0.00    +0.000 OA
ATOM     41  O   UNL     1       0.715   2.062   0.000  0.00  0.00    +0.000 OA
ENDBRANCH  38  39
ENDBRANCH  16  38
TORSDOF 7
