REMARK  Name = 
REMARK  6 active torsions:
REMARK  status: ('A' for Active; 'I' for Inactive)
REMARK    1  A    between atoms: N_4  and  C_8
REMARK    2  A    between atoms: C_8  and  C_9
REMARK    3  A    between atoms: C_12  and  C_15
REMARK    4  A    between atoms: C_15  and  C_16
REMARK    5  A    between atoms: C_21  and  N_24
REMARK    6  A    between atoms: N_24  and  C_25
REMARK                            x       y       z     vdW  Elec       q    Type
REMARK                         _______ _______ _______ _____ _____    ______ ____
ROOT
ATOM      1  C   UNL     1      10.717  -7.838   0.000  0.00  0.00    +0.000 C 
ATOM      2  O   UNL     1      11.431  -7.425   0.000  0.00  0.00    +0.000 OA
ATOM      3  N   UNL     1      10.717  -8.662   0.000  0.00  0.00    +0.000 N 
ATOM      4  C   UNL     1      11.431  -9.075   0.000  0.00  0.00    +0.000 C 
ATOM      5  C   UNL     1      11.431  -9.900   0.000  0.00  0.00    +0.000 C 
ATOM      6  C   UNL     1      10.717 -10.312   0.000  0.00  0.00    +0.000 C 
ATOM      7  C   UNL     1      10.003  -9.900   0.000  0.00  0.00    +0.000 C 
ATOM      8  C   UNL     1      10.003  -9.075   0.000  0.00  0.00    +0.000 C 
ENDROOT
BRANCH   6   9
ATOM      9  N   UNL     1      10.717 -11.137   0.000  0.00  0.00    +0.000 NA
BRANCH   9  10
ATOM     10  C   UNL     1      10.003 -11.550   0.000  0.00  0.00    +0.000 A 
ATOM     11  C   UNL     1      10.003 -12.375   0.000  0.00  0.00    +0.000 A 
ATOM     12  C   UNL     1       9.288 -12.787   0.000  0.00  0.00    +0.000 A 
ATOM     13  C   UNL     1       8.574 -12.375   0.000  0.00  0.00    +0.000 A 
ATOM     14  C   UNL     1       8.574 -11.550   0.000  0.00  0.00    +0.000 A 
ATOM     15  C   UNL     1       9.288 -11.137   0.000  0.00  0.00    +0.000 A 
ATOM     16  F   UNL     1       7.859 -11.137   0.000  0.00  0.00    +0.000 F 
ENDBRANCH   9  10
ENDBRANCH   6   9
BRANCH   1  17
ATOM     17  C   UNL     1      10.003  -7.425   0.000  0.00  0.00    +0.000 C 
BRANCH  17  21
ATOM     18  C   UNL     1      10.003  -4.950   0.000  0.00  0.00    +0.000 A 
ATOM     19  C   UNL     1      10.717  -5.362   0.000  0.00  0.00    +0.000 A 
ATOM     20  C   UNL     1      10.717  -6.188   0.000  0.00  0.00    +0.000 A 
ATOM     21  C   UNL     1      10.003  -6.600   0.000  0.00  0.00    +0.000 A 
ATOM     22  C   UNL     1       9.288  -6.188   0.000  0.00  0.00    +0.000 A 
ATOM     23  C   UNL     1       9.288  -5.362   0.000  0.00  0.00    +0.000 A 
BRANCH  18  24
ATOM     24  C   UNL     1      10.003  -4.125   0.000  0.00  0.00    +0.000 C 
BRANCH  24  28
ATOM     25  C   UNL     1       8.574  -1.650   0.000  0.00  0.00    +0.000 C 
ATOM     26  C   UNL     1       8.574  -2.475   0.000  0.00  0.00    +0.000 C 
ATOM     27  C   UNL     1       9.288  -2.888   0.000  0.00  0.00    +0.000 C 
ATOM     28  N   UNL     1       9.288  -3.712   0.000  0.00  0.00    +0.000 NA
ATOM     29  C   UNL     1       8.574  -4.125   0.000  0.00  0.00    +0.000 C 
ATOM     30  C   UNL     1       7.859  -3.712   0.000  0.00  0.00    +0.000 C 
ATOM     31  N   UNL     1       7.859  -2.888   0.000  0.00  0.00    +0.000 NA
ENDBRANCH  24  28
ENDBRANCH  18  24
ENDBRANCH  17  21
ENDBRANCH   1  17
TORSDOF 6
