REMARK  Name = 
REMARK  7 active torsions:
REMARK  status: ('A' for Active; 'I' for Inactive)
REMARK    1  A    between atoms: C_2  and  C_12
REMARK    2  A    between atoms: C_5  and  C_22
REMARK    3  A    between atoms: C_10  and  C_13
REMARK    4  A    between atoms: C_16  and  C_19
REMARK    5  A    between atoms: C_19  and  N_20
REMARK    6  A    between atoms: C_25  and  S_28
REMARK    7  A    between atoms: S_28  and  C_31
REMARK                            x       y       z     vdW  Elec       q    Type
REMARK                         _______ _______ _______ _____ _____    ______ ____
ROOT
ATOM      1  C   UNL     1      -0.443   1.644   0.000  0.00  0.00    +0.000 A 
ATOM      2  C   UNL     1      -0.443   0.819   0.000  0.00  0.00    +0.000 A 
ATOM      3  N   UNL     1      -1.157   2.062   0.000  0.00  0.00    +0.000 NA
ATOM      4  N   UNL     1      -1.157   0.412   0.000  0.00  0.00    +0.000 NA
ATOM      5  C   UNL     1      -1.872   0.819   0.000  0.00  0.00    +0.000 A 
ATOM      6  C   UNL     1      -1.872   1.644   0.000  0.00  0.00    +0.000 A 
ATOM      7  N   UNL     1       0.271   2.062   0.000  0.00  0.00    +0.000 NA
ENDROOT
BRANCH   5   8
ATOM      8  C   UNL     1      -2.586   0.412   0.000  0.00  0.00    +0.000 A 
ATOM      9  C   UNL     1      -2.586  -0.412   0.000  0.00  0.00    +0.000 A 
ATOM     10  C   UNL     1      -3.300  -0.831   0.000  0.00  0.00    +0.000 A 
ATOM     11  C   UNL     1      -4.014  -0.412   0.000  0.00  0.00    +0.000 A 
ATOM     12  C   UNL     1      -4.014   0.412   0.000  0.00  0.00    +0.000 A 
ATOM     13  C   UNL     1      -3.300   0.819   0.000  0.00  0.00    +0.000 A 
BRANCH  11  14
ATOM     14  S   UNL     1      -4.729  -0.831   0.000  0.00  0.00    +0.000 S 
ATOM     15  O   UNL     1      -5.147  -0.117   0.000  0.00  0.00    +0.000 OA
ATOM     16  O   UNL     1      -4.322  -1.545   0.000  0.00  0.00    +0.000 OA
BRANCH  14  17
ATOM     17  C   UNL     1      -5.443  -1.238   0.000  0.00  0.00    +0.000 C 
ATOM     18  C   UNL     1      -6.157  -0.831   0.000  0.00  0.00    +0.000 C 
ATOM     19  C   UNL     1      -5.443  -2.062   0.000  0.00  0.00    +0.000 C 
ENDBRANCH  14  17
ENDBRANCH  11  14
ENDBRANCH   5   8
BRANCH   2  24
ATOM     20  O   UNL     1       0.357  -0.412   0.000  0.00  0.00    +0.000 OA
ATOM     21  N   UNL     1       1.157  -0.585   0.000  0.00  0.00    +0.000 NA
ATOM     22  C   UNL     1       1.576   0.129   0.000  0.00  0.00    +0.000 A 
ATOM     23  C   UNL     1       1.022   0.745   0.000  0.00  0.00    +0.000 A 
ATOM     24  C   UNL     1       0.271   0.412   0.000  0.00  0.00    +0.000 A 
BRANCH  22  25
ATOM     25  C   UNL     1       2.389   0.215   0.000  0.00  0.00    +0.000 A 
ATOM     26  C   UNL     1       2.734   0.967   0.000  0.00  0.00    +0.000 A 
ATOM     27  C   UNL     1       3.546   1.053   0.000  0.00  0.00    +0.000 A 
ATOM     28  C   UNL     1       4.027   0.388   0.000  0.00  0.00    +0.000 A 
ATOM     29  C   UNL     1       3.694  -0.363   0.000  0.00  0.00    +0.000 A 
ATOM     30  C   UNL     1       2.881  -0.449   0.000  0.00  0.00    +0.000 A 
BRANCH  28  31
ATOM     31  C   UNL     1       4.852   0.474   0.000  0.00  0.00    +0.000 C 
BRANCH  31  32
ATOM     32  N   UNL     1       5.332  -0.191   0.000  0.00  0.00    +0.000 NA
ATOM     33  C   UNL     1       6.157  -0.105   0.000  0.00  0.00    +0.000 C 
ENDBRANCH  31  32
ENDBRANCH  28  31
ENDBRANCH  22  25
ENDBRANCH   2  24
TORSDOF 7
