REMARK  Name = 
REMARK  9 active torsions:
REMARK  status: ('A' for Active; 'I' for Inactive)
REMARK    1  A    between atoms: CB_6  and  CG_7
REMARK    2  A    between atoms: CB_6  and  CA_13
REMARK    3  A    between atoms: CG_7  and  CD_14
REMARK    4  A    between atoms: C_9  and  C_11
REMARK    5  A    between atoms: C_9  and  N_28
REMARK    6  A    between atoms: C_10  and  C_18
REMARK    7  A    between atoms: C_12  and  N_28
REMARK    8  A    between atoms: CA_13  and  C_19
REMARK    9  A    between atoms: CA_13  and  N_25
REMARK                            x       y       z     vdW  Elec       q    Type
REMARK                         _______ _______ _______ _____ _____    ______ ____
ROOT
ATOM      1  C   UNK A   0      -3.572  -2.888   0.000  0.00  0.00    +0.000 A 
ATOM      2  C   UNK A   0      -4.287  -1.650   0.000  0.00  0.00    +0.000 A 
ATOM      3  C   UNK A   0      -2.858  -2.475   0.000  0.00  0.00    +0.000 A 
ATOM      4  C   UNK A   0      -3.572  -1.238   0.000  0.00  0.00    +0.000 A 
ATOM      5  C   UNK A   0      -4.287  -2.475   0.000  0.00  0.00    +0.000 A 
ATOM      6  C   UNK A   0      -2.858  -1.650   0.000  0.00  0.00    +0.000 A 
ENDROOT
BRANCH   5   7
ATOM      7  C   UNK A   0      -5.001  -2.888   0.000  0.00  0.00    +0.000 C 
ATOM      8  N   GLU A   1      -5.716  -2.475   0.000  0.00  0.00    +0.000 NA
ATOM      9  O   UNK A   0      -5.001  -3.712   0.000  0.00  0.00    +0.000 OA
BRANCH   8  10
ATOM     10  CA  GLU A   1      -6.430  -2.888   0.000  0.00  0.00    +0.000 C 
BRANCH  10  11
ATOM     11  C   GLU A   1      -6.430  -3.712   0.000  0.00  0.00    +0.000 C 
ATOM     12  O   GLU A   1      -5.716  -4.125   0.000  0.00  0.00    +0.000 OA
ATOM     13  OXT GLU A   1      -7.145  -4.125   0.000  0.00  0.00    +0.000 OA
ENDBRANCH  10  11
BRANCH  10  14
ATOM     14  CB  GLU A   1      -7.145  -2.475   0.000  0.00  0.00    +0.000 C 
BRANCH  14  15
ATOM     15  CG  GLU A   1      -7.859  -2.888   0.000  0.00  0.00    +0.000 C 
BRANCH  15  16
ATOM     16  CD  GLU A   1      -8.574  -2.475   0.000  0.00  0.00    +0.000 C 
ATOM     17  OE1 GLU A   1      -9.288  -2.888   0.000  0.00  0.00    +0.000 OA
ATOM     18  OE2 GLU A   1      -8.574  -1.650   0.000  0.00  0.00    +0.000 OA
ENDBRANCH  15  16
ENDBRANCH  14  15
ENDBRANCH  10  14
ENDBRANCH   8  10
ENDBRANCH   5   7
BRANCH   6  20
ATOM     19  C   UNK A   0      -1.429  -1.650   0.000  0.00  0.00    +0.000 C 
ATOM     20  N   UNK A   0      -2.143  -1.238   0.000  0.00  0.00    +0.000 N 
BRANCH  20  21
ATOM     21  C   UNK A   0      -2.143  -0.412   0.000  0.00  0.00    +0.000 C 
BRANCH  21  23
ATOM     22  C   UNK A   0      -1.429   0.825   0.000  0.00  0.00    +0.000 A 
ATOM     23  C   UNK A   0      -1.429   0.000   0.000  0.00  0.00    +0.000 A 
ATOM     24  C   UNK A   0       0.000   0.000   0.000  0.00  0.00    +0.000 A 
ATOM     25  C   UNK A   0       0.715  -0.412   0.000  0.00  0.00    +0.000 A 
ATOM     26  C   UNK A   0       0.000   0.825   0.000  0.00  0.00    +0.000 A 
ATOM     27  C   UNK A   0       1.429   0.825   0.000  0.00  0.00    +0.000 A 
ATOM     28  N   UNK A   0       0.715  -1.238   0.000  0.00  0.00    +0.000 NA
ATOM     29  N   UNK A   0       2.143   1.238   0.000  0.00  0.00    +0.000 NA
ATOM     30  N   UNK A   0      -0.715   1.238   0.000  0.00  0.00    +0.000 NA
ATOM     31  N   UNK A   0      -0.715  -0.412   0.000  0.00  0.00    +0.000 NA
ATOM     32  N   UNK A   0       1.429   0.000   0.000  0.00  0.00    +0.000 NA
ATOM     33  N   UNK A   0       0.715   1.238   0.000  0.00  0.00    +0.000 NA
ENDBRANCH  21  23
ENDBRANCH  20  21
ENDBRANCH   6  20
TORSDOF 9
