REMARK  Name = 
REMARK  4 active torsions:
REMARK  status: ('A' for Active; 'I' for Inactive)
REMARK    1  A    between atoms: C_3  and  C_23
REMARK    2  A    between atoms: C_3  and  O_24
REMARK    3  A    between atoms: C_17  and  C_18
REMARK    4  A    between atoms: O_24  and  C_28
REMARK                            x       y       z     vdW  Elec       q    Type
REMARK                         _______ _______ _______ _____ _____    ______ ____
ROOT
ATOM      1  C   UNL     1       2.179  -1.001   0.000  0.00  0.00    +0.000 C 
ATOM      2  C   UNL     1       0.679  -1.984   0.000  0.00  0.00    +0.000 C 
ATOM      3  C   UNL     1       2.179   0.334   0.000  0.00  0.00    +0.000 C 
ATOM      4  C   UNL     1       0.679   0.491   0.000  0.00  0.00    +0.000 C 
ATOM      5  C   UNL     1       2.663  -0.334   0.000  0.00  0.00    +0.000 C 
ATOM      6  C   UNL     1      -0.750  -1.159   0.000  0.00  0.00    +0.000 C 
ATOM      7  C   UNL     1      -0.035   0.079   0.000  0.00  0.00    +0.000 C 
ATOM      8  C   UNL     1      -0.035  -2.396   0.000  0.00  0.00    +0.000 C 
ATOM      9  C   UNL     1      -0.750  -1.984   0.000  0.00  0.00    +0.000 C 
ATOM     10  C   UNL     1      -1.464  -0.746   0.000  0.00  0.00    +0.000 C 
ATOM     11  C   UNL     1      -1.464  -2.396   0.000  0.00  0.00    +0.000 C 
ATOM     12  C   UNL     1      -2.179  -1.159   0.000  0.00  0.00    +0.000 C 
ATOM     13  C   UNL     1       0.679  -1.159   0.000  0.00  0.00    +0.000 C 
ATOM     14  C   UNL     1      -0.035  -0.746   0.000  0.00  0.00    +0.000 C 
ATOM     15  C   UNL     1       1.394   0.079   0.000  0.00  0.00    +0.000 C 
ATOM     16  C   UNL     1       1.394  -0.746   0.000  0.00  0.00    +0.000 C 
ATOM     17  C   UNL     1      -2.179  -1.984   0.000  0.00  0.00    +0.000 C 
ATOM     18  N   UNL     1      -2.893  -2.396   0.000  0.00  0.00    +0.000 NA
ATOM     19  O   UNL     1      -3.607  -1.984   0.000  0.00  0.00    +0.000 OA
ENDROOT
BRANCH  15  20
ATOM     20  C   UNL     1       1.394   0.904   0.000  0.00  0.00    +0.000 C 
ATOM     21  C   UNL     1       0.679   1.316   0.000  0.00  0.00    +0.000 C 
ENDBRANCH  15  20
BRANCH   3  22
ATOM     22  C   UNL     1       2.893   0.746   0.000  0.00  0.00    +0.000 C 
ATOM     23  C   UNL     1       3.607   1.159   0.000  0.00  0.00    +0.000 C 
ENDBRANCH   3  22
BRANCH   3  24
ATOM     24  O   UNL     1       2.179   1.159   0.000  0.00  0.00    +0.000 OA
BRANCH  24  25
ATOM     25  C   UNL     1       2.179   1.984   0.000  0.00  0.00    +0.000 C 
ATOM     26  C   UNL     1       2.893   2.396   0.000  0.00  0.00    +0.000 C 
ATOM     27  O   UNL     1       1.464   2.396   0.000  0.00  0.00    +0.000 OA
ENDBRANCH  24  25
ENDBRANCH   3  24
TORSDOF 4
