REMARK  Name = 
REMARK  4 active torsions:
REMARK  status: ('A' for Active; 'I' for Inactive)
REMARK    1  A    between atoms: C_2  and  N_14
REMARK    2  A    between atoms: C_5  and  C_7
REMARK    3  A    between atoms: C_10  and  C_21
REMARK    4  A    between atoms: C_18  and  C_20
REMARK                            x       y       z     vdW  Elec       q    Type
REMARK                         _______ _______ _______ _____ _____    ______ ____
ROOT
ATOM      1  C   UNL     1      -1.105   1.096   0.000  0.00  0.00    +0.000 A 
ATOM      2  C   UNL     1      -1.816   0.678   0.000  0.00  0.00    +0.000 A 
ATOM      3  C   UNL     1      -1.816  -0.136   0.000  0.00  0.00    +0.000 A 
ATOM      4  C   UNL     1      -1.084  -0.567   0.000  0.00  0.00    +0.000 A 
ATOM      5  C   UNL     1      -0.373  -0.148   0.000  0.00  0.00    +0.000 A 
ATOM      6  C   UNL     1      -0.394   0.701   0.000  0.00  0.00    +0.000 A 
ATOM      7  F   UNL     1       0.317   1.119   0.000  0.00  0.00    +0.000 F 
ENDROOT
BRANCH   5   8
ATOM      8  C   UNL     1       0.373  -0.523   0.000  0.00  0.00    +0.000 A 
ATOM      9  C   UNL     1       0.394  -1.372   0.000  0.00  0.00    +0.000 A 
ATOM     10  N   UNL     1       1.105  -1.767   0.000  0.00  0.00    +0.000 NA
ATOM     11  C   UNL     1       1.816  -1.349   0.000  0.00  0.00    +0.000 A 
ATOM     12  C   UNL     1       1.816  -0.535   0.000  0.00  0.00    +0.000 A 
ATOM     13  C   UNL     1       1.084  -0.104   0.000  0.00  0.00    +0.000 A 
BRANCH  11  14
ATOM     14  C   UNL     1       2.533  -1.758   0.000  0.00  0.00    +0.000 A 
ATOM     15  N   UNL     1       3.285  -1.420   0.000  0.00  0.00    +0.000 NA
ATOM     16  N   UNL     1       2.622  -2.579   0.000  0.00  0.00    +0.000 NA
ATOM     17  N   UNL     1       3.839  -2.031   0.000  0.00  0.00    +0.000 NA
ATOM     18  N   UNL     1       3.430  -2.747   0.000  0.00  0.00    +0.000 N 
ATOM     19  C   UNL     1       3.768  -3.499   0.000  0.00  0.00    +0.000 C 
ENDBRANCH  11  14
ENDBRANCH   5   8
BRANCH   2  20
ATOM     20  N   UNL     1      -2.533   1.087   0.000  0.00  0.00    +0.000 N 
ATOM     21  C   UNL     1      -3.285   0.749   0.000  0.00  0.00    +0.000 C 
ATOM     22  C   UNL     1      -2.622   1.908   0.000  0.00  0.00    +0.000 C 
ATOM     23  O   UNL     1      -3.839   1.360   0.000  0.00  0.00    +0.000 OA
ATOM     24  C   UNL     1      -3.430   2.076   0.000  0.00  0.00    +0.000 C 
ATOM     25  O   UNL     1      -3.453  -0.059   0.000  0.00  0.00    +0.000 OA
BRANCH  24  26
ATOM     26  C   UNL     1      -3.768   2.828   0.000  0.00  0.00    +0.000 C 
ATOM     27  O   UNL     1      -3.285   3.499   0.000  0.00  0.00    +0.000 OA
ENDBRANCH  24  26
ENDBRANCH   2  20
TORSDOF 4
