REMARK  Name = 
REMARK  1 active torsions:
REMARK  status: ('A' for Active; 'I' for Inactive)
REMARK    1  A    between atoms: N_1  and  C_12
REMARK                            x       y       z     vdW  Elec       q    Type
REMARK                         _______ _______ _______ _____ _____    ______ ____
ROOT
ATOM      1  N   UNL     1      -0.460   0.000   0.000  0.00  0.00    +0.000 NA
ATOM      2  C   UNL     1      -0.048   0.715   0.000  0.00  0.00    +0.000 C 
ATOM      3  O   UNL     1      -0.460   1.429   0.000  0.00  0.00    +0.000 OA
ATOM      4  N   UNL     1       0.777   0.715   0.000  0.00  0.00    +0.000 NA
ATOM      5  C   UNL     1       1.190   0.000   0.000  0.00  0.00    +0.000 C 
ATOM      6  N   UNL     1       2.010  -0.086   0.000  0.00  0.00    +0.000 NA
ATOM      7  C   UNL     1       2.182  -0.893   0.000  0.00  0.00    +0.000 C 
ATOM      8  C   UNL     1       1.467  -1.306   0.000  0.00  0.00    +0.000 C 
ATOM      9  N   UNL     1       0.854  -0.754   0.000  0.00  0.00    +0.000 N 
ATOM     10  O   UNL     1       2.936  -1.229   0.000  0.00  0.00    +0.000 OA
ATOM     11  C   UNL     1       0.047  -0.925   0.000  0.00  0.00    +0.000 C 
ENDROOT
BRANCH   1  12
ATOM     12  C   UNL     1      -1.285   0.000   0.000  0.00  0.00    +0.000 A 
ATOM     13  C   UNL     1      -1.698  -0.715   0.000  0.00  0.00    +0.000 A 
ATOM     14  C   UNL     1      -2.523  -0.715   0.000  0.00  0.00    +0.000 A 
ATOM     15  C   UNL     1      -2.936   0.000   0.000  0.00  0.00    +0.000 A 
ATOM     16  C   UNL     1      -2.523   0.715   0.000  0.00  0.00    +0.000 A 
ATOM     17  C   UNL     1      -1.698   0.715   0.000  0.00  0.00    +0.000 A 
ATOM     18 CL   UNL     1      -2.936  -1.429   0.000  0.00  0.00    +0.000 Cl
ENDBRANCH   1  12
TORSDOF 1
