REMARK  Name = 
REMARK  7 active torsions:
REMARK  status: ('A' for Active; 'I' for Inactive)
REMARK    1  A    between atoms: C_14  and  O_19
REMARK    2  A    between atoms: O_19  and  C_25
REMARK    3  A    between atoms: C_25  and  C_26
REMARK    4  A    between atoms: C_26  and  C_28
REMARK    5  A    between atoms: C_28  and  C_29
REMARK    6  A    between atoms: C_29  and  C_30
REMARK    7  A    between atoms: C_30  and  C_31
REMARK                            x       y       z     vdW  Elec       q    Type
REMARK                         _______ _______ _______ _____ _____    ______ ____
ROOT
ATOM      1  C   UNL     1      13.662 -12.100   0.000  0.00  0.00    +0.000 C 
ATOM      2  C   UNL     1      12.943 -11.699   0.000  0.00  0.00    +0.000 C 
ATOM      3  C   UNL     1      14.405 -11.692   0.000  0.00  0.00    +0.000 C 
ATOM      4  C   UNL     1      13.665 -12.921   0.000  0.00  0.00    +0.000 C 
ATOM      5  C   UNL     1      12.238 -12.110   0.000  0.00  0.00    +0.000 C 
ATOM      6  C   UNL     1      12.939 -10.881   0.000  0.00  0.00    +0.000 C 
ATOM      7  C   UNL     1      14.399 -10.878   0.000  0.00  0.00    +0.000 C 
ATOM      8  C   UNL     1      15.797 -11.692   0.000  0.00  0.00    +0.000 C 
ATOM      9  C   UNL     1      12.953 -13.343   0.000  0.00  0.00    +0.000 C 
ATOM     10  C   UNL     1      12.248 -12.932   0.000  0.00  0.00    +0.000 C 
ATOM     11  C   UNL     1      11.529 -11.707   0.000  0.00  0.00    +0.000 C 
ATOM     12  C   UNL     1      12.234 -11.296   0.000  0.00  0.00    +0.000 C 
ATOM     13  C   UNL     1      13.648 -10.470   0.000  0.00  0.00    +0.000 C 
ATOM     14  C   UNL     1      15.071 -10.456   0.000  0.00  0.00    +0.000 C 
ATOM     15  C   UNL     1      14.391 -10.020   0.000  0.00  0.00    +0.000 C 
ATOM     16  C   UNL     1      15.787 -10.870   0.000  0.00  0.00    +0.000 C 
ATOM     17  C   UNL     1      11.536 -13.350   0.000  0.00  0.00    +0.000 C 
ATOM     18  C   UNL     1      10.817 -12.117   0.000  0.00  0.00    +0.000 C 
ATOM     19  C   UNL     1      10.821 -12.939   0.000  0.00  0.00    +0.000 C 
ATOM     20  O   UNL     1      10.088 -13.364   0.000  0.00  0.00    +0.000 OA
ENDROOT
BRANCH  14  21
ATOM     21  O   UNL     1      15.068  -9.599   0.000  0.00  0.00    +0.000 OA
BRANCH  21  22
ATOM     22  C   UNL     1      15.795  -9.175   0.000  0.00  0.00    +0.000 C 
ATOM     23  O   UNL     1      15.791  -8.334   0.000  0.00  0.00    +0.000 OA
BRANCH  22  24
ATOM     24  C   UNL     1      16.530  -9.596   0.000  0.00  0.00    +0.000 C 
BRANCH  24  25
ATOM     25  C   UNL     1      17.244  -9.181   0.000  0.00  0.00    +0.000 C 
BRANCH  25  26
ATOM     26  C   UNL     1      17.975  -9.599   0.000  0.00  0.00    +0.000 C 
BRANCH  26  27
ATOM     27  C   UNL     1      18.691  -9.182   0.000  0.00  0.00    +0.000 C 
BRANCH  27  28
ATOM     28  C   UNL     1      19.420  -9.600   0.000  0.00  0.00    +0.000 C 
ATOM     29  C   UNL     1      20.137  -9.182   0.000  0.00  0.00    +0.000 C 
ENDBRANCH  27  28
ENDBRANCH  26  27
ENDBRANCH  25  26
ENDBRANCH  24  25
ENDBRANCH  22  24
ENDBRANCH  21  22
ENDBRANCH  14  21
TORSDOF 7
