REMARK  Name = 
REMARK  12 active torsions:
REMARK  status: ('A' for Active; 'I' for Inactive)
REMARK    1  A    between atoms: O_2  and  C_3
REMARK    2  A    between atoms: C_3  and  C_4
REMARK    3  A    between atoms: C_4  and  N_5
REMARK    4  A    between atoms: N_5  and  C_6
REMARK    5  A    between atoms: C_6  and  C_7
REMARK    6  A    between atoms: C_10  and  C_13
REMARK    7  A    between atoms: C_18  and  O_19
REMARK    8  A    between atoms: O_19  and  C_20
REMARK    9  A    between atoms: C_24  and  N_25
REMARK   10  A    between atoms: C_26  and  C_28
REMARK   11  A    between atoms: C_28  and  C_31
REMARK   12  A    between atoms: N_33  and  C_34
REMARK                            x       y       z     vdW  Elec       q    Type
REMARK                         _______ _______ _______ _____ _____    ______ ____
ROOT
ATOM      1  C   UNL     1       2.070   1.365   0.000  0.00  0.00    +0.000 A 
ATOM      2  C   UNL     1       2.070   2.190   0.000  0.00  0.00    +0.000 A 
ATOM      3  F   UNL     1       1.356   2.602   0.000  0.00  0.00    +0.000 F 
ATOM      4  C   UNL     1       2.784   2.602   0.000  0.00  0.00    +0.000 A 
ATOM      5  C   UNL     1       3.499   2.190   0.000  0.00  0.00    +0.000 A 
ATOM      6  C   UNL     1       3.499   1.365   0.000  0.00  0.00    +0.000 A 
ATOM      7  C   UNL     1       2.784   0.952   0.000  0.00  0.00    +0.000 A 
ENDROOT
BRANCH   5   8
ATOM      8  N   UNL     1       4.213   2.602   0.000  0.00  0.00    +0.000 NA
ATOM      9  C   UNL     1       4.213   3.427   0.000  0.00  0.00    +0.000 C 
ATOM     10  O   UNL     1       3.499   3.840   0.000  0.00  0.00    +0.000 OA
BRANCH   9  11
ATOM     11  C   UNL     1       4.928   3.840   0.000  0.00  0.00    +0.000 C 
ATOM     12  C   UNL     1       5.740   3.983   0.000  0.00  0.00    +0.000 C 
ATOM     13  C   UNL     1       5.458   3.208   0.000  0.00  0.00    +0.000 C 
BRANCH  11  14
ATOM     14  C   UNL     1       4.646   4.615   0.000  0.00  0.00    +0.000 C 
ATOM     15  O   UNL     1       3.833   4.758   0.000  0.00  0.00    +0.000 OA
ATOM     16  N   UNL     1       5.176   5.247   0.000  0.00  0.00    +0.000 NA
BRANCH  16  17
ATOM     17  C   UNL     1       5.989   5.104   0.000  0.00  0.00    +0.000 A 
ATOM     18  C   UNL     1       6.519   5.736   0.000  0.00  0.00    +0.000 A 
ATOM     19  C   UNL     1       7.331   5.592   0.000  0.00  0.00    +0.000 A 
ATOM     20  C   UNL     1       7.614   4.817   0.000  0.00  0.00    +0.000 A 
ATOM     21  F   UNL     1       8.426   4.674   0.000  0.00  0.00    +0.000 F 
ATOM     22  C   UNL     1       7.083   4.185   0.000  0.00  0.00    +0.000 A 
ATOM     23  C   UNL     1       6.271   4.328   0.000  0.00  0.00    +0.000 A 
ENDBRANCH  16  17
ENDBRANCH  11  14
ENDBRANCH   9  11
ENDBRANCH   5   8
BRANCH   1  24
ATOM     24  O   UNL     1       1.356   0.952   0.000  0.00  0.00    +0.000 OA
BRANCH  24  30
ATOM     25  C   UNL     1      -0.628  -0.698   0.000  0.00  0.00    +0.000 A 
ATOM     26  C   UNL     1      -0.143  -1.365   0.000  0.00  0.00    +0.000 A 
ATOM     27  C   UNL     1       0.641  -1.110   0.000  0.00  0.00    +0.000 A 
ATOM     28  C   UNL     1       0.641  -0.285   0.000  0.00  0.00    +0.000 A 
ATOM     29  S   UNL     1      -0.143  -0.030   0.000  0.00  0.00    +0.000 S 
ATOM     30  C   UNL     1       1.356   0.127   0.000  0.00  0.00    +0.000 A 
ATOM     31  C   UNL     1       2.070  -0.285   0.000  0.00  0.00    +0.000 A 
ATOM     32  C   UNL     1       2.070  -1.110   0.000  0.00  0.00    +0.000 A 
ATOM     33  N   UNL     1       1.356  -1.523   0.000  0.00  0.00    +0.000 NA
BRANCH  25  37
ATOM     34  C   UNL     1      -3.103  -0.698   0.000  0.00  0.00    +0.000 A 
ATOM     35  C   UNL     1      -2.691   0.017   0.000  0.00  0.00    +0.000 A 
ATOM     36  C   UNL     1      -1.866   0.017   0.000  0.00  0.00    +0.000 A 
ATOM     37  C   UNL     1      -1.453  -0.698   0.000  0.00  0.00    +0.000 A 
ATOM     38  N   UNL     1      -1.866  -1.412   0.000  0.00  0.00    +0.000 NA
ATOM     39  C   UNL     1      -2.691  -1.412   0.000  0.00  0.00    +0.000 A 
BRANCH  34  40
ATOM     40  C   UNL     1      -3.928  -0.698   0.000  0.00  0.00    +0.000 C 
BRANCH  40  41
ATOM     41  N   UNL     1      -4.341  -1.412   0.000  0.00  0.00    +0.000 NA
BRANCH  41  42
ATOM     42  C   UNL     1      -5.166  -1.412   0.000  0.00  0.00    +0.000 C 
BRANCH  42  43
ATOM     43  C   UNL     1      -5.578  -2.127   0.000  0.00  0.00    +0.000 C 
BRANCH  43  45
ATOM     44  C   UNL     1      -6.816  -2.841   0.000  0.00  0.00    +0.000 C 
ATOM     45  O   UNL     1      -6.403  -2.127   0.000  0.00  0.00    +0.000 OA
ENDBRANCH  43  45
ENDBRANCH  42  43
ENDBRANCH  41  42
ENDBRANCH  40  41
ENDBRANCH  34  40
ENDBRANCH  25  37
ENDBRANCH  24  30
ENDBRANCH   1  24
TORSDOF 12
