REMARK  Name = 
REMARK  6 active torsions:
REMARK  status: ('A' for Active; 'I' for Inactive)
REMARK    1  A    between atoms: C_1  and  C_9
REMARK    2  A    between atoms: C_9  and  O_10
REMARK    3  A    between atoms: O_10  and  N_11
REMARK    4  A    between atoms: C_12  and  C_13
REMARK    5  A    between atoms: C_12  and  C_14
REMARK    6  A    between atoms: C_14  and  N_15
REMARK                            x       y       z     vdW  Elec       q    Type
REMARK                         _______ _______ _______ _____ _____    ______ ____
ROOT
ATOM      1  N   UNL     1       0.710  -0.847   0.000  0.00  0.00    +0.000 NA
ATOM      2  C   UNL     1       0.710  -0.025   0.000  0.00  0.00    +0.000 C 
ENDROOT
BRANCH   2   3
ATOM      3  C   UNL     1       1.432   0.374   0.000  0.00  0.00    +0.000 A 
ATOM      4  C   UNL     1       2.852   1.221   0.000  0.00  0.00    +0.000 A 
ATOM      5  C   UNL     1       2.852   0.374   0.000  0.00  0.00    +0.000 A 
ATOM      6  C   UNL     1       2.155   1.619   0.000  0.00  0.00    +0.000 A 
ATOM      7  C   UNL     1       2.155  -0.025   0.000  0.00  0.00    +0.000 A 
ATOM      8  C   UNL     1       1.432   1.221   0.000  0.00  0.00    +0.000 A 
ATOM      9 CL   UNL     1       3.575   1.619   0.000  0.00  0.00    +0.000 Cl
ATOM     10 CL   UNL     1       2.155  -0.847   0.000  0.00  0.00    +0.000 Cl
ENDBRANCH   2   3
BRANCH   1  11
ATOM     11  O   UNL     1      -0.012  -1.245   0.000  0.00  0.00    +0.000 OA
BRANCH  11  12
ATOM     12  C   UNL     1      -0.710  -0.847   0.000  0.00  0.00    +0.000 C 
BRANCH  12  13
ATOM     13  C   UNL     1      -1.432  -1.270   0.000  0.00  0.00    +0.000 A 
ATOM     14  C   UNL     1      -1.432  -2.092   0.000  0.00  0.00    +0.000 A 
ATOM     15  C   UNL     1      -2.155  -0.847   0.000  0.00  0.00    +0.000 A 
ATOM     16  C   UNL     1      -2.155  -2.491   0.000  0.00  0.00    +0.000 A 
ATOM     17  C   UNL     1      -2.852  -1.270   0.000  0.00  0.00    +0.000 A 
ATOM     18  C   UNL     1      -2.852  -2.092   0.000  0.00  0.00    +0.000 A 
ATOM     19 CL   UNL     1      -3.575  -2.491   0.000  0.00  0.00    +0.000 Cl
ATOM     20 CL   UNL     1      -2.155  -0.025   0.000  0.00  0.00    +0.000 Cl
ENDBRANCH  12  13
ENDBRANCH  11  12
ENDBRANCH   1  11
BRANCH   2  21
ATOM     21  C   UNL     1       0.012   0.399   0.000  0.00  0.00    +0.000 C 
BRANCH  21  22
ATOM     22  N   UNL     1       0.012   1.221   0.000  0.00  0.00    +0.000 N 
ATOM     23  C   UNL     1      -0.660   1.694   0.000  0.00  0.00    +0.000 A 
ATOM     24  N   UNL     1      -0.411   2.491   0.000  0.00  0.00    +0.000 NA
ATOM     25  C   UNL     1       0.660   1.694   0.000  0.00  0.00    +0.000 A 
ATOM     26  C   UNL     1       0.411   2.491   0.000  0.00  0.00    +0.000 A 
ENDBRANCH  21  22
ENDBRANCH   2  21
TORSDOF 6
