REMARK  Name = 
REMARK  2 active torsions:
REMARK  status: ('A' for Active; 'I' for Inactive)
REMARK    1  A    between atoms: C_18  and  C_23
REMARK    2  A    between atoms: C_23  and  C_26
REMARK                            x       y       z     vdW  Elec       q    Type
REMARK                         _______ _______ _______ _____ _____    ______ ____
ROOT
ATOM      1  C   UNL     1      -0.401  -0.172   0.000  0.00  0.00    +0.000 C 
ATOM      2  C   UNL     1       0.297  -0.568   0.000  0.00  0.00    +0.000 C 
ATOM      3  C   UNL     1      -1.097  -0.568   0.000  0.00  0.00    +0.000 C 
ATOM      4  C   UNL     1      -0.401   0.616   0.000  0.00  0.00    +0.000 C 
ATOM      5  F   UNL     1      -0.410  -1.039   0.000  0.00  0.00    +0.000 F 
ATOM      6  C   UNL     1       0.990  -0.172   0.000  0.00  0.00    +0.000 C 
ATOM      7  C   UNL     1       0.297  -1.362   0.000  0.00  0.00    +0.000 C 
ATOM      8  C   UNL     1      -1.097  -1.362   0.000  0.00  0.00    +0.000 C 
ATOM      9  C   UNL     1      -1.804  -0.113   0.000  0.00  0.00    +0.000 C 
ATOM     10  C   UNL     1      -1.100   0.396   0.000  0.00  0.00    +0.000 C 
ATOM     11  C   UNL     1       0.318   1.056   0.000  0.00  0.00    +0.000 C 
ATOM     12  O   UNL     1      -1.156   1.116   0.000  0.00  0.00    +0.000 OA
ATOM     13  C   UNL     1       0.990   0.653   0.000  0.00  0.00    +0.000 C 
ATOM     14  C   UNL     1       1.775  -0.427   0.000  0.00  0.00    +0.000 C 
ATOM     15  C   UNL     1      -0.410  -1.791   0.000  0.00  0.00    +0.000 C 
ATOM     16  C   UNL     1      -1.804  -1.791   0.000  0.00  0.00    +0.000 C 
ATOM     17  C   UNL     1      -2.491  -0.568   0.000  0.00  0.00    +0.000 C 
ATOM     18  C   UNL     1       1.775   0.908   0.000  0.00  0.00    +0.000 C 
ATOM     19  C   UNL     1       0.990   1.631   0.000  0.00  0.00    +0.000 C 
ATOM     20  C   UNL     1       2.260   0.241   0.000  0.00  0.00    +0.000 C 
ATOM     21  F   UNL     1      -0.410  -2.649   0.000  0.00  0.00    +0.000 F 
ATOM     22  C   UNL     1      -2.491  -1.362   0.000  0.00  0.00    +0.000 C 
ATOM     23  C   UNL     1       3.005   0.237   0.000  0.00  0.00    +0.000 C 
ATOM     24  O   UNL     1      -3.092  -1.726   0.000  0.00  0.00    +0.000 OA
ENDROOT
BRANCH  18  25
ATOM     25  C   UNL     1       2.030   1.693   0.000  0.00  0.00    +0.000 C 
ATOM     26  O   UNL     1       1.478   2.306   0.000  0.00  0.00    +0.000 OA
BRANCH  25  27
ATOM     27  C   UNL     1       2.837   1.865   0.000  0.00  0.00    +0.000 C 
ATOM     28  O   UNL     1       3.092   2.649   0.000  0.00  0.00    +0.000 OA
ENDBRANCH  25  27
ENDBRANCH  18  25
TORSDOF 2
