REMARK  Name = 
REMARK  11 active torsions:
REMARK  status: ('A' for Active; 'I' for Inactive)
REMARK    1  A    between atoms: C_4  and  C_8
REMARK    2  A    between atoms: C_8  and  N_9
REMARK    3  A    between atoms: N_9  and  C_10
REMARK    4  A    between atoms: N_9  and  C_11
REMARK    5  A    between atoms: C_10  and  C_20
REMARK    6  A    between atoms: C_11  and  C_12
REMARK    7  A    between atoms: C_14  and  N_17
REMARK    8  A    between atoms: N_27  and  C_28
REMARK    9  A    between atoms: C_28  and  C_29
REMARK   10  A    between atoms: C_29  and  C_30
REMARK   11  A    between atoms: C_30  and  C_31
REMARK                            x       y       z     vdW  Elec       q    Type
REMARK                         _______ _______ _______ _____ _____    ______ ____
ROOT
ATOM      1  N   UNL     1      -0.686   0.895   0.000  0.00  0.00    +0.000 NA
ENDROOT
BRANCH   1   2
ATOM      2  C   UNL     1      -0.686   0.070   0.000  0.00  0.00    +0.000 C 
BRANCH   2   3
ATOM      3  C   UNL     1       0.029  -0.342   0.000  0.00  0.00    +0.000 C 
ATOM      4  C   UNL     1       0.115  -1.163   0.000  0.00  0.00    +0.000 C 
ATOM      5  N   UNL     1       0.922  -1.334   0.000  0.00  0.00    +0.000 N 
ATOM      6  C   UNL     1       1.334  -0.620   0.000  0.00  0.00    +0.000 C 
ATOM      7  C   UNL     1       0.782  -0.007   0.000  0.00  0.00    +0.000 C 
ATOM      8  C   UNL     1       1.258  -2.088   0.000  0.00  0.00    +0.000 C 
ATOM      9  O   UNL     1       0.773  -2.755   0.000  0.00  0.00    +0.000 OA
ATOM     10  N   UNL     1       2.078  -2.174   0.000  0.00  0.00    +0.000 NA
BRANCH  10  11
ATOM     11  C   UNL     1       2.413  -2.928   0.000  0.00  0.00    +0.000 C 
BRANCH  11  12
ATOM     12  C   UNL     1       3.234  -3.014   0.000  0.00  0.00    +0.000 C 
BRANCH  12  13
ATOM     13  C   UNL     1       3.570  -3.768   0.000  0.00  0.00    +0.000 C 
BRANCH  13  14
ATOM     14  C   UNL     1       4.390  -3.854   0.000  0.00  0.00    +0.000 C 
ATOM     15  C   UNL     1       4.726  -4.608   0.000  0.00  0.00    +0.000 C 
ENDBRANCH  13  14
ENDBRANCH  12  13
ENDBRANCH  11  12
ENDBRANCH  10  11
ENDBRANCH   2   3
ENDBRANCH   1   2
BRANCH   1  16
ATOM     16  C   UNL     1       0.029   1.308   0.000  0.00  0.00    +0.000 C 
BRANCH  16  20
ATOM     17  C   UNL     1       0.029   3.783   0.000  0.00  0.00    +0.000 A 
ATOM     18  C   UNL     1      -0.686   3.370   0.000  0.00  0.00    +0.000 A 
ATOM     19  C   UNL     1      -0.686   2.545   0.000  0.00  0.00    +0.000 A 
ATOM     20  C   UNL     1       0.029   2.133   0.000  0.00  0.00    +0.000 A 
ATOM     21  C   UNL     1       0.743   2.545   0.000  0.00  0.00    +0.000 A 
ATOM     22  C   UNL     1       0.743   3.370   0.000  0.00  0.00    +0.000 A 
ATOM     23 CL   UNL     1       0.029   4.608   0.000  0.00  0.00    +0.000 Cl
ENDBRANCH  16  20
ENDBRANCH   1  16
BRANCH   1  24
ATOM     24  C   UNL     1      -1.400   1.308   0.000  0.00  0.00    +0.000 C 
BRANCH  24  25
ATOM     25  C   UNL     1      -2.115   0.895   0.000  0.00  0.00    +0.000 A 
ATOM     26  S   UNL     1      -2.868   1.231   0.000  0.00  0.00    +0.000 S 
ATOM     27  C   UNL     1      -3.420   0.618   0.000  0.00  0.00    +0.000 A 
ATOM     28  C   UNL     1      -3.008  -0.097   0.000  0.00  0.00    +0.000 A 
ATOM     29  C   UNL     1      -2.201   0.075   0.000  0.00  0.00    +0.000 A 
BRANCH  27  30
ATOM     30  N   UNL     1      -4.241   0.704   0.000  0.00  0.00    +0.000 N 
ATOM     31  O   UNL     1      -4.726   0.036   0.000  0.00  0.00    +0.000 OA
ATOM     32  O   UNL     1      -4.576   1.458   0.000  0.00  0.00    +0.000 OA
ENDBRANCH  27  30
ENDBRANCH  24  25
ENDBRANCH   1  24
TORSDOF 11
