REMARK  Name = 
REMARK  2 active torsions:
REMARK  status: ('A' for Active; 'I' for Inactive)
REMARK    1  A    between atoms: C_4  and  S_8
REMARK    2  A    between atoms: S_8  and  C_12
REMARK                            x       y       z     vdW  Elec       q    Type
REMARK                         _______ _______ _______ _____ _____    ______ ____
ROOT
ATOM      1  O   UNL     1      -0.841  -0.981   0.000  0.00  0.00    +0.000 OA
ATOM      2  C   UNL     1      -0.356  -0.313   0.000  0.00  0.00    +0.000 A 
ATOM      3  C   UNL     1      -0.841   0.354   0.000  0.00  0.00    +0.000 A 
ATOM      4  C   UNL     1      -1.626   0.099   0.000  0.00  0.00    +0.000 A 
ATOM      5  C   UNL     1      -1.626  -0.726   0.000  0.00  0.00    +0.000 A 
ATOM      6  C   UNL     1      -2.340   0.511   0.000  0.00  0.00    +0.000 A 
ATOM      7  C   UNL     1      -3.054   0.099   0.000  0.00  0.00    +0.000 A 
ATOM      8  C   UNL     1      -3.054  -0.726   0.000  0.00  0.00    +0.000 A 
ATOM      9  C   UNL     1      -2.340  -1.139   0.000  0.00  0.00    +0.000 A 
ATOM     10  C   UNL     1      -0.586   1.139   0.000  0.00  0.00    +0.000 C 
ATOM     11 CL   UNL     1      -3.769   0.511   0.000  0.00  0.00    +0.000 Cl
ENDROOT
BRANCH   2  12
ATOM     12  S   UNL     1       0.469  -0.313   0.000  0.00  0.00    +0.000 S 
ATOM     13  O   UNL     1       0.469  -1.139   0.000  0.00  0.00    +0.000 OA
ATOM     14  O   UNL     1       0.469   0.511   0.000  0.00  0.00    +0.000 OA
BRANCH  12  18
ATOM     15  C   UNL     1       2.944  -0.313   0.000  0.00  0.00    +0.000 A 
ATOM     16  C   UNL     1       2.531  -1.028   0.000  0.00  0.00    +0.000 A 
ATOM     17  C   UNL     1       1.706  -1.028   0.000  0.00  0.00    +0.000 A 
ATOM     18  C   UNL     1       1.294  -0.313   0.000  0.00  0.00    +0.000 A 
ATOM     19  N   UNL     1       1.706   0.401   0.000  0.00  0.00    +0.000 NA
ATOM     20  N   UNL     1       2.531   0.401   0.000  0.00  0.00    +0.000 NA
ATOM     21  O   UNL     1       3.769  -0.313   0.000  0.00  0.00    +0.000 OA
ENDBRANCH  12  18
ENDBRANCH   2  12
TORSDOF 2
