REMARK  Name = 
REMARK  3 active torsions:
REMARK  status: ('A' for Active; 'I' for Inactive)
REMARK    1  A    between atoms: C_10  and  S_11
REMARK    2  A    between atoms: S_11  and  C_12
REMARK    3  A    between atoms: C_15  and  N_19
REMARK                            x       y       z     vdW  Elec       q    Type
REMARK                         _______ _______ _______ _____ _____    ______ ____
ROOT
ATOM      1  C   UNL     1      -0.801   0.536   0.000  0.00  0.00    +0.000 A 
ATOM      2  N   UNL     1      -0.801   1.361   0.000  0.00  0.00    +0.000 NA
ATOM      3  C   UNL     1      -0.087   1.774   0.000  0.00  0.00    +0.000 A 
ATOM      4  C   UNL     1       0.628   1.361   0.000  0.00  0.00    +0.000 A 
ATOM      5  N   UNL     1       0.628   0.536   0.000  0.00  0.00    +0.000 NA
ATOM      6  C   UNL     1      -0.087   0.124   0.000  0.00  0.00    +0.000 A 
ATOM      7  N   UNL     1      -0.087  -0.701   0.000  0.00  0.00    +0.000 NA
ENDROOT
BRANCH   4   8
ATOM      8  N   UNL     1       1.342   1.774   0.000  0.00  0.00    +0.000 N 
ATOM      9  C   UNL     1       1.342   2.599   0.000  0.00  0.00    +0.000 C 
ATOM     10  C   UNL     1       2.057   3.011   0.000  0.00  0.00    +0.000 C 
ATOM     11  C   UNL     1       2.771   2.599   0.000  0.00  0.00    +0.000 C 
ATOM     12  C   UNL     1       2.857   3.420   0.000  0.00  0.00    +0.000 C 
ATOM     13  O   UNL     1       3.664   3.591   0.000  0.00  0.00    +0.000 OA
ATOM     14  C   UNL     1       4.077   2.877   0.000  0.00  0.00    +0.000 C 
ATOM     15  C   UNL     1       3.525   2.264   0.000  0.00  0.00    +0.000 C 
ATOM     16  N   UNL     1       3.696   1.456   0.000  0.00  0.00    +0.000 NA
ATOM     17  C   UNL     1       2.771   1.774   0.000  0.00  0.00    +0.000 C 
ATOM     18  C   UNL     1       2.057   1.361   0.000  0.00  0.00    +0.000 C 
ENDBRANCH   4   8
BRANCH   1  19
ATOM     19  S   UNL     1      -1.516   0.124   0.000  0.00  0.00    +0.000 S 
BRANCH  19  29
ATOM     20  C   UNL     1      -4.077  -3.150   0.000  0.00  0.00    +0.000 C 
ATOM     21  C   UNL     1      -3.270  -2.978   0.000  0.00  0.00    +0.000 C 
ATOM     22  O   UNL     1      -2.718  -3.591   0.000  0.00  0.00    +0.000 OA
ATOM     23  N   UNL     1      -3.015  -2.193   0.000  0.00  0.00    +0.000 N 
ATOM     24  C   UNL     1      -3.500  -1.526   0.000  0.00  0.00    +0.000 C 
ATOM     25  C   UNL     1      -3.015  -0.858   0.000  0.00  0.00    +0.000 C 
ATOM     26  F   UNL     1      -3.729  -0.446   0.000  0.00  0.00    +0.000 F 
ATOM     27  F   UNL     1      -2.679  -0.105   0.000  0.00  0.00    +0.000 F 
ATOM     28  C   UNL     1      -2.230  -1.113   0.000  0.00  0.00    +0.000 A 
ATOM     29  C   UNL     1      -1.516  -0.701   0.000  0.00  0.00    +0.000 A 
ATOM     30  C   UNL     1      -0.801  -1.113   0.000  0.00  0.00    +0.000 A 
ATOM     31  C   UNL     1      -0.801  -1.938   0.000  0.00  0.00    +0.000 A 
ATOM     32  C   UNL     1      -1.516  -2.351   0.000  0.00  0.00    +0.000 A 
ATOM     33  C   UNL     1      -2.230  -1.938   0.000  0.00  0.00    +0.000 A 
ENDBRANCH  19  29
ENDBRANCH   1  19
TORSDOF 3
