REMARK  Name = 
REMARK  2 active torsions:
REMARK  status: ('A' for Active; 'I' for Inactive)
REMARK    1  A    between atoms: C_9  and  O_14
REMARK    2  A    between atoms: O_14  and  C_15
REMARK                            x       y       z     vdW  Elec       q    Type
REMARK                         _______ _______ _______ _____ _____    ______ ____
ROOT
ATOM      1  C   UNL     1       0.661   0.635   0.000  0.00  0.00    +0.000 A 
ATOM      2  C   UNL     1       0.661  -0.190   0.000  0.00  0.00    +0.000 A 
ATOM      3  C   UNL     1      -0.053   1.044   0.000  0.00  0.00    +0.000 A 
ATOM      4  N   UNL     1       1.373   1.044   0.000  0.00  0.00    +0.000 NA
ATOM      5  C   UNL     1      -0.040  -0.589   0.000  0.00  0.00    +0.000 A 
ATOM      6  C   UNL     1       1.383  -0.589   0.000  0.00  0.00    +0.000 C 
ATOM      7  C   UNL     1      -0.757   0.635   0.000  0.00  0.00    +0.000 A 
ATOM      8  C   UNL     1       2.105   0.635   0.000  0.00  0.00    +0.000 C 
ATOM      9  C   UNL     1      -0.757  -0.190   0.000  0.00  0.00    +0.000 A 
ATOM     10  C   UNL     1       2.105  -0.190   0.000  0.00  0.00    +0.000 C 
ATOM     11  C   UNL     1       1.383  -1.414   0.000  0.00  0.00    +0.000 C 
ATOM     12  C   UNL     1       2.377   1.414   0.000  0.00  0.00    +0.000 C 
ATOM     13  C   UNL     1       2.920   0.490   0.000  0.00  0.00    +0.000 C 
ENDROOT
BRANCH   9  14
ATOM     14  O   UNL     1      -1.479  -0.597   0.000  0.00  0.00    +0.000 OA
BRANCH  14  15
ATOM     15  C   UNL     1      -2.191  -0.190   0.000  0.00  0.00    +0.000 C 
ATOM     16  C   UNL     1      -2.920  -0.607   0.000  0.00  0.00    +0.000 C 
ENDBRANCH  14  15
ENDBRANCH   9  14
TORSDOF 2
