REMARK  Name = 
REMARK  10 active torsions:
REMARK  status: ('A' for Active; 'I' for Inactive)
REMARK    1  A    between atoms: C_1  and  O_18
REMARK    2  A    between atoms: C_4  and  C_13
REMARK    3  A    between atoms: C_11  and  C_21
REMARK    4  A    between atoms: C_14  and  C_15
REMARK    5  A    between atoms: C_14  and  C_23
REMARK    6  A    between atoms: C_15  and  C_24
REMARK    7  A    between atoms: O_18  and  C_25
REMARK    8  A    between atoms: C_21  and  C_22
REMARK    9  A    between atoms: C_22  and  C_27
REMARK   10  A    between atoms: C_23  and  C_27
REMARK                            x       y       z     vdW  Elec       q    Type
REMARK                         _______ _______ _______ _____ _____    ______ ____
ROOT
ATOM      1  C   UNL     1      -4.200   2.492   0.000  0.00  0.00    +0.000 C 
ATOM      2  C   UNL     1      -3.481   2.900   0.000  0.00  0.00    +0.000 C 
ATOM      3  C   UNL     1      -4.205   1.666   0.000  0.00  0.00    +0.000 C 
ATOM      4  O   UNL     1       6.503   1.214   0.000  0.00  0.00    +0.000 OA
ATOM      5  C   UNL     1       7.222   1.627   0.000  0.00  0.00    +0.000 C 
ATOM      6  C   UNL     1       6.503   0.389   0.000  0.00  0.00    +0.000 C 
ATOM      7  C   UNL     1      -2.772   2.482   0.000  0.00  0.00    +0.000 C 
ATOM      8  C   UNL     1       7.222   2.453   0.000  0.00  0.00    +0.000 C 
ATOM      9  C   UNL     1      -4.924   1.258   0.000  0.00  0.00    +0.000 C 
ATOM     10  C   UNL     1      -2.052   2.890   0.000  0.00  0.00    +0.000 C 
ATOM     11  C   UNL     1      -4.928   0.432   0.000  0.00  0.00    +0.000 C 
ATOM     12  C   UNL     1      -1.338   2.473   0.000  0.00  0.00    +0.000 C 
ATOM     13  C   UNL     1       6.508   2.866   0.000  0.00  0.00    +0.000 C 
ATOM     14  O   UNL     1       7.936   1.210   0.000  0.00  0.00    +0.000 OA
ATOM     15  C   UNL     1       2.951   2.448   0.000  0.00  0.00    +0.000 C 
ATOM     16  C   UNL     1       5.788  -0.019   0.000  0.00  0.00    +0.000 C 
ATOM     17  C   UNL     1       1.523   2.458   0.000  0.00  0.00    +0.000 C 
ATOM     18  C   UNL     1       0.090   2.468   0.000  0.00  0.00    +0.000 C 
ATOM     19  C   UNL     1       3.670   2.857   0.000  0.00  0.00    +0.000 C 
ATOM     20  C   UNL     1      -0.619   2.886   0.000  0.00  0.00    +0.000 C 
ATOM     21  C   UNL     1       2.237   2.866   0.000  0.00  0.00    +0.000 C 
ATOM     22  C   UNL     1       0.809   2.876   0.000  0.00  0.00    +0.000 C 
ATOM     23  O   UNL     1      -2.047   3.716   0.000  0.00  0.00    +0.000 OA
ATOM     24  C   UNL     1      -2.067   0.418   0.000  0.00  0.00    +0.000 C 
ATOM     25  C   UNL     1      -1.353   0.005   0.000  0.00  0.00    +0.000 C 
ATOM     26  C   UNL     1      -0.639   0.413   0.000  0.00  0.00    +0.000 C 
ATOM     27  C   UNL     1       0.075   0.000   0.000  0.00  0.00    +0.000 C 
ATOM     28  C   UNL     1       0.789   0.408   0.000  0.00  0.00    +0.000 C 
ATOM     29  C   UNL     1       1.504  -0.005   0.000  0.00  0.00    +0.000 C 
ATOM     30  C   UNL     1       2.218   0.403   0.000  0.00  0.00    +0.000 C 
ATOM     31  C   UNL     1       2.932  -0.010   0.000  0.00  0.00    +0.000 C 
ATOM     32  C   UNL     1       3.646   0.398   0.000  0.00  0.00    +0.000 C 
ATOM     33  C   UNL     1      -2.781   0.010   0.000  0.00  0.00    +0.000 C 
ATOM     34  C   UNL     1       4.360  -0.015   0.000  0.00  0.00    +0.000 C 
ATOM     35  C   UNL     1      -3.495   0.423   0.000  0.00  0.00    +0.000 C 
ATOM     36  C   UNL     1      -4.214   0.015   0.000  0.00  0.00    +0.000 C 
ATOM     37  C   UNL     1       5.074   0.394   0.000  0.00  0.00    +0.000 C 
ATOM     38  O   UNL     1       6.508   3.692   0.000  0.00  0.00    +0.000 OA
ATOM     39  O   UNL     1       3.675   3.682   0.000  0.00  0.00    +0.000 OA
ATOM     40  O   UNL     1      -3.476   3.726   0.000  0.00  0.00    +0.000 OA
ATOM     41  O   UNL     1      -3.490   1.248   0.000  0.00  0.00    +0.000 OA
ATOM     42  O   UNL     1       0.814   3.702   0.000  0.00  0.00    +0.000 OA
ATOM     43  O   UNL     1       2.242   3.692   0.000  0.00  0.00    +0.000 OA
ATOM     44  O   UNL     1      -0.615   3.712   0.000  0.00  0.00    +0.000 OA
ATOM     45  C   UNL     1       5.099   2.852   0.000  0.00  0.00    +0.000 C 
ATOM     46  C   UNL     1       5.793   2.453   0.000  0.00  0.00    +0.000 C 
ATOM     47  C   UNL     1       4.384   2.443   0.000  0.00  0.00    +0.000 C 
ATOM     48  C   UNL     1       5.784  -0.845   0.000  0.00  0.00    +0.000 C 
ENDROOT
BRANCH   1  49
ATOM     49  C   UNL     1      -4.914   2.910   0.000  0.00  0.00    +0.000 C 
ATOM     50  O   UNL     1      -4.909   3.736   0.000  0.00  0.00    +0.000 OA
ATOM     51  O   UNL     1      -5.628   2.502   0.000  0.00  0.00    +0.000 OA
ENDBRANCH   1  49
BRANCH   6  52
ATOM     52  C   UNL     1       7.217  -0.024   0.000  0.00  0.00    +0.000 C 
ATOM     53  C   UNL     1       7.931   0.389   0.000  0.00  0.00    +0.000 C 
BRANCH  52  54
ATOM     54  C   UNL     1       7.217  -0.850   0.000  0.00  0.00    +0.000 C 
BRANCH  54  55
ATOM     55  C   UNL     1       7.931  -1.263   0.000  0.00  0.00    +0.000 C 
ATOM     56  C   UNL     1       8.645  -0.850   0.000  0.00  0.00    +0.000 C 
BRANCH  55  57
ATOM     57  C   UNL     1       7.931  -2.089   0.000  0.00  0.00    +0.000 C 
ATOM     58  O   UNL     1       8.645  -2.502   0.000  0.00  0.00    +0.000 OA
BRANCH  57  59
ATOM     59  C   UNL     1       7.212  -2.502   0.000  0.00  0.00    +0.000 C 
BRANCH  59  60
ATOM     60  C   UNL     1       6.498  -2.089   0.000  0.00  0.00    +0.000 C 
ATOM     61  O   UNL     1       6.498  -1.263   0.000  0.00  0.00    +0.000 OA
BRANCH  60  62
ATOM     62  C   UNL     1       5.784  -2.502   0.000  0.00  0.00    +0.000 A 
ATOM     63  C   UNL     1       5.069  -2.084   0.000  0.00  0.00    +0.000 A 
ATOM     64  C   UNL     1       5.788  -3.323   0.000  0.00  0.00    +0.000 A 
ATOM     65  C   UNL     1       4.355  -3.323   0.000  0.00  0.00    +0.000 A 
ATOM     66  N   UNL     1       3.641  -3.736   0.000  0.00  0.00    +0.000 NA
ATOM     67  C   UNL     1       4.355  -2.497   0.000  0.00  0.00    +0.000 A 
ATOM     68  C   UNL     1       5.074  -3.736   0.000  0.00  0.00    +0.000 A 
ENDBRANCH  60  62
ENDBRANCH  59  60
ENDBRANCH  57  59
ENDBRANCH  55  57
ENDBRANCH  54  55
ENDBRANCH  52  54
ENDBRANCH   6  52
BRANCH  11  69
ATOM     69  O   UNL     1      -5.341  -0.282   0.000  0.00  0.00    +0.000 OA
BRANCH  69  70
ATOM     70  C   UNL     1      -6.167  -0.282   0.000  0.00  0.00    +0.000 C 
ATOM     71  C   UNL     1      -6.580  -0.996   0.000  0.00  0.00    +0.000 C 
ATOM     72  C   UNL     1      -7.401  -0.996   0.000  0.00  0.00    +0.000 C 
ATOM     73  O   UNL     1      -6.580   0.432   0.000  0.00  0.00    +0.000 OA
ATOM     74  C   UNL     1      -7.819  -0.282   0.000  0.00  0.00    +0.000 C 
ATOM     75  C   UNL     1      -7.401   0.432   0.000  0.00  0.00    +0.000 C 
ATOM     76  N   UNL     1      -7.814  -1.710   0.000  0.00  0.00    +0.000 NA
ATOM     77  O   UNL     1      -6.162  -1.710   0.000  0.00  0.00    +0.000 OA
ATOM     78  O   UNL     1      -8.645  -0.282   0.000  0.00  0.00    +0.000 OA
ATOM     79  C   UNL     1      -7.814   1.151   0.000  0.00  0.00    +0.000 C 
ENDBRANCH  69  70
ENDBRANCH  11  69
TORSDOF 10
