REMARK  Name = 
REMARK  9 active torsions:
REMARK  status: ('A' for Active; 'I' for Inactive)
REMARK    1  A    between atoms: C_6  and  C_7
REMARK    2  A    between atoms: N_8  and  O_9
REMARK    3  A    between atoms: O_9  and  C_10
REMARK    4  A    between atoms: C_10  and  C_11
REMARK    5  A    between atoms: C_14  and  C_17
REMARK    6  A    between atoms: C_17  and  O_19
REMARK    7  A    between atoms: O_19  and  C_20
REMARK    8  A    between atoms: C_24  and  O_25
REMARK    9  A    between atoms: O_25  and  C_26
REMARK                            x       y       z     vdW  Elec       q    Type
REMARK                         _______ _______ _______ _____ _____    ______ ____
ROOT
ATOM      1  C   UNL     1       1.139  -3.236   0.000  0.00  0.00    +0.000 C 
ATOM      2  N   UNL     1       0.319  -3.150   0.000  0.00  0.00    +0.000 NA
ENDROOT
BRANCH   1   8
ATOM      3  C   UNL     1       2.037  -0.474   0.000  0.00  0.00    +0.000 C 
ATOM      4  N   UNL     1       2.037  -1.299   0.000  0.00  0.00    +0.000 N 
ATOM      5  N   UNL     1       2.704  -1.784   0.000  0.00  0.00    +0.000 NA
ATOM      6  C   UNL     1       2.449  -2.569   0.000  0.00  0.00    +0.000 A 
ATOM      7  C   UNL     1       2.934  -3.236   0.000  0.00  0.00    +0.000 C 
ATOM      8  C   UNL     1       1.624  -2.569   0.000  0.00  0.00    +0.000 A 
ATOM      9  C   UNL     1       1.369  -1.784   0.000  0.00  0.00    +0.000 A 
BRANCH   9  10
ATOM     10  O   UNL     1       0.585  -1.529   0.000  0.00  0.00    +0.000 OA
BRANCH  10  11
ATOM     11  C   UNL     1       0.413  -0.722   0.000  0.00  0.00    +0.000 A 
ATOM     12  C   UNL     1      -0.371  -0.467   0.000  0.00  0.00    +0.000 A 
ATOM     13  C   UNL     1      -0.543   0.340   0.000  0.00  0.00    +0.000 A 
ATOM     14  C   UNL     1       0.070   0.892   0.000  0.00  0.00    +0.000 A 
ATOM     15  C   UNL     1       0.855   0.637   0.000  0.00  0.00    +0.000 A 
ATOM     16  C   UNL     1       1.026  -0.170   0.000  0.00  0.00    +0.000 A 
ENDBRANCH  10  11
ENDBRANCH   9  10
ENDBRANCH   1   8
BRANCH   2  17
ATOM     17  O   UNL     1      -0.166  -3.817   0.000  0.00  0.00    +0.000 OA
BRANCH  17  18
ATOM     18  C   UNL     1      -0.987  -3.731   0.000  0.00  0.00    +0.000 C 
BRANCH  18  19
ATOM     19  C   UNL     1      -1.472  -4.399   0.000  0.00  0.00    +0.000 A 
ATOM     20  C   UNL     1      -1.136  -5.152   0.000  0.00  0.00    +0.000 A 
ATOM     21  C   UNL     1      -1.621  -5.820   0.000  0.00  0.00    +0.000 A 
ATOM     22  C   UNL     1      -2.441  -5.733   0.000  0.00  0.00    +0.000 A 
ATOM     23  C   UNL     1      -2.777  -4.980   0.000  0.00  0.00    +0.000 A 
ATOM     24  C   UNL     1      -2.292  -4.312   0.000  0.00  0.00    +0.000 A 
BRANCH  22  25
ATOM     25  C   UNL     1      -2.926  -6.401   0.000  0.00  0.00    +0.000 C 
ATOM     26  O   UNL     1      -2.591  -7.154   0.000  0.00  0.00    +0.000 OA
BRANCH  25  27
ATOM     27  O   UNL     1      -3.747  -6.315   0.000  0.00  0.00    +0.000 OA
BRANCH  27  28
ATOM     28  C   UNL     1      -4.232  -6.982   0.000  0.00  0.00    +0.000 C 
ATOM     29  C   UNL     1      -4.717  -7.649   0.000  0.00  0.00    +0.000 C 
ATOM     30  C   UNL     1      -3.564  -7.467   0.000  0.00  0.00    +0.000 C 
ATOM     31  C   UNL     1      -4.899  -6.497   0.000  0.00  0.00    +0.000 C 
ENDBRANCH  27  28
ENDBRANCH  25  27
ENDBRANCH  22  25
ENDBRANCH  18  19
ENDBRANCH  17  18
ENDBRANCH   2  17
TORSDOF 9
