REMARK  Name = 
REMARK  9 active torsions:
REMARK  status: ('A' for Active; 'I' for Inactive)
REMARK    1  A    between atoms: C_2  and  C_21
REMARK    2  A    between atoms: C_3  and  C_6
REMARK    3  A    between atoms: C_5  and  C_22
REMARK    4  A    between atoms: N_7  and  C_21
REMARK    5  A    between atoms: C_10  and  C_12
REMARK    6  A    between atoms: C_12  and  C_26
REMARK    7  A    between atoms: C_12  and  N_31
REMARK    8  A    between atoms: C_23  and  C_28
REMARK    9  A    between atoms: C_28  and  N_31
REMARK                            x       y       z     vdW  Elec       q    Type
REMARK                         _______ _______ _______ _____ _____    ______ ____
ROOT
ATOM      1  C   UNL     1       1.150   0.200   0.000  0.00  0.00    +0.000 C 
ATOM      2  O   UNL     1       1.875  -1.818   0.000  0.00  0.00    +0.000 OA
ATOM      3  N   UNL     1       1.150  -0.636   0.000  0.00  0.00    +0.000 N 
ATOM      4  C   UNL     1       0.314  -0.636   0.000  0.00  0.00    +0.000 C 
ATOM      5  C   UNL     1       1.867  -1.004   0.000  0.00  0.00    +0.000 C 
ATOM      6  C   UNL     1       0.314   0.200   0.000  0.00  0.00    +0.000 C 
ENDROOT
BRANCH   4   7
ATOM      7  C   UNL     1      -0.405  -1.062   0.000  0.00  0.00    +0.000 C 
ATOM      8  N   UNL     1      -1.102  -0.655   0.000  0.00  0.00    +0.000 NA
ATOM      9  O   UNL     1      -0.395  -1.892   0.000  0.00  0.00    +0.000 OA
BRANCH   8  10
ATOM     10  C   UNL     1      -1.831  -1.055   0.000  0.00  0.00    +0.000 C 
BRANCH  10  11
ATOM     11  C   UNL     1      -2.554  -0.651   0.000  0.00  0.00    +0.000 A 
ATOM     12  C   UNL     1      -4.009   0.151   0.000  0.00  0.00    +0.000 A 
ATOM     13  C   UNL     1      -3.287   0.557   0.000  0.00  0.00    +0.000 A 
ATOM     14  C   UNL     1      -4.006  -0.660   0.000  0.00  0.00    +0.000 A 
ATOM     15  C   UNL     1      -3.276  -1.058   0.000  0.00  0.00    +0.000 A 
ATOM     16  C   UNL     1      -2.562   0.159   0.000  0.00  0.00    +0.000 A 
BRANCH  12  17
ATOM     17  C   UNL     1      -4.738   0.551   0.000  0.00  0.00    +0.000 C 
ATOM     18  N   UNL     1      -5.461   0.140   0.000  0.00  0.00    +0.000 NA
ATOM     19  N   UNL     1      -4.745   1.362   0.000  0.00  0.00    +0.000 NA
ENDBRANCH  12  17
ENDBRANCH  10  11
ENDBRANCH   8  10
ENDBRANCH   4   7
BRANCH   5  20
ATOM     20  C   UNL     1       2.585  -0.565   0.000  0.00  0.00    +0.000 C 
BRANCH  20  22
ATOM     21  C   UNL     1       2.592   1.892   0.000  0.00  0.00    +0.000 C 
ATOM     22  C   UNL     1       2.587   0.256   0.000  0.00  0.00    +0.000 C 
ATOM     23  C   UNL     1       3.294   0.658   0.000  0.00  0.00    +0.000 C 
ATOM     24  C   UNL     1       1.885   1.484   0.000  0.00  0.00    +0.000 C 
ATOM     25  C   UNL     1       3.297   1.479   0.000  0.00  0.00    +0.000 C 
ATOM     26  C   UNL     1       1.883   0.663   0.000  0.00  0.00    +0.000 C 
ENDBRANCH  20  22
BRANCH  20  27
ATOM     27  N   UNL     1       3.308  -0.947   0.000  0.00  0.00    +0.000 NA
BRANCH  27  28
ATOM     28  C   UNL     1       4.026  -0.509   0.000  0.00  0.00    +0.000 C 
BRANCH  28  31
ATOM     29  O   UNL     1       5.461  -0.452   0.000  0.00  0.00    +0.000 OA
ATOM     30  O   UNL     1       4.754  -1.708   0.000  0.00  0.00    +0.000 OA
ATOM     31  C   UNL     1       4.747  -0.888   0.000  0.00  0.00    +0.000 C 
ENDBRANCH  28  31
ENDBRANCH  27  28
ENDBRANCH  20  27
ENDBRANCH   5  20
TORSDOF 9
