REMARK  Name = 
REMARK  7 active torsions:
REMARK  status: ('A' for Active; 'I' for Inactive)
REMARK    1  A    between atoms: C_6  and  N_8
REMARK    2  A    between atoms: N_11  and  C_14
REMARK    3  A    between atoms: C_14  and  C_15
REMARK    4  A    between atoms: C_15  and  C_16
REMARK    5  A    between atoms: C_16  and  N_17
REMARK    6  A    between atoms: C_19  and  C_25
REMARK    7  A    between atoms: N_20  and  C_23
REMARK                            x       y       z     vdW  Elec       q    Type
REMARK                         _______ _______ _______ _____ _____    ______ ____
ROOT
ATOM      1  N   UNL     1      -2.303   0.254   0.000  0.00  0.00    +0.000 N 
ATOM      2  C   UNL     1      -1.588  -0.159   0.000  0.00  0.00    +0.000 C 
ATOM      3  C   UNL     1      -0.874   0.254   0.000  0.00  0.00    +0.000 C 
ATOM      4  N   UNL     1      -0.874   1.079   0.000  0.00  0.00    +0.000 NA
ATOM      5  C   UNL     1      -1.588   1.491   0.000  0.00  0.00    +0.000 C 
ATOM      6  C   UNL     1      -2.303   1.079   0.000  0.00  0.00    +0.000 C 
ENDROOT
BRANCH   1  12
ATOM      7  C   UNL     1      -3.731   0.254   0.000  0.00  0.00    +0.000 A 
ATOM      8  C   UNL     1      -4.446  -0.159   0.000  0.00  0.00    +0.000 A 
ATOM      9  C   UNL     1      -4.446  -0.984   0.000  0.00  0.00    +0.000 A 
ATOM     10  C   UNL     1      -3.731  -1.396   0.000  0.00  0.00    +0.000 A 
ATOM     11  C   UNL     1      -3.017  -0.984   0.000  0.00  0.00    +0.000 A 
ATOM     12  C   UNL     1      -3.017  -0.159   0.000  0.00  0.00    +0.000 A 
ATOM     13 CL   UNL     1      -3.731  -2.221   0.000  0.00  0.00    +0.000 Cl
ENDBRANCH   1  12
BRANCH   4  14
ATOM     14  C   UNL     1      -0.159   1.491   0.000  0.00  0.00    +0.000 C 
BRANCH  14  15
ATOM     15  C   UNL     1       0.555   1.079   0.000  0.00  0.00    +0.000 C 
BRANCH  15  16
ATOM     16  C   UNL     1       1.270   1.491   0.000  0.00  0.00    +0.000 C 
BRANCH  16  17
ATOM     17  N   UNL     1       1.984   1.079   0.000  0.00  0.00    +0.000 N 
ATOM     18  N   UNL     1       2.071   0.258   0.000  0.00  0.00    +0.000 NA
ATOM     19  C   UNL     1       2.877   0.087   0.000  0.00  0.00    +0.000 A 
ATOM     20  N   UNL     1       3.290   0.801   0.000  0.00  0.00    +0.000 N 
ATOM     21  C   UNL     1       2.738   1.414   0.000  0.00  0.00    +0.000 A 
ATOM     22  O   UNL     1       2.909   2.221   0.000  0.00  0.00    +0.000 OA
BRANCH  19  23
ATOM     23  C   UNL     1       3.213  -0.667   0.000  0.00  0.00    +0.000 C 
ATOM     24  C   UNL     1       4.034  -0.753   0.000  0.00  0.00    +0.000 C 
ENDBRANCH  19  23
BRANCH  20  25
ATOM     25  C   UNL     1       4.111   0.887   0.000  0.00  0.00    +0.000 C 
ATOM     26  C   UNL     1       4.446   1.641   0.000  0.00  0.00    +0.000 C 
ENDBRANCH  20  25
ENDBRANCH  16  17
ENDBRANCH  15  16
ENDBRANCH  14  15
ENDBRANCH   4  14
TORSDOF 7
