REMARK  Name = 
REMARK  9 active torsions:
REMARK  status: ('A' for Active; 'I' for Inactive)
REMARK    1  A    between atoms: C_2  and  CA_6
REMARK    2  A    between atoms: NE_5  and  CD_9
REMARK    3  A    between atoms: CA_6  and  N_8
REMARK    4  A    between atoms: CA_6  and  CB_10
REMARK    5  A    between atoms: CD_9  and  CG_11
REMARK    6  A    between atoms: CB_10  and  CG_11
REMARK    7  A    between atoms: C_13  and  C_15
REMARK    8  A    between atoms: C_15  and  C_17
REMARK    9  A    between atoms: C_17  and  C_18
REMARK                            x       y       z     vdW  Elec       q    Type
REMARK                         _______ _______ _______ _____ _____    ______ ____
ROOT
ATOM      1  CA  ARG A   1       1.429   0.619   0.000  0.00  0.00    +0.000 C 
ENDROOT
BRANCH   1   2
ATOM      2  C   ARG A   1       2.143   1.031   0.000  0.00  0.00    +0.000 C 
ATOM      3  O   ARG A   1       2.143   1.856   0.000  0.00  0.00    +0.000 OA
ATOM      4  OXT ARG A   1       2.858   0.619   0.000  0.00  0.00    +0.000 OA
ENDBRANCH   1   2
BRANCH   1   5
ATOM      5  N   ARG A   1       1.429  -0.206   0.000  0.00  0.00    +0.000 NA
ATOM      6  C   UNK A   0       0.714  -0.619   0.000  0.00  0.00    +0.000 C 
ATOM      7  O   UNK A   0       0.714  -1.444   0.000  0.00  0.00    +0.000 OA
BRANCH   6   8
ATOM      8  C   UNK A   0       0.000  -0.206   0.000  0.00  0.00    +0.000 C 
BRANCH   8   9
ATOM      9  C   UNK A   0      -0.714  -0.619   0.000  0.00  0.00    +0.000 C 
BRANCH   9  11
ATOM     10  O   UNK A   0       0.000  -1.856   0.000  0.00  0.00    +0.000 OA
ATOM     11  C   UNK A   0      -0.714  -1.444   0.000  0.00  0.00    +0.000 C 
ATOM     12  O   UNK A   0      -1.429  -1.856   0.000  0.00  0.00    +0.000 OA
ENDBRANCH   9  11
ENDBRANCH   8   9
ENDBRANCH   6   8
ENDBRANCH   1   5
BRANCH   1  13
ATOM     13  CB  ARG A   1       0.714   1.031   0.000  0.00  0.00    +0.000 C 
BRANCH  13  14
ATOM     14  CG  ARG A   1       0.000   0.619   0.000  0.00  0.00    +0.000 C 
BRANCH  14  15
ATOM     15  CD  ARG A   1      -0.714   1.031   0.000  0.00  0.00    +0.000 C 
BRANCH  15  18
ATOM     16  CZ  ARG A   1      -2.143   1.031   0.000  0.00  0.00    +0.000 C 
ATOM     17  NH1 ARG A   1      -2.858   0.619   0.000  0.00  0.00    +0.000 NA
ATOM     18  NE  ARG A   1      -1.429   0.619   0.000  0.00  0.00    +0.000 NA
ATOM     19  NH2 ARG A   1      -2.143   1.856   0.000  0.00  0.00    +0.000 NA
ENDBRANCH  15  18
ENDBRANCH  14  15
ENDBRANCH  13  14
ENDBRANCH   1  13
TORSDOF 9
