REMARK  Name = 
REMARK  10 active torsions:
REMARK  status: ('A' for Active; 'I' for Inactive)
REMARK    1  A    between atoms: C_6  and  C_7
REMARK    2  A    between atoms: C_7  and  C_8
REMARK    3  A    between atoms: C_8  and  C_21
REMARK    4  A    between atoms: N_9  and  CA_19
REMARK    5  A    between atoms: N_9  and  C_21
REMARK    6  A    between atoms: CA_19  and  C_30
REMARK    7  A    between atoms: C_21  and  C_22
REMARK    8  A    between atoms: C_22  and  O_24
REMARK    9  A    between atoms: O_24  and  C_25
REMARK   10  A    between atoms: C_26  and  C_28
REMARK                            x       y       z     vdW  Elec       q    Type
REMARK                         _______ _______ _______ _____ _____    ______ ____
ROOT
ATOM      1  N   ALA A   1       0.035  -0.825   0.000  0.00  0.00    +0.000 NA
ENDROOT
BRANCH   1   2
ATOM      2  CA  ALA A   1       0.750  -0.412   0.000  0.00  0.00    +0.000 C 
ATOM      3  CB  ALA A   1       0.750   0.412   0.000  0.00  0.00    +0.000 C 
BRANCH   2  12
ATOM      4  C   UNK A   2       2.930   0.691   0.000  0.00  0.00    +0.000 C 
ATOM      5  N   UNK A   2       2.178  -0.412   0.000  0.00  0.00    +0.000 N 
ATOM      6  C   UNK A   2       3.475  -1.296   0.000  0.00  0.00    +0.000 C 
ATOM      7  C   UNK A   2       4.252  -1.018   0.000  0.00  0.00    +0.000 C 
ATOM      8  C   UNK A   2       4.227  -0.193   0.000  0.00  0.00    +0.000 C 
ATOM      9  C   UNK A   2       2.970  -0.644   0.000  0.00  0.00    +0.000 C 
ATOM     10  C   UNK A   2       3.435   0.038   0.000  0.00  0.00    +0.000 C 
ATOM     11  C   UNK A   2       2.154   0.412   0.000  0.00  0.00    +0.000 C 
ATOM     12  C   ALA A   1       1.464  -0.825   0.000  0.00  0.00    +0.000 C 
ATOM     13  O   ALA A   1       1.464  -1.650   0.000  0.00  0.00    +0.000 OA
BRANCH  11  15
ATOM     14  O   UNK A   2       0.916   1.127   0.000  0.00  0.00    +0.000 OA
ATOM     15  C   UNK A   2       1.741   1.127   0.000  0.00  0.00    +0.000 C 
ATOM     16  O   UNK A   2       2.154   1.841   0.000  0.00  0.00    +0.000 OA
ENDBRANCH  11  15
ENDBRANCH   2  12
ENDBRANCH   1   2
BRANCH   1  17
ATOM     17  C   UNK A   0      -0.679  -0.412   0.000  0.00  0.00    +0.000 C 
BRANCH  17  18
ATOM     18  C   UNK A   0      -0.679   0.412   0.000  0.00  0.00    +0.000 C 
ATOM     19  O   UNK A   0      -1.394   0.825   0.000  0.00  0.00    +0.000 OA
BRANCH  18  20
ATOM     20  O   UNK A   0       0.035   0.825   0.000  0.00  0.00    +0.000 OA
BRANCH  20  21
ATOM     21  C   UNK A   0       0.035   1.650   0.000  0.00  0.00    +0.000 C 
ATOM     22  C   UNK A   0       0.750   2.062   0.000  0.00  0.00    +0.000 C 
ENDBRANCH  20  21
ENDBRANCH  18  20
ENDBRANCH  17  18
BRANCH  17  23
ATOM     23  C   UNK A   0      -1.394  -0.825   0.000  0.00  0.00    +0.000 C 
BRANCH  23  24
ATOM     24  C   UNK A   0      -2.108  -0.412   0.000  0.00  0.00    +0.000 C 
BRANCH  24  30
ATOM     25  C   UNK A   0      -3.537  -0.412   0.000  0.00  0.00    +0.000 A 
ATOM     26  C   UNK A   0      -4.252  -0.825   0.000  0.00  0.00    +0.000 A 
ATOM     27  C   UNK A   0      -4.252  -1.650   0.000  0.00  0.00    +0.000 A 
ATOM     28  C   UNK A   0      -3.537  -2.062   0.000  0.00  0.00    +0.000 A 
ATOM     29  C   UNK A   0      -2.823  -1.650   0.000  0.00  0.00    +0.000 A 
ATOM     30  C   UNK A   0      -2.823  -0.825   0.000  0.00  0.00    +0.000 A 
ENDBRANCH  24  30
ENDBRANCH  23  24
ENDBRANCH  17  23
ENDBRANCH   1  17
TORSDOF 10
