REMARK  Name = 
REMARK  6 active torsions:
REMARK  status: ('A' for Active; 'I' for Inactive)
REMARK    1  A    between atoms: C_1  and  C_7
REMARK    2  A    between atoms: C_3  and  O_9
REMARK    3  A    between atoms: C_4  and  S_8
REMARK    4  A    between atoms: C_6  and  O_10
REMARK    5  A    between atoms: C_7  and  C_12
REMARK    6  A    between atoms: S_8  and  C_13
REMARK                            x       y       z     vdW  Elec       q    Type
REMARK                         _______ _______ _______ _____ _____    ______ ____
ROOT
ATOM      1  C   UNL     1       0.715   0.417   0.000  0.00  0.00    +0.000 A 
ATOM      2  C   UNL     1      -0.719   0.417   0.000  0.00  0.00    +0.000 A 
ATOM      3  C   UNL     1      -0.006   0.829   0.000  0.00  0.00    +0.000 A 
ATOM      4  C   UNL     1      -0.719  -0.417   0.000  0.00  0.00    +0.000 A 
ATOM      5  C   UNL     1       0.715  -0.408   0.000  0.00  0.00    +0.000 A 
ATOM      6  C   UNL     1      -0.006  -0.821   0.000  0.00  0.00    +0.000 A 
ENDROOT
BRANCH   3   7
ATOM      7  O   UNL     1      -0.006   1.646   0.000  0.00  0.00    +0.000 OA
ATOM      8  C   UNL     1      -0.719   2.059   0.000  0.00  0.00    +0.000 C 
ENDBRANCH   3   7
BRANCH   6   9
ATOM      9  O   UNL     1       0.002  -1.646   0.000  0.00  0.00    +0.000 OA
ATOM     10  C   UNL     1       0.719  -2.059   0.000  0.00  0.00    +0.000 C 
ENDBRANCH   6   9
BRANCH   4  11
ATOM     11  S   UNL     1      -1.431  -0.833   0.000  0.00  0.00    +0.000 S 
BRANCH  11  12
ATOM     12  C   UNL     1      -2.144  -0.421   0.000  0.00  0.00    +0.000 C 
ATOM     13  C   UNL     1      -2.857  -0.833   0.000  0.00  0.00    +0.000 C 
ENDBRANCH  11  12
ENDBRANCH   4  11
BRANCH   1  14
ATOM     14  C   UNL     1       1.427   0.833   0.000  0.00  0.00    +0.000 C 
BRANCH  14  16
ATOM     15  N   UNL     1       2.857   0.842   0.000  0.00  0.00    +0.000 NA
ATOM     16  C   UNL     1       2.144   0.429   0.000  0.00  0.00    +0.000 C 
ATOM     17  C   UNL     1       2.144  -0.396   0.000  0.00  0.00    +0.000 C 
ENDBRANCH  14  16
ENDBRANCH   1  14
TORSDOF 6
