REMARK  Name = 
REMARK  8 active torsions:
REMARK  status: ('A' for Active; 'I' for Inactive)
REMARK    1  A    between atoms: C_7  and  O_8
REMARK    2  A    between atoms: C_19  and  O_20
REMARK    3  A    between atoms: O_20  and  C_21
REMARK    4  A    between atoms: C_28  and  C_36
REMARK    5  A    between atoms: C_36  and  N_37
REMARK    6  A    between atoms: C_38  and  C_40
REMARK    7  A    between atoms: C_41  and  C_42
REMARK    8  A    between atoms: C_46  and  C_48
REMARK                            x       y       z     vdW  Elec       q    Type
REMARK                         _______ _______ _______ _____ _____    ______ ____
ROOT
ATOM      1  C   UNL     1      -1.839  -0.512   0.000  0.00  0.00    +0.000 C 
ATOM      2  C   UNL     1      -1.026  -0.655   0.000  0.00  0.00    +0.000 A 
ATOM      3  C   UNL     1      -0.497  -0.022   0.000  0.00  0.00    +0.000 A 
ATOM      4  C   UNL     1       0.316  -0.164   0.000  0.00  0.00    +0.000 A 
ATOM      5  C   UNL     1       0.599  -0.939   0.000  0.00  0.00    +0.000 A 
ATOM      6  C   UNL     1       0.070  -1.572   0.000  0.00  0.00    +0.000 A 
ATOM      7  C   UNL     1      -0.743  -1.429   0.000  0.00  0.00    +0.000 A 
ATOM      8  O   UNL     1       0.353  -2.347   0.000  0.00  0.00    +0.000 OA
ATOM      9  C   UNL     1       1.347  -1.287   0.000  0.00  0.00    +0.000 C 
ATOM     10  C   UNL     1       2.122  -1.004   0.000  0.00  0.00    +0.000 C 
ATOM     11  C   UNL     1       2.596  -1.679   0.000  0.00  0.00    +0.000 C 
ATOM     12  C   UNL     1       3.418  -1.606   0.000  0.00  0.00    +0.000 A 
ATOM     13  C   UNL     1       3.766  -0.858   0.000  0.00  0.00    +0.000 A 
ATOM     14  C   UNL     1       4.588  -0.785   0.000  0.00  0.00    +0.000 A 
ATOM     15  C   UNL     1       5.061  -1.461   0.000  0.00  0.00    +0.000 A 
ATOM     16  C   UNL     1       4.714  -2.209   0.000  0.00  0.00    +0.000 A 
ATOM     17  C   UNL     1       3.892  -2.282   0.000  0.00  0.00    +0.000 A 
ATOM     18  C   UNL     1       5.188  -2.884   0.000  0.00  0.00    +0.000 C 
ATOM     19  O   UNL     1       5.850  -1.219   0.000  0.00  0.00    +0.000 OA
ATOM     20  C   UNL     1       5.864  -0.394   0.000  0.00  0.00    +0.000 C 
ATOM     21  O   UNL     1       5.083  -0.126   0.000  0.00  0.00    +0.000 OA
ATOM     22  C   UNL     1       3.292  -0.183   0.000  0.00  0.00    +0.000 C 
ATOM     23  N   UNL     1       2.470  -0.256   0.000  0.00  0.00    +0.000 NA
ATOM     24  C   UNL     1       2.187   0.519   0.000  0.00  0.00    +0.000 C 
ATOM     25  C   UNL     1       1.439   0.867   0.000  0.00  0.00    +0.000 C 
ATOM     26  C   UNL     1       0.664   0.584   0.000  0.00  0.00    +0.000 C 
ATOM     27  N   UNL     1       1.124  -0.199   0.000  0.00  0.00    +0.000 NA
ATOM     28  C   UNL     1       0.477   0.314   0.000  0.00  0.00    +0.000 C 
ATOM     29  O   UNL     1       2.795   1.077   0.000  0.00  0.00    +0.000 OA
ENDROOT
BRANCH   7  30
ATOM     30  O   UNL     1      -1.273  -2.062   0.000  0.00  0.00    +0.000 OA
ATOM     31  C   UNL     1      -2.085  -1.920   0.000  0.00  0.00    +0.000 C 
ENDBRANCH   7  30
BRANCH  17  32
ATOM     32  O   UNL     1       3.544  -3.030   0.000  0.00  0.00    +0.000 OA
BRANCH  32  33
ATOM     33  C   UNL     1       4.018  -3.705   0.000  0.00  0.00    +0.000 C 
ATOM     34  O   UNL     1       4.840  -3.632   0.000  0.00  0.00    +0.000 OA
ATOM     35  C   UNL     1       3.670  -4.453   0.000  0.00  0.00    +0.000 C 
ENDBRANCH  32  33
ENDBRANCH  17  32
BRANCH  22  36
ATOM     36  C   UNL     1       3.639   0.565   0.000  0.00  0.00    +0.000 C 
BRANCH  36  37
ATOM     37  N   UNL     1       4.461   0.638   0.000  0.00  0.00    +0.000 NA
ATOM     38  C   UNL     1       4.809   1.386   0.000  0.00  0.00    +0.000 C 
ATOM     39  O   UNL     1       5.631   1.459   0.000  0.00  0.00    +0.000 OA
BRANCH  38  40
ATOM     40  C   UNL     1       4.335   2.061   0.000  0.00  0.00    +0.000 C 
ATOM     41  C   UNL     1       4.683   2.809   0.000  0.00  0.00    +0.000 C 
BRANCH  41  42
ATOM     42  C   UNL     1       4.209   3.485   0.000  0.00  0.00    +0.000 A 
ATOM     43  C   UNL     1       3.387   3.412   0.000  0.00  0.00    +0.000 A 
ATOM     44  C   UNL     1       2.913   4.087   0.000  0.00  0.00    +0.000 A 
ATOM     45  C   UNL     1       3.261   4.835   0.000  0.00  0.00    +0.000 A 
ATOM     46  C   UNL     1       4.083   4.908   0.000  0.00  0.00    +0.000 A 
ATOM     47  C   UNL     1       4.557   4.233   0.000  0.00  0.00    +0.000 A 
BRANCH  46  48
ATOM     48  C   UNL     1       4.431   5.656   0.000  0.00  0.00    +0.000 C 
ATOM     49  F   UNL     1       4.778   6.404   0.000  0.00  0.00    +0.000 F 
ATOM     50  F   UNL     1       5.179   5.308   0.000  0.00  0.00    +0.000 F 
ATOM     51  F   UNL     1       3.683   6.004   0.000  0.00  0.00    +0.000 F 
ENDBRANCH  46  48
ENDBRANCH  41  42
ENDBRANCH  38  40
ENDBRANCH  36  37
ENDBRANCH  22  36
TORSDOF 8
