REMARK  Name = 
REMARK  5 active torsions:
REMARK  status: ('A' for Active; 'I' for Inactive)
REMARK    1  A    between atoms: C_6  and  C_7
REMARK    2  A    between atoms: C_7  and  N_8
REMARK    3  A    between atoms: C_11  and  N_14
REMARK    4  A    between atoms: N_14  and  C_15
REMARK    5  A    between atoms: C_18  and  C_21
REMARK                            x       y       z     vdW  Elec       q    Type
REMARK                         _______ _______ _______ _____ _____    ______ ____
ROOT
ATOM      1  N   UNL     1       2.858  -2.475   0.000  0.00  0.00    +0.000 NA
ATOM      2  C   UNL     1       2.143  -2.888   0.000  0.00  0.00    +0.000 C 
ATOM      3  C   UNL     1       1.429  -2.475   0.000  0.00  0.00    +0.000 C 
ATOM      4  C   UNL     1       1.429  -1.650   0.000  0.00  0.00    +0.000 C 
ATOM      5  C   UNL     1       2.143  -1.238   0.000  0.00  0.00    +0.000 C 
ATOM      6  C   UNL     1       2.858  -1.650   0.000  0.00  0.00    +0.000 C 
ENDROOT
BRANCH   1   7
ATOM      7  C   UNL     1       3.572  -2.888   0.000  0.00  0.00    +0.000 C 
BRANCH   7  13
ATOM      8  C   UNL     1       4.287  -4.125   0.000  0.00  0.00    +0.000 A 
ATOM      9  C   UNL     1       4.287  -4.950   0.000  0.00  0.00    +0.000 A 
ATOM     10  C   UNL     1       3.572  -5.362   0.000  0.00  0.00    +0.000 A 
ATOM     11  C   UNL     1       2.858  -4.950   0.000  0.00  0.00    +0.000 A 
ATOM     12  C   UNL     1       2.858  -4.125   0.000  0.00  0.00    +0.000 A 
ATOM     13  C   UNL     1       3.572  -3.712   0.000  0.00  0.00    +0.000 A 
ATOM     14  F   UNL     1       2.143  -5.362   0.000  0.00  0.00    +0.000 F 
ATOM     15  F   UNL     1       3.572  -6.188   0.000  0.00  0.00    +0.000 F 
ENDBRANCH   7  13
ENDBRANCH   1   7
BRANCH   4  16
ATOM     16  N   UNL     1       0.715  -1.238   0.000  0.00  0.00    +0.000 NA
BRANCH  16  17
ATOM     17  C   UNL     1       0.715  -0.412   0.000  0.00  0.00    +0.000 A 
ATOM     18  C   UNL     1       0.000   0.000   0.000  0.00  0.00    +0.000 A 
ATOM     19  C   UNL     1       0.000   0.825   0.000  0.00  0.00    +0.000 A 
ATOM     20  C   UNL     1       0.715   1.238   0.000  0.00  0.00    +0.000 A 
ATOM     21  N   UNL     1       1.429   0.825   0.000  0.00  0.00    +0.000 NA
ATOM     22  N   UNL     1       1.429   0.000   0.000  0.00  0.00    +0.000 NA
BRANCH  20  23
ATOM     23  C   UNL     1       0.715   2.062   0.000  0.00  0.00    +0.000 C 
ATOM     24  F   UNL     1       0.715   2.888   0.000  0.00  0.00    +0.000 F 
ATOM     25  F   UNL     1      -0.111   2.062   0.000  0.00  0.00    +0.000 F 
ATOM     26  F   UNL     1       1.540   2.062   0.000  0.00  0.00    +0.000 F 
ENDBRANCH  20  23
ENDBRANCH  16  17
ENDBRANCH   4  16
TORSDOF 5
