REMARK  Name = 
REMARK  2 active torsions:
REMARK  status: ('A' for Active; 'I' for Inactive)
REMARK    1  A    between atoms: C_2  and  C_4
REMARK    2  A    between atoms: C_8  and  C_11
REMARK                            x       y       z     vdW  Elec       q    Type
REMARK                         _______ _______ _______ _____ _____    ______ ____
ROOT
ATOM      1  C   UNL     1       0.715  -0.412   0.000  0.00  0.00    +0.000 A 
ATOM      2  N   UNL     1       1.429   0.000   0.000  0.00  0.00    +0.000 NA
ATOM      3  C   UNL     1       2.143  -0.412   0.000  0.00  0.00    +0.000 A 
ATOM      4  C   UNL     1       2.858   0.000   0.000  0.00  0.00    +0.000 A 
ATOM      5  C   UNL     1       3.572  -0.412   0.000  0.00  0.00    +0.000 A 
ATOM      6  C   UNL     1       3.572  -1.238   0.000  0.00  0.00    +0.000 A 
ATOM      7  O   UNL     1       4.287  -1.650   0.000  0.00  0.00    +0.000 OA
ATOM      8  C   UNL     1       2.858  -1.650   0.000  0.00  0.00    +0.000 A 
ATOM      9  C   UNL     1       2.143  -1.238   0.000  0.00  0.00    +0.000 A 
ATOM     10  C   UNL     1       1.429  -1.650   0.000  0.00  0.00    +0.000 A 
ATOM     11  C   UNL     1       0.715  -1.238   0.000  0.00  0.00    +0.000 A 
ENDROOT
BRANCH   1  16
ATOM     12  C   UNL     1      -1.429   0.825   0.000  0.00  0.00    +0.000 A 
ATOM     13  C   UNL     1      -0.715   1.238   0.000  0.00  0.00    +0.000 A 
ATOM     14  C   UNL     1       0.000   0.825   0.000  0.00  0.00    +0.000 A 
ATOM     15 CL   UNL     1       0.715   1.238   0.000  0.00  0.00    +0.000 Cl
ATOM     16  C   UNL     1       0.000   0.000   0.000  0.00  0.00    +0.000 A 
ATOM     17  C   UNL     1      -0.715  -0.412   0.000  0.00  0.00    +0.000 A 
ATOM     18  C   UNL     1      -1.429   0.000   0.000  0.00  0.00    +0.000 A 
BRANCH  12  20
ATOM     19  O   UNL     1      -2.858   0.825   0.000  0.00  0.00    +0.000 OA
ATOM     20  C   UNL     1      -2.143   1.238   0.000  0.00  0.00    +0.000 C 
ATOM     21  O   UNL     1      -2.143   2.062   0.000  0.00  0.00    +0.000 OA
ENDBRANCH  12  20
ENDBRANCH   1  16
TORSDOF 2
