REMARK  Name = 
REMARK  4 active torsions:
REMARK  status: ('A' for Active; 'I' for Inactive)
REMARK    1  A    between atoms: N_2  and  C_3
REMARK    2  A    between atoms: N_6  and  C_8
REMARK    3  A    between atoms: N_11  and  C_12
REMARK    4  A    between atoms: C_12  and  C_13
REMARK                            x       y       z     vdW  Elec       q    Type
REMARK                         _______ _______ _______ _____ _____    ______ ____
ROOT
ATOM      1  C   UNL     1      -2.556   5.252   0.000  0.00  0.00    +0.000 A 
ATOM      2  C   UNL     1      -2.556   4.427   0.000  0.00  0.00    +0.000 A 
ATOM      3  C   UNL     1      -3.270   4.014   0.000  0.00  0.00    +0.000 A 
ATOM      4  N   UNL     1      -3.270   3.189   0.000  0.00  0.00    +0.000 NA
ATOM      5  N   UNL     1      -3.985   4.427   0.000  0.00  0.00    +0.000 NA
ATOM      6  C   UNL     1      -3.985   5.252   0.000  0.00  0.00    +0.000 A 
ATOM      7  N   UNL     1      -4.699   5.665   0.000  0.00  0.00    +0.000 NA
ATOM      8  N   UNL     1      -3.270   5.665   0.000  0.00  0.00    +0.000 NA
ENDROOT
BRANCH   1  12
ATOM      9  C   UNL     1      -0.948   6.657   0.000  0.00  0.00    +0.000 C 
ATOM     10  C   UNL     1      -0.536   5.942   0.000  0.00  0.00    +0.000 C 
ATOM     11  C   UNL     1      -1.088   5.329   0.000  0.00  0.00    +0.000 C 
ATOM     12  N   UNL     1      -1.841   5.665   0.000  0.00  0.00    +0.000 N 
ATOM     13  C   UNL     1      -1.755   6.485   0.000  0.00  0.00    +0.000 C 
BRANCH   9  15
ATOM     14  C   UNL     1       0.208   7.496   0.000  0.00  0.00    +0.000 C 
ATOM     15  N   UNL     1      -0.613   7.410   0.000  0.00  0.00    +0.000 NA
ENDBRANCH   9  15
ENDBRANCH   1  12
BRANCH   4  16
ATOM     16  C   UNL     1      -2.556   2.777   0.000  0.00  0.00    +0.000 C 
BRANCH  16  17
ATOM     17  C   UNL     1      -2.556   1.952   0.000  0.00  0.00    +0.000 C 
ATOM     18  C   UNL     1      -2.143   1.238   0.000  0.00  0.00    +0.000 C 
ATOM     19  C   UNL     1      -2.968   1.238   0.000  0.00  0.00    +0.000 C 
ENDBRANCH  16  17
ENDBRANCH   4  16
TORSDOF 4
