REMARK  Name = 
REMARK  3 active torsions:
REMARK  status: ('A' for Active; 'I' for Inactive)
REMARK    1  A    between atoms: C_4  and  S_6
REMARK    2  A    between atoms: S_6  and  S_7
REMARK    3  A    between atoms: S_7  and  C_8
REMARK                            x       y       z     vdW  Elec       q    Type
REMARK                         _______ _______ _______ _____ _____    ______ ____
ROOT
ATOM      1  S   UNL     1      -0.206  -0.357   0.000  0.00  0.00    +0.000 S 
ENDROOT
BRANCH   1   5
ATOM      2  C   UNL     1      -2.301   0.055   0.000  0.00  0.00    +0.000 A 
ATOM      3  C   UNL     1      -2.301  -0.770   0.000  0.00  0.00    +0.000 A 
ATOM      4  S   UNL     1      -1.516  -1.025   0.000  0.00  0.00    +0.000 S 
ATOM      5  C   UNL     1      -1.031  -0.357   0.000  0.00  0.00    +0.000 A 
ATOM      6  N   UNL     1      -1.516   0.310   0.000  0.00  0.00    +0.000 NA
ATOM      7  C   UNL     1      -3.015  -1.182   0.000  0.00  0.00    +0.000 A 
ATOM      8  C   UNL     1      -3.730  -0.770   0.000  0.00  0.00    +0.000 A 
ATOM      9  C   UNL     1      -3.730   0.055   0.000  0.00  0.00    +0.000 A 
ATOM     10  C   UNL     1      -3.015   0.468   0.000  0.00  0.00    +0.000 A 
ENDBRANCH   1   5
BRANCH   1  11
ATOM     11  S   UNL     1       0.206   0.357   0.000  0.00  0.00    +0.000 S 
BRANCH  11  12
ATOM     12  C   UNL     1       1.031   0.357   0.000  0.00  0.00    +0.000 A 
ATOM     13  N   UNL     1       1.516   1.025   0.000  0.00  0.00    +0.000 NA
ATOM     14  C   UNL     1       2.301   0.770   0.000  0.00  0.00    +0.000 A 
ATOM     15  C   UNL     1       3.015   1.182   0.000  0.00  0.00    +0.000 A 
ATOM     16  C   UNL     1       3.730   0.770   0.000  0.00  0.00    +0.000 A 
ATOM     17  C   UNL     1       3.730  -0.055   0.000  0.00  0.00    +0.000 A 
ATOM     18  C   UNL     1       3.015  -0.468   0.000  0.00  0.00    +0.000 A 
ATOM     19  C   UNL     1       2.301  -0.055   0.000  0.00  0.00    +0.000 A 
ATOM     20  S   UNL     1       1.516  -0.310   0.000  0.00  0.00    +0.000 S 
ENDBRANCH  11  12
ENDBRANCH   1  11
TORSDOF 3
