REMARK  Name = 
REMARK  18 active torsions:
REMARK  status: ('A' for Active; 'I' for Inactive)
REMARK    1  A    between atoms: P_1  and  C_13
REMARK    2  A    between atoms: P_1  and  C_14
REMARK    3  A    between atoms: O_5  and  C_25
REMARK    4  A    between atoms: O_5  and  C_43
REMARK    5  A    between atoms: N_8  and  C_14
REMARK    6  A    between atoms: N_9  and  C_20
REMARK    7  A    between atoms: C_12  and  C_13
REMARK    8  A    between atoms: C_12  and  C_15
REMARK    9  A    between atoms: C_12  and  C_17
REMARK   10  A    between atoms: C_14  and  C_18
REMARK   11  A    between atoms: C_15  and  C_16
REMARK   12  A    between atoms: C_16  and  C_19
REMARK   13  A    between atoms: C_18  and  C_21
REMARK   14  A    between atoms: C_19  and  C_23
REMARK   15  A    between atoms: C_20  and  C_22
REMARK   16  A    between atoms: C_20  and  C_26
REMARK   17  A    between atoms: C_22  and  C_24
REMARK   18  A    between atoms: C_43  and  C_45
REMARK                            x       y       z     vdW  Elec       q    Type
REMARK                         _______ _______ _______ _____ _____    ______ ____
ROOT
ATOM      1  C   UNL     1       0.295  -0.066   0.000  0.00  0.00    +0.000 C 
ENDROOT
BRANCH   1   4
ATOM      2  O   UNL     1      -0.769  -1.020   0.000  0.00  0.00    +0.000 OA
ATOM      3  N   UNL     1       0.589  -1.464   0.000  0.00  0.00    +0.000 N 
ATOM      4  C   UNL     1       0.038  -0.850   0.000  0.00  0.00    +0.000 C 
ATOM      5  H   UNL     1       1.090  -1.359   0.000  0.00  0.00    +0.000 HD
BRANCH   3   6
ATOM      6  C   UNL     1       0.333  -2.248   0.000  0.00  0.00    +0.000 C 
BRANCH   6   9
ATOM      7  O   UNL     1       0.628  -3.647   0.000  0.00  0.00    +0.000 OA
ATOM      8  N   UNL     1       1.691  -2.692   0.000  0.00  0.00    +0.000 N 
ATOM      9  C   UNL     1       0.884  -2.862   0.000  0.00  0.00    +0.000 C 
ATOM     10  H   UNL     1       1.850  -2.206   0.000  0.00  0.00    +0.000 HD
ATOM     11  H   UNL     1       2.033  -3.073   0.000  0.00  0.00    +0.000 HD
ENDBRANCH   6   9
BRANCH   6  12
ATOM     12  C   UNL     1      -0.474  -2.418   0.000  0.00  0.00    +0.000 C 
BRANCH  12  14
ATOM     13  N   UNL     1      -0.731  -4.530   0.000  0.00  0.00    +0.000 N 
ATOM     14  C   UNL     1      -0.731  -3.203   0.000  0.00  0.00    +0.000 A 
ATOM     15  C   UNL     1      -1.511  -3.454   0.000  0.00  0.00    +0.000 A 
ATOM     16  C   UNL     1      -0.249  -3.866   0.000  0.00  0.00    +0.000 A 
ATOM     17  C   UNL     1      -1.511  -4.279   0.000  0.00  0.00    +0.000 A 
ATOM     18  C   UNL     1      -2.226  -3.042   0.000  0.00  0.00    +0.000 A 
ATOM     19  C   UNL     1      -2.226  -4.691   0.000  0.00  0.00    +0.000 A 
ATOM     20  C   UNL     1      -2.940  -3.454   0.000  0.00  0.00    +0.000 A 
ATOM     21  C   UNL     1      -2.940  -4.279   0.000  0.00  0.00    +0.000 A 
ATOM     22  H   UNL     1      -0.572  -5.017   0.000  0.00  0.00    +0.000 HD
ENDBRANCH  12  14
ENDBRANCH   6  12
ENDBRANCH   3   6
ENDBRANCH   1   4
BRANCH   1  23
ATOM     23  C   UNL     1      -0.256   0.548   0.000  0.00  0.00    +0.000 C 
BRANCH  23  24
ATOM     24  P   UNL     1       0.000   1.332   0.000  0.00  0.00    +0.000 P 
ATOM     25  O   UNL     1      -0.784   1.589   0.000  0.00  0.00    +0.000 OA
ATOM     26  O   UNL     1       0.784   1.076   0.000  0.00  0.00    +0.000 OA
BRANCH  24  27
ATOM     27  C   UNL     1       0.256   2.116   0.000  0.00  0.00    +0.000 C 
BRANCH  27  29
ATOM     28  O   UNL     1      -1.358   1.776   0.000  0.00  0.00    +0.000 OA
ATOM     29  N   UNL     1      -0.295   2.731   0.000  0.00  0.00    +0.000 N 
ATOM     30  C   UNL     1      -1.102   2.560   0.000  0.00  0.00    +0.000 C 
ATOM     31  H   UNL     1      -0.136   3.217   0.000  0.00  0.00    +0.000 HD
BRANCH  30  32
ATOM     32  O   UNL     1      -1.653   3.174   0.000  0.00  0.00    +0.000 OA
BRANCH  32  33
ATOM     33  C   UNL     1      -2.460   3.004   0.000  0.00  0.00    +0.000 C 
BRANCH  33  34
ATOM     34  C   UNL     1      -3.011   3.618   0.000  0.00  0.00    +0.000 A 
ATOM     35  C   UNL     1      -2.755   4.402   0.000  0.00  0.00    +0.000 A 
ATOM     36  C   UNL     1      -3.818   3.448   0.000  0.00  0.00    +0.000 A 
ATOM     37  C   UNL     1      -3.306   5.017   0.000  0.00  0.00    +0.000 A 
ATOM     38  C   UNL     1      -4.369   4.062   0.000  0.00  0.00    +0.000 A 
ATOM     39  C   UNL     1      -4.113   4.846   0.000  0.00  0.00    +0.000 A 
ENDBRANCH  33  34
ENDBRANCH  32  33
ENDBRANCH  30  32
ENDBRANCH  27  29
BRANCH  27  40
ATOM     40  C   UNL     1       1.063   2.287   0.000  0.00  0.00    +0.000 C 
BRANCH  40  41
ATOM     41  C   UNL     1       1.320   3.071   0.000  0.00  0.00    +0.000 A 
ATOM     42  C   UNL     1       2.127   3.241   0.000  0.00  0.00    +0.000 A 
ATOM     43  C   UNL     1       0.769   3.685   0.000  0.00  0.00    +0.000 A 
ATOM     44  C   UNL     1       2.383   4.025   0.000  0.00  0.00    +0.000 A 
ATOM     45  C   UNL     1       1.025   4.469   0.000  0.00  0.00    +0.000 A 
ATOM     46  C   UNL     1       1.832   4.639   0.000  0.00  0.00    +0.000 A 
ENDBRANCH  40  41
ENDBRANCH  27  40
ENDBRANCH  24  27
ENDBRANCH  23  24
ENDBRANCH   1  23
BRANCH   1  47
ATOM     47  C   UNL     1       1.102   0.104   0.000  0.00  0.00    +0.000 C 
BRANCH  47  48
ATOM     48  C   UNL     1       1.653  -0.510   0.000  0.00  0.00    +0.000 C 
BRANCH  48  49
ATOM     49  C   UNL     1       2.460  -0.340   0.000  0.00  0.00    +0.000 C 
BRANCH  49  50
ATOM     50  C   UNL     1       3.011  -0.954   0.000  0.00  0.00    +0.000 A 
ATOM     51  C   UNL     1       3.818  -0.783   0.000  0.00  0.00    +0.000 A 
ATOM     52  C   UNL     1       2.755  -1.738   0.000  0.00  0.00    +0.000 A 
ATOM     53  C   UNL     1       4.369  -1.398   0.000  0.00  0.00    +0.000 A 
ATOM     54  C   UNL     1       3.306  -2.352   0.000  0.00  0.00    +0.000 A 
ATOM     55  C   UNL     1       4.113  -2.182   0.000  0.00  0.00    +0.000 A 
ENDBRANCH  49  50
ENDBRANCH  48  49
ENDBRANCH  47  48
ENDBRANCH   1  47
TORSDOF 18
