REMARK  Name = 
REMARK  15 active torsions:
REMARK  status: ('A' for Active; 'I' for Inactive)
REMARK    1  A    between atoms: P_1  and  O_6
REMARK    2  A    between atoms: P_1  and  O_7
REMARK    3  A    between atoms: P_2  and  O_7
REMARK    4  A    between atoms: P_2  and  O_10
REMARK    5  A    between atoms: O_6  and  C_32
REMARK    6  A    between atoms: O_10  and  C_42
REMARK    7  A    between atoms: N_18  and  C_30
REMARK    8  A    between atoms: N_21  and  C_38
REMARK    9  A    between atoms: N_23  and  C_40
REMARK   10  A    between atoms: N_25  and  C_48
REMARK   11  A    between atoms: C_31  and  C_32
REMARK   12  A    between atoms: C_36  and  C_37
REMARK   13  A    between atoms: C_36  and  C_38
REMARK   14  A    between atoms: C_37  and  C_39
REMARK   15  A    between atoms: C_39  and  C_42
REMARK                            x       y       z     vdW  Elec       q    Type
REMARK                         _______ _______ _______ _____ _____    ______ ____
ROOT
ATOM      1  O   UNL     1       1.175   0.199   0.000  0.00  0.00    +0.000 OA
ENDROOT
BRANCH   1   2
ATOM      2  P   UNL     1       1.175   1.024   0.000  0.00  0.00    +0.000 P 
ATOM      3  O   UNL     1       0.350   1.024   0.000  0.00  0.00    +0.000 OA
ATOM      4  O   UNL     1       2.000   1.024   0.000  0.00  0.00    +0.000 OA
BRANCH   2   5
ATOM      5  O   UNL     1       1.175   1.849   0.000  0.00  0.00    +0.000 OA
BRANCH   5   6
ATOM      6  P   UNL     1       0.461   2.261   0.000  0.00  0.00    +0.000 P 
ATOM      7  O   UNL     1       0.873   2.976   0.000  0.00  0.00    +0.000 OA
ATOM      8  O   UNL     1       0.048   1.547   0.000  0.00  0.00    +0.000 OA
BRANCH   6   9
ATOM      9  O   UNL     1      -0.253   2.674   0.000  0.00  0.00    +0.000 OA
BRANCH   9  10
ATOM     10  C   UNL     1      -0.253   3.499   0.000  0.00  0.00    +0.000 C 
BRANCH  10  17
ATOM     11  O   UNL     1      -1.722   3.576   0.000  0.00  0.00    +0.000 OA
ATOM     12  O   UNL     1      -2.197   5.657   0.000  0.00  0.00    +0.000 OA
ATOM     13  O   UNL     1      -0.441   5.284   0.000  0.00  0.00    +0.000 OA
ATOM     14  C   UNL     1      -1.861   4.904   0.000  0.00  0.00    +0.000 C 
ATOM     15  C   UNL     1      -1.054   4.732   0.000  0.00  0.00    +0.000 C 
ATOM     16  C   UNL     1      -2.274   4.189   0.000  0.00  0.00    +0.000 C 
ATOM     17  C   UNL     1      -0.968   3.912   0.000  0.00  0.00    +0.000 C 
BRANCH  16  18
ATOM     18  N   UNL     1      -3.094   4.103   0.000  0.00  0.00    +0.000 N 
ATOM     19  N   UNL     1      -4.306   3.561   0.000  0.00  0.00    +0.000 NA
ATOM     20  N   UNL     1      -3.558   5.533   0.000  0.00  0.00    +0.000 NA
ATOM     21  N   UNL     1      -4.979   5.680   0.000  0.00  0.00    +0.000 NA
ATOM     22  C   UNL     1      -3.642   4.713   0.000  0.00  0.00    +0.000 A 
ATOM     23  C   UNL     1      -3.504   3.392   0.000  0.00  0.00    +0.000 A 
ATOM     24  C   UNL     1      -4.396   4.376   0.000  0.00  0.00    +0.000 A 
ATOM     25  C   UNL     1      -5.064   4.860   0.000  0.00  0.00    +0.000 A 
ATOM     26  C   UNL     1      -4.226   6.017   0.000  0.00  0.00    +0.000 A 
BRANCH  25  27
ATOM     27  N   UNL     1      -5.817   4.523   0.000  0.00  0.00    +0.000 N 
ATOM     28  H   UNL     1      -6.231   4.823   0.000  0.00  0.00    +0.000 HD
ATOM     29  H   UNL     1      -5.870   4.014   0.000  0.00  0.00    +0.000 HD
ENDBRANCH  25  27
ENDBRANCH  16  18
ENDBRANCH  10  17
ENDBRANCH   9  10
ENDBRANCH   6   9
ENDBRANCH   5   6
ENDBRANCH   2   5
ENDBRANCH   1   2
BRANCH   1  30
ATOM     30  C   UNL     1       1.890  -0.213   0.000  0.00  0.00    +0.000 C 
BRANCH  30  32
ATOM     31  O   UNL     1       1.175  -1.451   0.000  0.00  0.00    +0.000 OA
ATOM     32  C   UNL     1       1.890  -1.038   0.000  0.00  0.00    +0.000 C 
BRANCH  32  34
ATOM     33  O   UNL     1       3.319  -1.038   0.000  0.00  0.00    +0.000 OA
ATOM     34  C   UNL     1       2.604  -1.451   0.000  0.00  0.00    +0.000 C 
BRANCH  34  36
ATOM     35  O   UNL     1       1.890  -2.689   0.000  0.00  0.00    +0.000 OA
ATOM     36  C   UNL     1       2.604  -2.276   0.000  0.00  0.00    +0.000 C 
BRANCH  36  37
ATOM     37  C   UNL     1       3.319  -2.689   0.000  0.00  0.00    +0.000 C 
BRANCH  37  40
ATOM     38  O   UNL     1       4.761  -6.017   0.000  0.00  0.00    +0.000 OA
ATOM     39  O   UNL     1       6.231  -3.494   0.000  0.00  0.00    +0.000 OA
ATOM     40  N   UNL     1       3.319  -3.514   0.000  0.00  0.00    +0.000 N 
ATOM     41  N   UNL     1       3.319  -5.164   0.000  0.00  0.00    +0.000 NA
ATOM     42  N   UNL     1       4.771  -3.485   0.000  0.00  0.00    +0.000 NA
ATOM     43  N   UNL     1       5.518  -4.768   0.000  0.00  0.00    +0.000 N 
ATOM     44  C   UNL     1       2.604  -3.926   0.000  0.00  0.00    +0.000 A 
ATOM     45  C   UNL     1       4.033  -3.926   0.000  0.00  0.00    +0.000 A 
ATOM     46  C   UNL     1       2.604  -4.751   0.000  0.00  0.00    +0.000 A 
ATOM     47  C   UNL     1       1.867  -3.485   0.000  0.00  0.00    +0.000 A 
ATOM     48  C   UNL     1       4.033  -4.751   0.000  0.00  0.00    +0.000 A 
ATOM     49  C   UNL     1       1.119  -3.909   0.000  0.00  0.00    +0.000 A 
ATOM     50  C   UNL     1       1.119  -4.768   0.000  0.00  0.00    +0.000 A 
ATOM     51  C   UNL     1       1.867  -5.192   0.000  0.00  0.00    +0.000 A 
ATOM     52  C   UNL     1       4.771  -5.192   0.000  0.00  0.00    +0.000 A 
ATOM     53  C   UNL     1       0.406  -5.184   0.000  0.00  0.00    +0.000 C 
ATOM     54  C   UNL     1       5.518  -3.909   0.000  0.00  0.00    +0.000 A 
ATOM     55  H   UNL     1       5.960  -5.026   0.000  0.00  0.00    +0.000 HD
BRANCH  49  56
ATOM     56  N   UNL     1       0.406  -3.494   0.000  0.00  0.00    +0.000 N 
ATOM     57  C   UNL     1      -0.309  -3.903   0.000  0.00  0.00    +0.000 C 
ATOM     58  C   UNL     1       0.410  -2.669   0.000  0.00  0.00    +0.000 C 
ENDBRANCH  49  56
ENDBRANCH  37  40
ENDBRANCH  36  37
ENDBRANCH  34  36
ENDBRANCH  32  34
ENDBRANCH  30  32
ENDBRANCH   1  30
TORSDOF 15
