REMARK  Name = 
REMARK  4 active torsions:
REMARK  status: ('A' for Active; 'I' for Inactive)
REMARK    1  A    between atoms: CG_2  and  CB_4
REMARK    2  A    between atoms: CB_4  and  CA_5
REMARK    3  A    between atoms: CA_5  and  N_6
REMARK    4  A    between atoms: CA_5  and  C_10
REMARK                            x       y       z     vdW  Elec       q    Type
REMARK                         _______ _______ _______ _____ _____    ______ ____
ROOT
ATOM      1  CA  LEU A   1       3.904   1.429   0.000  0.00  0.00    +0.000 C 
ENDROOT
BRANCH   1   2
ATOM      2  N   LEU A   1       4.618   1.841   0.000  0.00  0.00    +0.000 NA
ATOM      3  C   UNK A   0       5.333   1.429   0.000  0.00  0.00    +0.000 C 
ATOM      4  C   UNK A   0       6.047   1.841   0.000  0.00  0.00    +0.000 C 
ATOM      5  O   UNK A   0       5.333   0.604   0.000  0.00  0.00    +0.000 OA
ENDBRANCH   1   2
BRANCH   1   6
ATOM      6  C   LEU A   1       3.904   0.604   0.000  0.00  0.00    +0.000 C 
ATOM      7  O   LEU A   1       4.618   0.191   0.000  0.00  0.00    +0.000 OA
ATOM      8  OXT LEU A   1       3.189   0.191   0.000  0.00  0.00    +0.000 OA
ENDBRANCH   1   6
BRANCH   1   9
ATOM      9  CB  LEU A   1       3.189   1.841   0.000  0.00  0.00    +0.000 C 
BRANCH   9  11
ATOM     10  CD1 LEU A   1       1.760   1.841   0.000  0.00  0.00    +0.000 C 
ATOM     11  CG  LEU A   1       2.475   1.429   0.000  0.00  0.00    +0.000 C 
ATOM     12  CD2 LEU A   1       2.475   0.604   0.000  0.00  0.00    +0.000 C 
ENDBRANCH   9  11
ENDBRANCH   1   9
TORSDOF 4
