REMARK  Name = 
REMARK  11 active torsions:
REMARK  status: ('A' for Active; 'I' for Inactive)
REMARK    1  A    between atoms: C_1  and  O_12
REMARK    2  A    between atoms: C_2  and  O_23
REMARK    3  A    between atoms: C_7  and  O_12
REMARK    4  A    between atoms: C_13  and  O_36
REMARK    5  A    between atoms: C_14  and  N_27
REMARK    6  A    between atoms: C_16  and  O_23
REMARK    7  A    between atoms: C_21  and  C_43
REMARK    8  A    between atoms: C_22  and  C_54
REMARK    9  A    between atoms: C_54  and  N_55
REMARK   10  A    between atoms: N_55  and  C_56
REMARK   11  A    between atoms: C_56  and  C_57
REMARK                            x       y       z     vdW  Elec       q    Type
REMARK                         _______ _______ _______ _____ _____    ______ ____
ROOT
ATOM      1  C   UNL     1       0.541   0.208   0.000  0.00  0.00    +0.000 C 
ATOM      2  C   UNL     1      -1.410   0.208   0.000  0.00  0.00    +0.000 C 
ATOM      3  C   UNL     1      -4.365   0.085   0.000  0.00  0.00    +0.000 C 
ATOM      4  C   UNL     1      -0.429  -0.360   0.000  0.00  0.00    +0.000 C 
ATOM      5  C   UNL     1       1.514  -1.486   0.000  0.00  0.00    +0.000 C 
ATOM      6  C   UNL     1      -4.851  -0.936   0.000  0.00  0.00    +0.000 C 
ATOM      7  C   UNL     1       1.514  -0.360   0.000  0.00  0.00    +0.000 C 
ATOM      8  N   UNL     1      -3.250  -2.189   0.000  0.00  0.00    +0.000 NA
ATOM      9  O   UNL     1      -2.384  -0.360   0.000  0.00  0.00    +0.000 OA
ATOM     10  C   UNL     1       0.541  -2.044   0.000  0.00  0.00    +0.000 C 
ATOM     11  C   UNL     1      -4.354  -1.947   0.000  0.00  0.00    +0.000 C 
ATOM     12  C   UNL     1      -3.268   0.342   0.000  0.00  0.00    +0.000 C 
ATOM     13  C   UNL     1      -2.373  -1.486   0.000  0.00  0.00    +0.000 C 
ATOM     14  C   UNL     1      -0.429  -1.486   0.000  0.00  0.00    +0.000 C 
ATOM     15  O   UNL     1      -1.414   1.341   0.000  0.00  0.00    +0.000 OA
ATOM     16  C   UNL     1      -1.410  -2.044   0.000  0.00  0.00    +0.000 C 
ATOM     17  O   UNL     1      -5.491   0.085   0.000  0.00  0.00    +0.000 OA
ATOM     18  O   UNL     1      -5.985  -0.933   0.000  0.00  0.00    +0.000 OA
ATOM     19  O   UNL     1       1.511  -2.605   0.000  0.00  0.00    +0.000 OA
ATOM     20  C   UNL     1      -4.930   1.063   0.000  0.00  0.00    +0.000 C 
ATOM     21  C   UNL     1      -0.429  -0.955   0.000  0.00  0.00    +0.000 C 
ATOM     22  C   UNL     1       2.191  -0.041   0.000  0.00  0.00    +0.000 C 
ATOM     23  C   UNL     1      -0.433  -2.601   0.000  0.00  0.00    +0.000 C 
ATOM     24  C   UNL     1      -5.156  -2.739   0.000  0.00  0.00    +0.000 C 
ATOM     25  C   UNL     1      -1.414  -3.151   0.000  0.00  0.00    +0.000 C 
ENDROOT
BRANCH  12  26
ATOM     26  C   UNL     1      -2.982   1.431   0.000  0.00  0.00    +0.000 C 
ATOM     27  C   UNL     1      -3.777   2.226   0.000  0.00  0.00    +0.000 C 
ENDBRANCH  12  26
BRANCH   1  28
ATOM     28  O   UNL     1       0.541   0.944   0.000  0.00  0.00    +0.000 OA
BRANCH  28  30
ATOM     29  C   UNL     1       2.447   1.319   0.000  0.00  0.00    +0.000 C 
ATOM     30  C   UNL     1       1.176   1.319   0.000  0.00  0.00    +0.000 C 
ATOM     31  C   UNL     1       1.812   0.944   0.000  0.00  0.00    +0.000 C 
ATOM     32  O   UNL     1       1.176   2.044   0.000  0.00  0.00    +0.000 OA
ATOM     33  C   UNL     1       2.447   2.044   0.000  0.00  0.00    +0.000 C 
ATOM     34  C   UNL     1       1.812   2.416   0.000  0.00  0.00    +0.000 C 
ATOM     35  C   UNL     1       3.083   0.944   0.000  0.00  0.00    +0.000 C 
ATOM     36  C   UNL     1       1.808   3.151   0.000  0.00  0.00    +0.000 C 
ATOM     37  O   UNL     1       2.804   2.683   0.000  0.00  0.00    +0.000 OA
BRANCH  29  38
ATOM     38  O   UNL     1       2.443   0.583   0.000  0.00  0.00    +0.000 OA
ATOM     39  C   UNL     1       3.161   0.048   0.000  0.00  0.00    +0.000 C 
ENDBRANCH  29  38
BRANCH  33  40
ATOM     40  C   UNL     1       3.272   2.048   0.000  0.00  0.00    +0.000 C 
BRANCH  40  41
ATOM     41  N   UNL     1       3.636   2.683   0.000  0.00  0.00    +0.000 NA
BRANCH  41  42
ATOM     42  C   UNL     1       4.369   2.683   0.000  0.00  0.00    +0.000 C 
BRANCH  42  43
ATOM     43  C   UNL     1       4.733   2.048   0.000  0.00  0.00    +0.000 C 
ATOM     44  C   UNL     1       5.465   2.048   0.000  0.00  0.00    +0.000 C 
ENDBRANCH  42  43
ENDBRANCH  41  42
ENDBRANCH  40  41
ENDBRANCH  33  40
ENDBRANCH  28  30
ENDBRANCH   1  28
BRANCH   5  45
ATOM     45  O   UNL     1       2.481  -2.044   0.000  0.00  0.00    +0.000 OA
BRANCH  45  46
ATOM     46  C   UNL     1       3.450  -1.479   0.000  0.00  0.00    +0.000 C 
ATOM     47  C   UNL     1       4.082  -1.847   0.000  0.00  0.00    +0.000 C 
ATOM     48  C   UNL     1       4.718  -1.479   0.000  0.00  0.00    +0.000 C 
ATOM     49  O   UNL     1       3.450  -0.743   0.000  0.00  0.00    +0.000 OA
ATOM     50  C   UNL     1       4.718  -0.743   0.000  0.00  0.00    +0.000 C 
ATOM     51  C   UNL     1       4.082  -0.375   0.000  0.00  0.00    +0.000 C 
ATOM     52  O   UNL     1       4.075  -2.583   0.000  0.00  0.00    +0.000 OA
ATOM     53  C   UNL     1       4.075   0.360   0.000  0.00  0.00    +0.000 C 
BRANCH  48  54
ATOM     54  N   UNL     1       5.353  -1.847   0.000  0.00  0.00    +0.000 NA
ATOM     55  C   UNL     1       5.346  -2.583   0.000  0.00  0.00    +0.000 C 
ATOM     56  C   UNL     1       5.985  -1.479   0.000  0.00  0.00    +0.000 C 
ENDBRANCH  48  54
ENDBRANCH  45  46
ENDBRANCH   5  45
TORSDOF 11
