REMARK  Name = 
REMARK  3 active torsions:
REMARK  status: ('A' for Active; 'I' for Inactive)
REMARK    1  A    between atoms: N_4  and  C_15
REMARK    2  A    between atoms: C_7  and  C_9
REMARK    3  A    between atoms: C_10  and  B_17
REMARK                            x       y       z     vdW  Elec       q    Type
REMARK                         _______ _______ _______ _____ _____    ______ ____
ROOT
ATOM      1  C   UNL     1       0.275   0.019   0.000  0.00  0.00    +0.000 A 
ATOM      2  C   UNL     1       0.990  -0.393   0.000  0.00  0.00    +0.000 A 
ATOM      3  C   UNL     1      -0.439  -0.393   0.000  0.00  0.00    +0.000 A 
ATOM      4  C   UNL     1       0.990  -1.218   0.000  0.00  0.00    +0.000 A 
ATOM      5  C   UNL     1      -0.439  -1.218   0.000  0.00  0.00    +0.000 A 
ATOM      6  C   UNL     1       0.275  -1.631   0.000  0.00  0.00    +0.000 A 
ENDROOT
BRANCH   1  11
ATOM      7  O   UNL     1       0.943   1.329   0.000  0.00  0.00    +0.000 OA
ATOM      8  O   UNL     1      -0.392   1.329   0.000  0.00  0.00    +0.000 OA
ATOM      9  C   UNL     1       0.688   2.114   0.000  0.00  0.00    +0.000 C 
ATOM     10  C   UNL     1      -0.137   2.114   0.000  0.00  0.00    +0.000 C 
ATOM     11  B   UNL     1       0.275   0.844   0.000  0.00  0.00    +0.000 B 
BRANCH   9  13
ATOM     12  O   UNL     1       0.837   3.535   0.000  0.00  0.00    +0.000 OA
ATOM     13  C   UNL     1       1.173   2.781   0.000  0.00  0.00    +0.000 C 
ENDBRANCH   9  13
ENDBRANCH   1  11
BRANCH   6  14
ATOM     14  N   UNL     1       0.275  -2.456   0.000  0.00  0.00    +0.000 NA
ATOM     15  N   UNL     1      -0.439  -3.693   0.000  0.00  0.00    +0.000 NA
ATOM     16  N   UNL     1      -1.154  -2.456   0.000  0.00  0.00    +0.000 NA
ATOM     17  C   UNL     1      -0.439  -2.868   0.000  0.00  0.00    +0.000 C 
ENDBRANCH   6  14
TORSDOF 3
