REMARK  Name = 
REMARK  5 active torsions:
REMARK  status: ('A' for Active; 'I' for Inactive)
REMARK    1  A    between atoms: C_1  and  C_2
REMARK    2  A    between atoms: N_3  and  C_4
REMARK    3  A    between atoms: C_4  and  C_5
REMARK    4  A    between atoms: C_5  and  C_6
REMARK    5  A    between atoms: C_6  and  C_7
REMARK                            x       y       z     vdW  Elec       q    Type
REMARK                         _______ _______ _______ _____ _____    ______ ____
ROOT
ATOM      1  C   UNL     1       1.428   0.207   0.000  0.00  0.00    +0.000 C 
ATOM      2  N   UNL     1       0.714  -0.207   0.000  0.00  0.00    +0.000 NA
ATOM      3  O   UNL     1       1.424   1.033   0.000  0.00  0.00    +0.000 OA
ENDROOT
BRANCH   1   4
ATOM      4  C   UNL     1       2.142  -0.207   0.000  0.00  0.00    +0.000 C 
ATOM      5  C   UNL     1       2.138  -1.033   0.000  0.00  0.00    +0.000 C 
ATOM      6  C   UNL     1       2.856   0.211   0.000  0.00  0.00    +0.000 C 
ATOM      7  C   UNL     1       2.856  -0.620   0.000  0.00  0.00    +0.000 C 
ENDBRANCH   1   4
BRANCH   2   8
ATOM      8  C   UNL     1       0.000   0.207   0.000  0.00  0.00    +0.000 C 
BRANCH   8   9
ATOM      9  C   UNL     1      -0.714  -0.207   0.000  0.00  0.00    +0.000 C 
BRANCH   9  10
ATOM     10  C   UNL     1      -1.428   0.207   0.000  0.00  0.00    +0.000 C 
BRANCH  10  11
ATOM     11  C   UNL     1      -2.142  -0.207   0.000  0.00  0.00    +0.000 C 
ATOM     12  O   UNL     1      -2.856   0.207   0.000  0.00  0.00    +0.000 OA
ATOM     13  O   UNL     1      -2.146  -1.033   0.000  0.00  0.00    +0.000 OA
ENDBRANCH  10  11
ENDBRANCH   9  10
ENDBRANCH   8   9
ENDBRANCH   2   8
TORSDOF 5
