REMARK  Name = 
REMARK  26 active torsions:
REMARK  status: ('A' for Active; 'I' for Inactive)
REMARK    1  A    between atoms: C_5  and  C_7
REMARK    2  A    between atoms: C_7  and  N_8
REMARK    3  A    between atoms: N_8  and  C_9
REMARK    4  A    between atoms: C_9  and  C_10
REMARK    5  A    between atoms: C_10  and  N_11
REMARK    6  A    between atoms: N_11  and  C_12
REMARK    7  A    between atoms: C_12  and  C_13
REMARK    8  A    between atoms: CB_17  and  CA_19
REMARK    9  A    between atoms: CA_19  and  C_20
REMARK   10  A    between atoms: CA_19  and  N_22
REMARK   11  A    between atoms: C_23  and  CA_25
REMARK   12  A    between atoms: CA_30  and  N_31
REMARK   13  A    between atoms: C_32  and  CA_34
REMARK   14  A    between atoms: CA_34  and  CB_35
REMARK   15  A    between atoms: CA_34  and  N_42
REMARK   16  A    between atoms: CB_35  and  CG_36
REMARK   17  A    between atoms: C_43  and  C_45
REMARK   18  A    between atoms: CA_56  and  CB_57
REMARK   19  A    between atoms: CB_57  and  CG_58
REMARK   20  A    between atoms: CA_68  and  CB_69
REMARK   21  A    between atoms: CB_69  and  CG_70
REMARK   22  A    between atoms: CA_82  and  CB_83
REMARK   23  A    between atoms: CB_83  and  CG_84
REMARK   24  A    between atoms: CG_84  and  CD_85
REMARK   25  A    between atoms: CD_85  and  CE_86
REMARK   26  A    between atoms: CA_91  and  CB_92
REMARK                            x       y       z     vdW  Elec       q    Type
REMARK                         _______ _______ _______ _____ _____    ______ ____
ROOT
ATOM      1  O   HOH     1       0.000   0.000   0.000  0.00  0.00    +0.000 OA
ENDROOT
TORSDOF 0
REMARK  Name = 
REMARK  26 active torsions:
REMARK  status: ('A' for Active; 'I' for Inactive)
REMARK    1  A    between atoms: C_5  and  C_7
REMARK    2  A    between atoms: C_7  and  N_8
REMARK    3  A    between atoms: N_8  and  C_9
REMARK    4  A    between atoms: C_9  and  C_10
REMARK    5  A    between atoms: C_10  and  N_11
REMARK    6  A    between atoms: N_11  and  C_12
REMARK    7  A    between atoms: C_12  and  C_13
REMARK    8  A    between atoms: CB_17  and  CA_19
REMARK    9  A    between atoms: CA_19  and  C_20
REMARK   10  A    between atoms: CA_19  and  N_22
REMARK   11  A    between atoms: C_23  and  CA_25
REMARK   12  A    between atoms: CA_30  and  N_31
REMARK   13  A    between atoms: C_32  and  CA_34
REMARK   14  A    between atoms: CA_34  and  CB_35
REMARK   15  A    between atoms: CA_34  and  N_42
REMARK   16  A    between atoms: CB_35  and  CG_36
REMARK   17  A    between atoms: C_43  and  C_45
REMARK   18  A    between atoms: CA_56  and  CB_57
REMARK   19  A    between atoms: CB_57  and  CG_58
REMARK   20  A    between atoms: CA_68  and  CB_69
REMARK   21  A    between atoms: CB_69  and  CG_70
REMARK   22  A    between atoms: CA_82  and  CB_83
REMARK   23  A    between atoms: CB_83  and  CG_84
REMARK   24  A    between atoms: CG_84  and  CD_85
REMARK   25  A    between atoms: CD_85  and  CE_86
REMARK   26  A    between atoms: CA_91  and  CB_92
REMARK                            x       y       z     vdW  Elec       q    Type
REMARK                         _______ _______ _______ _____ _____    ______ ____
ROOT
ATOM      1 CL   UNL     1       1.120   0.000   0.000  0.00  0.00    +0.000 Cl
ENDROOT
TORSDOF 0
REMARK  Name = 
REMARK  26 active torsions:
REMARK  status: ('A' for Active; 'I' for Inactive)
REMARK    1  A    between atoms: C_5  and  C_7
REMARK    2  A    between atoms: C_7  and  N_8
REMARK    3  A    between atoms: N_8  and  C_9
REMARK    4  A    between atoms: C_9  and  C_10
REMARK    5  A    between atoms: C_10  and  N_11
REMARK    6  A    between atoms: N_11  and  C_12
REMARK    7  A    between atoms: C_12  and  C_13
REMARK    8  A    between atoms: CB_17  and  CA_19
REMARK    9  A    between atoms: CA_19  and  C_20
REMARK   10  A    between atoms: CA_19  and  N_22
REMARK   11  A    between atoms: C_23  and  CA_25
REMARK   12  A    between atoms: CA_30  and  N_31
REMARK   13  A    between atoms: C_32  and  CA_34
REMARK   14  A    between atoms: CA_34  and  CB_35
REMARK   15  A    between atoms: CA_34  and  N_42
REMARK   16  A    between atoms: CB_35  and  CG_36
REMARK   17  A    between atoms: C_43  and  C_45
REMARK   18  A    between atoms: CA_56  and  CB_57
REMARK   19  A    between atoms: CB_57  and  CG_58
REMARK   20  A    between atoms: CA_68  and  CB_69
REMARK   21  A    between atoms: CB_69  and  CG_70
REMARK   22  A    between atoms: CA_82  and  CB_83
REMARK   23  A    between atoms: CB_83  and  CG_84
REMARK   24  A    between atoms: CG_84  and  CD_85
REMARK   25  A    between atoms: CD_85  and  CE_86
REMARK   26  A    between atoms: CA_91  and  CB_92
REMARK                            x       y       z     vdW  Elec       q    Type
REMARK                         _______ _______ _______ _____ _____    ______ ____
ROOT
ATOM      1 TC   UNL     1      -3.627  -6.587   0.000  0.00  0.00    +0.000 Tc
ENDROOT
TORSDOF 0
REMARK  Name = 
REMARK  26 active torsions:
REMARK  status: ('A' for Active; 'I' for Inactive)
REMARK    1  A    between atoms: C_5  and  C_7
REMARK    2  A    between atoms: C_7  and  N_8
REMARK    3  A    between atoms: N_8  and  C_9
REMARK    4  A    between atoms: C_9  and  C_10
REMARK    5  A    between atoms: C_10  and  N_11
REMARK    6  A    between atoms: N_11  and  C_12
REMARK    7  A    between atoms: C_12  and  C_13
REMARK    8  A    between atoms: CB_17  and  CA_19
REMARK    9  A    between atoms: CA_19  and  C_20
REMARK   10  A    between atoms: CA_19  and  N_22
REMARK   11  A    between atoms: C_23  and  CA_25
REMARK   12  A    between atoms: CA_30  and  N_31
REMARK   13  A    between atoms: C_32  and  CA_34
REMARK   14  A    between atoms: CA_34  and  CB_35
REMARK   15  A    between atoms: CA_34  and  N_42
REMARK   16  A    between atoms: CB_35  and  CG_36
REMARK   17  A    between atoms: C_43  and  C_45
REMARK   18  A    between atoms: CA_56  and  CB_57
REMARK   19  A    between atoms: CB_57  and  CG_58
REMARK   20  A    between atoms: CA_68  and  CB_69
REMARK   21  A    between atoms: CB_69  and  CG_70
REMARK   22  A    between atoms: CA_82  and  CB_83
REMARK   23  A    between atoms: CB_83  and  CG_84
REMARK   24  A    between atoms: CG_84  and  CD_85
REMARK   25  A    between atoms: CD_85  and  CE_86
REMARK   26  A    between atoms: CA_91  and  CB_92
REMARK                            x       y       z     vdW  Elec       q    Type
REMARK                         _______ _______ _______ _____ _____    ______ ____
ROOT
ATOM      1  C   UNL     1      -0.055  -6.175   0.000  0.00  0.00    +0.000 C 
ENDROOT
BRANCH   1   2
ATOM      2  N   UNL     1      -0.769  -5.762   0.000  0.00  0.00    +0.000 NA
BRANCH   2   3
ATOM      3  C   UNL     1      -1.484  -6.175   0.000  0.00  0.00    +0.000 C 
BRANCH   3   5
ATOM      4  O   UNL     1      -2.913  -6.175   0.000  0.00  0.00    +0.000 OA
ATOM      5  C   UNL     1      -2.198  -5.762   0.000  0.00  0.00    +0.000 C 
ATOM      6  O   UNL     1      -2.198  -4.937   0.000  0.00  0.00    +0.000 OA
ENDBRANCH   3   5
ENDBRANCH   2   3
ENDBRANCH   1   2
BRANCH   1   7
ATOM      7  C   UNL     1       0.659  -5.762   0.000  0.00  0.00    +0.000 C 
BRANCH   7   8
ATOM      8  N   UNL     1       1.374  -6.175   0.000  0.00  0.00    +0.000 NA
BRANCH   8   9
ATOM      9  C   UNL     1       2.088  -5.762   0.000  0.00  0.00    +0.000 C 
BRANCH   9  10
ATOM     10  C   UNL     1       2.803  -6.175   0.000  0.00  0.00    +0.000 C 
ATOM     11  O   UNL     1       3.517  -5.762   0.000  0.00  0.00    +0.000 OA
ATOM     12  O   UNL     1       2.803  -7.000   0.000  0.00  0.00    +0.000 OA
ENDBRANCH   9  10
ENDBRANCH   8   9
ENDBRANCH   7   8
ENDBRANCH   1   7
TORSDOF 7
REMARK  Name = 
REMARK  26 active torsions:
REMARK  status: ('A' for Active; 'I' for Inactive)
REMARK    1  A    between atoms: C_5  and  C_7
REMARK    2  A    between atoms: C_7  and  N_8
REMARK    3  A    between atoms: N_8  and  C_9
REMARK    4  A    between atoms: C_9  and  C_10
REMARK    5  A    between atoms: C_10  and  N_11
REMARK    6  A    between atoms: N_11  and  C_12
REMARK    7  A    between atoms: C_12  and  C_13
REMARK    8  A    between atoms: CB_17  and  CA_19
REMARK    9  A    between atoms: CA_19  and  C_20
REMARK   10  A    between atoms: CA_19  and  N_22
REMARK   11  A    between atoms: C_23  and  CA_25
REMARK   12  A    between atoms: CA_30  and  N_31
REMARK   13  A    between atoms: C_32  and  CA_34
REMARK   14  A    between atoms: CA_34  and  CB_35
REMARK   15  A    between atoms: CA_34  and  N_42
REMARK   16  A    between atoms: CB_35  and  CG_36
REMARK   17  A    between atoms: C_43  and  C_45
REMARK   18  A    between atoms: CA_56  and  CB_57
REMARK   19  A    between atoms: CB_57  and  CG_58
REMARK   20  A    between atoms: CA_68  and  CB_69
REMARK   21  A    between atoms: CB_69  and  CG_70
REMARK   22  A    between atoms: CA_82  and  CB_83
REMARK   23  A    between atoms: CB_83  and  CG_84
REMARK   24  A    between atoms: CG_84  and  CD_85
REMARK   25  A    between atoms: CD_85  and  CE_86
REMARK   26  A    between atoms: CA_91  and  CB_92
REMARK                            x       y       z     vdW  Elec       q    Type
REMARK                         _______ _______ _______ _____ _____    ______ ____
ROOT
ATOM      1  CA  CYS A   6      12.457  -7.752   0.000  0.00  0.00    +0.000 C 
ATOM      2  CB  CYS A   6      11.650  -7.923   0.000  0.00  0.00    +0.000 C 
ATOM      3  SG  CYS A   6      11.098  -7.310   0.000  0.00  0.00    +0.000 S 
ATOM      4  SG  PHE A   1      11.353  -6.526   0.000  0.00  0.00    +0.000 S 
ATOM      5  CB  PHE A   1      12.160  -6.354   0.000  0.00  0.00    +0.000 C 
ATOM      6  CA  PHE A   1      12.415  -5.569   0.000  0.00  0.00    +0.000 C 
ATOM      7  C   PHE A   1      13.222  -5.398   0.000  0.00  0.00    +0.000 C 
ATOM      8  O   PHE A   1      13.774  -6.011   0.000  0.00  0.00    +0.000 OA
ATOM      9  N   TYR A   2      13.476  -4.613   0.000  0.00  0.00    +0.000 NA
ATOM     10  CA  TYR A   2      14.284  -4.442   0.000  0.00  0.00    +0.000 C 
ATOM     11  C   TYR A   2      14.538  -3.657   0.000  0.00  0.00    +0.000 C 
ATOM     12  O   TYR A   2      13.986  -3.044   0.000  0.00  0.00    +0.000 OA
ATOM     13  N   TRP A   3      15.345  -3.486   0.000  0.00  0.00    +0.000 NA
ATOM     14  CA  TRP A   3      15.897  -4.099   0.000  0.00  0.00    +0.000 C 
ATOM     15  C   TRP A   3      15.643  -4.883   0.000  0.00  0.00    +0.000 C 
ATOM     16  O   TRP A   3      14.835  -5.055   0.000  0.00  0.00    +0.000 OA
ATOM     17  N   LYS A   4      16.195  -5.496   0.000  0.00  0.00    +0.000 NA
ATOM     18  CA  LYS A   4      15.940  -6.281   0.000  0.00  0.00    +0.000 C 
ATOM     19  C   LYS A   4      15.133  -6.452   0.000  0.00  0.00    +0.000 C 
ATOM     20  O   LYS A   4      14.581  -5.839   0.000  0.00  0.00    +0.000 OA
ATOM     21  N   THR A   5      14.878  -7.237   0.000  0.00  0.00    +0.000 NA
ATOM     22  CA  THR A   5      14.071  -7.409   0.000  0.00  0.00    +0.000 C 
ATOM     23  C   THR A   5      13.816  -8.193   0.000  0.00  0.00    +0.000 C 
ATOM     24  O   THR A   5      13.902  -9.014   0.000  0.00  0.00    +0.000 OA
ATOM     25  N   CYS A   6      13.009  -8.365   0.000  0.00  0.00    +0.000 NA
ENDROOT
BRANCH   6  26
ATOM     26  N   PHE A   1      11.608  -5.398   0.000  0.00  0.00    +0.000 NA
ATOM     27  C   PHE A   1      11.056  -6.011   0.000  0.00  0.00    +0.000 C 
ATOM     28  O   PHE A   1      11.056  -6.836   0.000  0.00  0.00    +0.000 OA
BRANCH  27  29
ATOM     29  CA  PHE A   1      10.249  -5.839   0.000  0.00  0.00    +0.000 C 
BRANCH  29  30
ATOM     30  N   PHE A   1       9.697  -6.452   0.000  0.00  0.00    +0.000 NA
ATOM     31  C   UNK A   0       8.890  -6.281   0.000  0.00  0.00    +0.000 C 
ATOM     32  O   UNK A   0       8.222  -5.796   0.000  0.00  0.00    +0.000 OA
BRANCH  31  33
ATOM     33  C   UNK A   0       8.338  -6.894   0.000  0.00  0.00    +0.000 A 
ATOM     34  C   UNK A   0       8.592  -7.679   0.000  0.00  0.00    +0.000 A 
ATOM     35  N   UNK A   0       8.040  -8.292   0.000  0.00  0.00    +0.000 NA
ATOM     36  C   UNK A   0       7.234  -8.120   0.000  0.00  0.00    +0.000 A 
ATOM     37  N   UNK A   0       6.681  -8.733   0.000  0.00  0.00    +0.000 NA
ATOM     38  N   UNK A   0       5.875  -8.562   0.000  0.00  0.00    +0.000 NA
ATOM     39  C   UNK A   0       6.979  -7.336   0.000  0.00  0.00    +0.000 A 
ATOM     40  C   UNK A   0       7.531  -6.723   0.000  0.00  0.00    +0.000 A 
ENDBRANCH  31  33
ENDBRANCH  29  30
BRANCH  29  41
ATOM     41  CB  PHE A   1       9.994  -5.055   0.000  0.00  0.00    +0.000 C 
BRANCH  41  42
ATOM     42  CG  PHE A   1       9.187  -4.883   0.000  0.00  0.00    +0.000 A 
ATOM     43  CD1 PHE A   1       8.635  -5.496   0.000  0.00  0.00    +0.000 A 
ATOM     44  CE1 PHE A   1       7.828  -5.325   0.000  0.00  0.00    +0.000 A 
ATOM     45  CZ  PHE A   1       7.573  -4.540   0.000  0.00  0.00    +0.000 A 
ATOM     46  CE2 PHE A   1       8.125  -3.927   0.000  0.00  0.00    +0.000 A 
ATOM     47  CD2 PHE A   1       8.932  -4.099   0.000  0.00  0.00    +0.000 A 
ENDBRANCH  41  42
ENDBRANCH  29  41
ENDBRANCH  27  29
ENDBRANCH   6  26
BRANCH  22  48
ATOM     48  CB  THR A   5      14.623  -8.022   0.000  0.00  0.00    +0.000 C 
ATOM     49  CG2 THR A   5      14.368  -8.806   0.000  0.00  0.00    +0.000 C 
ATOM     50  OG1 THR A   5      15.430  -7.850   0.000  0.00  0.00    +0.000 OA
ENDBRANCH  22  48
BRANCH   1  52
ATOM     51  N   PHE A   1      12.754  -9.149   0.000  0.00  0.00    +0.000 NA
ATOM     52  C   CYS A   6      12.202  -8.536   0.000  0.00  0.00    +0.000 C 
ATOM     53  O   CYS A   6      11.395  -8.708   0.000  0.00  0.00    +0.000 OA
BRANCH  51  54
ATOM     54  CA  PHE A   1      12.499  -9.934   0.000  0.00  0.00    +0.000 C 
BRANCH  54  56
ATOM     55  CG2 PHE A   1      11.140  -9.492   0.000  0.00  0.00    +0.000 C 
ATOM     56  CB  PHE A   1      11.692 -10.105   0.000  0.00  0.00    +0.000 C 
ATOM     57  OG1 PHE A   1      11.437 -10.890   0.000  0.00  0.00    +0.000 OA
ENDBRANCH  54  56
BRANCH  54  58
ATOM     58  C   PHE A   1      13.051 -10.547   0.000  0.00  0.00    +0.000 C 
ATOM     59  O   PHE A   1      12.796 -11.332   0.000  0.00  0.00    +0.000 OA
ENDBRANCH  54  58
ENDBRANCH  51  54
ENDBRANCH   1  52
BRANCH  10  60
ATOM     60  CB  TYR A   2      13.732  -3.829   0.000  0.00  0.00    +0.000 C 
BRANCH  60  61
ATOM     61  CG  TYR A   2      12.925  -4.000   0.000  0.00  0.00    +0.000 A 
ATOM     62  CD1 TYR A   2      12.670  -4.785   0.000  0.00  0.00    +0.000 A 
ATOM     63  CE1 TYR A   2      11.863  -4.956   0.000  0.00  0.00    +0.000 A 
ATOM     64  CZ  TYR A   2      11.311  -4.343   0.000  0.00  0.00    +0.000 A 
ATOM     65  OH  TYR A   2      10.504  -4.515   0.000  0.00  0.00    +0.000 OA
ATOM     66  CE2 TYR A   2      11.566  -3.558   0.000  0.00  0.00    +0.000 A 
ATOM     67  CD2 TYR A   2      12.373  -3.387   0.000  0.00  0.00    +0.000 A 
ENDBRANCH  60  61
ENDBRANCH  10  60
BRANCH  18  68
ATOM     68  CB  LYS A   4      16.492  -6.894   0.000  0.00  0.00    +0.000 C 
BRANCH  68  69
ATOM     69  CG  LYS A   4      17.299  -6.723   0.000  0.00  0.00    +0.000 C 
BRANCH  69  70
ATOM     70  CD  LYS A   4      17.553  -5.938   0.000  0.00  0.00    +0.000 C 
BRANCH  70  71
ATOM     71  CE  LYS A   4      18.360  -5.766   0.000  0.00  0.00    +0.000 C 
ATOM     72  NZ  LYS A   4      18.913  -6.379   0.000  0.00  0.00    +0.000 NA
ENDBRANCH  70  71
ENDBRANCH  69  70
ENDBRANCH  68  69
ENDBRANCH  18  68
BRANCH  14  73
ATOM     73  CB  TRP A   3      16.704  -3.927   0.000  0.00  0.00    +0.000 C 
BRANCH  73  74
ATOM     74  CG  TRP A   3      16.959  -3.142   0.000  0.00  0.00    +0.000 A 
ATOM     75  CD1 TRP A   3      16.474  -2.475   0.000  0.00  0.00    +0.000 A 
ATOM     76  NE1 TRP A   3      16.959  -1.808   0.000  0.00  0.00    +0.000 NA
ATOM     77  CE2 TRP A   3      17.744  -2.062   0.000  0.00  0.00    +0.000 A 
ATOM     78  CD2 TRP A   3      17.744  -2.888   0.000  0.00  0.00    +0.000 A 
ATOM     79  CE3 TRP A   3      18.459  -3.300   0.000  0.00  0.00    +0.000 A 
ATOM     80  CZ3 TRP A   3      19.173  -2.888   0.000  0.00  0.00    +0.000 A 
ATOM     81  CH2 TRP A   3      19.173  -2.062   0.000  0.00  0.00    +0.000 A 
ATOM     82  CZ2 TRP A   3      18.459  -1.650   0.000  0.00  0.00    +0.000 A 
ENDBRANCH  73  74
ENDBRANCH  14  73
TORSDOF 19
