REMARK  Name = 
REMARK  4 active torsions:
REMARK  status: ('A' for Active; 'I' for Inactive)
REMARK    1  A    between atoms: C_1  and  C_2
REMARK    2  A    between atoms: N_5  and  C_12
REMARK    3  A    between atoms: C_9  and  N_16
REMARK    4  A    between atoms: N_16  and  C_17
REMARK                            x       y       z     vdW  Elec       q    Type
REMARK                         _______ _______ _______ _____ _____    ______ ____
ROOT
ATOM      1  N   UNL     1       2.143  -2.063   0.000  0.00  0.00    +0.000 NA
ATOM      2  C   UNL     1       2.858  -1.650   0.000  0.00  0.00    +0.000 A 
ATOM      3  N   UNL     1       2.858  -0.825   0.000  0.00  0.00    +0.000 NA
ATOM      4  C   UNL     1       2.143  -0.412   0.000  0.00  0.00    +0.000 A 
ATOM      5  C   UNL     1       1.429  -0.825   0.000  0.00  0.00    +0.000 A 
ATOM      6  C   UNL     1       0.715  -0.412   0.000  0.00  0.00    +0.000 A 
ATOM      7  C   UNL     1       0.000  -0.825   0.000  0.00  0.00    +0.000 A 
ATOM      8  C   UNL     1       0.000  -1.650   0.000  0.00  0.00    +0.000 A 
ATOM      9  C   UNL     1       0.715  -2.063   0.000  0.00  0.00    +0.000 A 
ATOM     10  C   UNL     1       1.429  -1.650   0.000  0.00  0.00    +0.000 A 
ENDROOT
BRANCH   7  13
ATOM     11  C   UNL     1      -1.429  -0.825   0.000  0.00  0.00    +0.000 C 
ATOM     12  O   UNL     1      -1.429  -1.650   0.000  0.00  0.00    +0.000 OA
ATOM     13  N   UNL     1      -0.715  -0.412   0.000  0.00  0.00    +0.000 NA
BRANCH  11  14
ATOM     14  C   UNL     1      -2.144  -0.412   0.000  0.00  0.00    +0.000 C 
ATOM     15  C   UNL     1      -2.858  -0.825   0.000  0.00  0.00    +0.000 C 
ENDBRANCH  11  14
ENDBRANCH   7  13
BRANCH   4  16
ATOM     16  N   UNL     1       2.143   0.412   0.000  0.00  0.00    +0.000 NA
BRANCH  16  17
ATOM     17  C   UNL     1       1.429   0.825   0.000  0.00  0.00    +0.000 A 
ATOM     18  C   UNL     1       0.715   0.412   0.000  0.00  0.00    +0.000 A 
ATOM     19  C   UNL     1       0.000   0.825   0.000  0.00  0.00    +0.000 A 
ATOM     20  C   UNL     1       0.000   1.650   0.000  0.00  0.00    +0.000 A 
ATOM     21  C   UNL     1       0.715   2.063   0.000  0.00  0.00    +0.000 A 
ATOM     22  C   UNL     1       1.429   1.650   0.000  0.00  0.00    +0.000 A 
ATOM     23 BR   UNL     1      -0.715   0.412   0.000  0.00  0.00    +0.000 Br
ENDBRANCH  16  17
ENDBRANCH   4  16
TORSDOF 4
