REMARK  Name = 
REMARK  2 active torsions:
REMARK  status: ('A' for Active; 'I' for Inactive)
REMARK    1  A    between atoms: C_5  and  C_10
REMARK    2  A    between atoms: C_9  and  C_12
REMARK                            x       y       z     vdW  Elec       q    Type
REMARK                         _______ _______ _______ _____ _____    ______ ____
ROOT
ATOM      1  C   UNL     1      -0.601  -0.405   0.000  0.00  0.00    +0.000 C 
ATOM      2  C   UNL     1       0.784   0.449   0.000  0.00  0.00    +0.000 C 
ATOM      3  C   UNL     1      -1.300  -0.834   0.000  0.00  0.00    +0.000 C 
ATOM      4  C   UNL     1       0.096  -0.825   0.000  0.00  0.00    +0.000 C 
ATOM      5  C   UNL     1      -0.612   0.446   0.000  0.00  0.00    +0.000 C 
ATOM      6  C   UNL     1       0.793  -0.394   0.000  0.00  0.00    +0.000 C 
ATOM      7  C   UNL     1      -1.297  -1.673   0.000  0.00  0.00    +0.000 C 
ATOM      8  C   UNL     1       0.084   0.874   0.000  0.00  0.00    +0.000 C 
ATOM      9  C   UNL     1       1.554   0.720   0.000  0.00  0.00    +0.000 C 
ATOM     10  C   UNL     1      -1.994  -2.105   0.000  0.00  0.00    +0.000 C 
ATOM     11  C   UNL     1       0.108  -1.673   0.000  0.00  0.00    +0.000 C 
ATOM     12  C   UNL     1      -2.009  -0.408   0.000  0.00  0.00    +0.000 C 
ATOM     13  C   UNL     1       1.568  -0.650   0.000  0.00  0.00    +0.000 C 
ATOM     14  C   UNL     1      -0.589  -2.096   0.000  0.00  0.00    +0.000 C 
ATOM     15  C   UNL     1      -2.702  -1.685   0.000  0.00  0.00    +0.000 C 
ATOM     16  C   UNL     1       2.035   0.035   0.000  0.00  0.00    +0.000 C 
ATOM     17  O   UNL     1      -3.419  -2.093   0.000  0.00  0.00    +0.000 OA
ATOM     18  C   UNL     1      -2.702  -0.831   0.000  0.00  0.00    +0.000 C 
ATOM     19  O   UNL     1       1.548   1.545   0.000  0.00  0.00    +0.000 OA
ATOM     20  C   UNL     1       0.778   1.274   0.000  0.00  0.00    +0.000 C 
ENDROOT
BRANCH   5  21
ATOM     21  C   UNL     1      -1.329   0.860   0.000  0.00  0.00    +0.000 A 
ATOM     22  C   UNL     1      -2.767   0.869   0.000  0.00  0.00    +0.000 A 
ATOM     23  C   UNL     1      -2.049   0.443   0.000  0.00  0.00    +0.000 A 
ATOM     24  C   UNL     1      -2.767   1.688   0.000  0.00  0.00    +0.000 A 
ATOM     25  O   UNL     1      -3.551   0.606   0.000  0.00  0.00    +0.000 OA
ATOM     26  O   UNL     1      -3.545   1.944   0.000  0.00  0.00    +0.000 OA
ATOM     27  C   UNL     1      -4.029   1.277   0.000  0.00  0.00    +0.000 C 
ATOM     28  C   UNL     1      -1.332   1.685   0.000  0.00  0.00    +0.000 A 
ATOM     29  C   UNL     1      -2.046   2.105   0.000  0.00  0.00    +0.000 A 
ENDBRANCH   5  21
BRANCH   9  30
ATOM     30  C   UNL     1       2.379   0.720   0.000  0.00  0.00    +0.000 C 
ATOM     31  C   UNL     1       3.204   0.720   0.000  0.00  0.00    +0.000 C 
ATOM     32  C   UNL     1       4.029   0.720   0.000  0.00  0.00    +0.000 C 
ENDBRANCH   9  30
TORSDOF 2
