REMARK  Name = 
REMARK  4 active torsions:
REMARK  status: ('A' for Active; 'I' for Inactive)
REMARK    1  A    between atoms: C_9  and  C_14
REMARK    2  A    between atoms: C_10  and  C_14
REMARK    3  A    between atoms: C_12  and  O_20
REMARK    4  A    between atoms: C_13  and  S_21
REMARK                            x       y       z     vdW  Elec       q    Type
REMARK                         _______ _______ _______ _____ _____    ______ ____
ROOT
ATOM      1  C   UNL     1      -2.143  -0.412   0.000  0.00  0.00    +0.000 A 
ATOM      2  C   UNL     1      -2.143   1.238   0.000  0.00  0.00    +0.000 A 
ATOM      3  C   UNL     1      -1.429   0.000   0.000  0.00  0.00    +0.000 A 
ATOM      4  C   UNL     1      -1.429   0.825   0.000  0.00  0.00    +0.000 A 
ATOM      5  C   UNL     1      -2.858   0.825   0.000  0.00  0.00    +0.000 A 
ATOM      6  C   UNL     1      -2.858   0.000   0.000  0.00  0.00    +0.000 A 
ATOM      7  O   UNL     1      -0.715   1.238   0.000  0.00  0.00    +0.000 OA
ENDROOT
BRANCH   6  11
ATOM      8  O   UNL     1      -4.287  -0.825   0.000  0.00  0.00    +0.000 OA
ATOM      9  O   UNL     1      -3.985   0.302   0.000  0.00  0.00    +0.000 OA
ATOM     10  O   UNL     1      -3.160  -1.127   0.000  0.00  0.00    +0.000 OA
ATOM     11  S   UNL     1      -3.572  -0.412   0.000  0.00  0.00    +0.000 S 
ENDBRANCH   6  11
BRANCH   5  13
ATOM     12  C   UNL     1      -3.572   2.062   0.000  0.00  0.00    +0.000 C 
ATOM     13  O   UNL     1      -3.572   1.238   0.000  0.00  0.00    +0.000 OA
ENDBRANCH   5  13
BRANCH   3  14
ATOM     14  C   UNL     1      -0.715  -0.412   0.000  0.00  0.00    +0.000 C 
ATOM     15  O   UNL     1       0.000   0.000   0.000  0.00  0.00    +0.000 OA
BRANCH  14  21
ATOM     16  C   UNL     1      -0.715  -2.888   0.000  0.00  0.00    +0.000 A 
ATOM     17  C   UNL     1       0.000  -2.475   0.000  0.00  0.00    +0.000 A 
ATOM     18  C   UNL     1      -1.429  -2.475   0.000  0.00  0.00    +0.000 A 
ATOM     19  C   UNL     1       0.000  -1.650   0.000  0.00  0.00    +0.000 A 
ATOM     20  C   UNL     1      -1.429  -1.650   0.000  0.00  0.00    +0.000 A 
ATOM     21  C   UNL     1      -0.715  -1.238   0.000  0.00  0.00    +0.000 A 
ENDBRANCH  14  21
ENDBRANCH   3  14
TORSDOF 4
