REMARK  Name = 
REMARK  4 active torsions:
REMARK  status: ('A' for Active; 'I' for Inactive)
REMARK    1  A    between atoms: C_1  and  O_10
REMARK    2  A    between atoms: C_8  and  C_12
REMARK    3  A    between atoms: C_12  and  C_13
REMARK    4  A    between atoms: C_13  and  N_14
REMARK                            x       y       z     vdW  Elec       q    Type
REMARK                         _______ _______ _______ _____ _____    ______ ____
ROOT
ATOM      1  C   UNL     1      -1.450  -0.689   0.000  0.00  0.00    +0.000 A 
ATOM      2  C   UNL     1      -1.451  -1.512   0.000  0.00  0.00    +0.000 A 
ATOM      3  C   UNL     1      -0.740  -1.925   0.000  0.00  0.00    +0.000 A 
ATOM      4  C   UNL     1      -0.742  -0.280   0.000  0.00  0.00    +0.000 A 
ATOM      5  N   UNL     1       0.761  -1.772   0.000  0.00  0.00    +0.000 NA
ATOM      6  C   UNL     1      -0.031  -0.685   0.000  0.00  0.00    +0.000 A 
ATOM      7  C   UNL     1      -0.029  -1.516   0.000  0.00  0.00    +0.000 A 
ATOM      8  C   UNL     1       0.758  -0.430   0.000  0.00  0.00    +0.000 A 
ATOM      9  C   UNL     1       1.252  -1.103   0.000  0.00  0.00    +0.000 A 
ENDROOT
BRANCH   1  10
ATOM     10  O   UNL     1      -2.164  -0.276   0.000  0.00  0.00    +0.000 OA
ATOM     11  C   UNL     1      -2.879  -0.688   0.000  0.00  0.00    +0.000 C 
ENDBRANCH   1  10
BRANCH   8  12
ATOM     12  C   UNL     1       1.012   0.355   0.000  0.00  0.00    +0.000 C 
BRANCH  12  13
ATOM     13  C   UNL     1       1.819   0.528   0.000  0.00  0.00    +0.000 C 
BRANCH  13  14
ATOM     14  N   UNL     1       2.072   1.313   0.000  0.00  0.00    +0.000 NA
ATOM     15  C   UNL     1       2.879   1.486   0.000  0.00  0.00    +0.000 C 
ATOM     16  C   UNL     1       1.519   1.925   0.000  0.00  0.00    +0.000 C 
ENDBRANCH  13  14
ENDBRANCH  12  13
ENDBRANCH   8  12
TORSDOF 4
