REMARK  Name = 
REMARK  4 active torsions:
REMARK  status: ('A' for Active; 'I' for Inactive)
REMARK    1  A    between atoms: C_26  and  O_28
REMARK    2  A    between atoms: O_28  and  C_29
REMARK    3  A    between atoms: C_29  and  C_30
REMARK    4  A    between atoms: C_30  and  N_31
REMARK                            x       y       z     vdW  Elec       q    Type
REMARK                         _______ _______ _______ _____ _____    ______ ____
ROOT
ATOM      1  C   UNL     1      -0.673  -1.022   0.000  0.00  0.00    +0.000 A 
ATOM      2  C   UNL     1      -0.673  -0.189   0.000  0.00  0.00    +0.000 C 
ATOM      3  C   UNL     1      -0.664   1.484   0.000  0.00  0.00    +0.000 C 
ATOM      4  C   UNL     1       0.059   1.064   0.000  0.00  0.00    +0.000 C 
ATOM      5  O   UNL     1       0.059   0.231   0.000  0.00  0.00    +0.000 OA
ATOM      6  O   UNL     1      -2.060   2.283   0.000  0.00  0.00    +0.000 OA
ATOM      7  C   UNL     1      -1.345   2.695   0.000  0.00  0.00    +0.000 C 
ATOM      8  C   UNL     1      -0.664   2.317   0.000  0.00  0.00    +0.000 C 
ATOM      9  C   UNL     1      -2.052   1.434   0.000  0.00  0.00    +0.000 C 
ATOM     10  C   UNL     1      -3.498  -0.206   0.000  0.00  0.00    +0.000 A 
ATOM     11  C   UNL     1      -2.775   0.189   0.000  0.00  0.00    +0.000 A 
ATOM     12  C   UNL     1      -2.767   1.013   0.000  0.00  0.00    +0.000 A 
ATOM     13  C   UNL     1      -3.464   1.442   0.000  0.00  0.00    +0.000 A 
ATOM     14  C   UNL     1      -4.188   1.038   0.000  0.00  0.00    +0.000 A 
ATOM     15  C   UNL     1      -4.204   0.214   0.000  0.00  0.00    +0.000 A 
ATOM     16  N   UNL     1      -2.834  -1.425   0.000  0.00  0.00    +0.000 NA
ATOM     17  C   UNL     1      -3.498  -1.030   0.000  0.00  0.00    +0.000 A 
ATOM     18  C   UNL     1      -4.171  -1.400   0.000  0.00  0.00    +0.000 A 
ATOM     19  C   UNL     1      -4.188  -2.174   0.000  0.00  0.00    +0.000 A 
ATOM     20  N   UNL     1      -3.523  -2.569   0.000  0.00  0.00    +0.000 NA
ATOM     21  C   UNL     1      -2.850  -2.199   0.000  0.00  0.00    +0.000 A 
ATOM     22  C   UNL     1      -1.396  -1.434   0.000  0.00  0.00    +0.000 A 
ATOM     23  C   UNL     1      -1.404  -2.275   0.000  0.00  0.00    +0.000 A 
ATOM     24  C   UNL     1      -0.681  -2.695   0.000  0.00  0.00    +0.000 A 
ATOM     25  C   UNL     1       0.050  -2.275   0.000  0.00  0.00    +0.000 A 
ATOM     26  C   UNL     1       0.050  -1.442   0.000  0.00  0.00    +0.000 A 
ATOM     27  N   UNL     1      -2.119  -2.678   0.000  0.00  0.00    +0.000 NA
ENDROOT
BRANCH  26  28
ATOM     28  O   UNL     1       0.765  -1.030   0.000  0.00  0.00    +0.000 OA
BRANCH  28  29
ATOM     29  C   UNL     1       1.472  -1.442   0.000  0.00  0.00    +0.000 C 
BRANCH  29  30
ATOM     30  C   UNL     1       2.186  -1.030   0.000  0.00  0.00    +0.000 C 
BRANCH  30  31
ATOM     31  N   UNL     1       2.901  -1.434   0.000  0.00  0.00    +0.000 NA
ATOM     32  C   UNL     1       2.994  -2.249   0.000  0.00  0.00    +0.000 C 
ATOM     33  C   UNL     1       3.792  -2.417   0.000  0.00  0.00    +0.000 C 
ATOM     34  C   UNL     1       4.204  -1.703   0.000  0.00  0.00    +0.000 C 
ATOM     35  C   UNL     1       3.649  -1.097   0.000  0.00  0.00    +0.000 C 
ENDBRANCH  30  31
ENDBRANCH  29  30
ENDBRANCH  28  29
ENDBRANCH  26  28
TORSDOF 4
