REMARK  Name = 
REMARK  7 active torsions:
REMARK  status: ('A' for Active; 'I' for Inactive)
REMARK    1  A    between atoms: O_2  and  C_3
REMARK    2  A    between atoms: C_6  and  C_7
REMARK    3  A    between atoms: C_7  and  N_8
REMARK    4  A    between atoms: C_9  and  C_11
REMARK    5  A    between atoms: C_13  and  C_23
REMARK    6  A    between atoms: C_16  and  C_17
REMARK    7  A    between atoms: C_31  and  O_32
REMARK                            x       y       z     vdW  Elec       q    Type
REMARK                         _______ _______ _______ _____ _____    ______ ____
ROOT
ATOM      1  C   UNL     1      -2.858  -9.075   0.000  0.00  0.00    +0.000 A 
ATOM      2  C   UNL     1      -2.858  -9.900   0.000  0.00  0.00    +0.000 A 
ATOM      3  C   UNL     1      -3.572 -10.312   0.000  0.00  0.00    +0.000 A 
ATOM      4  C   UNL     1      -4.287  -9.900   0.000  0.00  0.00    +0.000 A 
ATOM      5  N   UNL     1      -4.287  -9.075   0.000  0.00  0.00    +0.000 NA
ATOM      6  C   UNL     1      -3.572  -8.662   0.000  0.00  0.00    +0.000 A 
ENDROOT
BRANCH   3   7
ATOM      7  C   UNL     1      -3.572 -11.137   0.000  0.00  0.00    +0.000 A 
ATOM      8  C   UNL     1      -2.858 -11.550   0.000  0.00  0.00    +0.000 A 
ATOM      9  N   UNL     1      -2.858 -12.375   0.000  0.00  0.00    +0.000 NA
ATOM     10  C   UNL     1      -3.572 -12.787   0.000  0.00  0.00    +0.000 A 
ATOM     11  C   UNL     1      -4.287 -12.375   0.000  0.00  0.00    +0.000 A 
ATOM     12 CL   UNL     1      -5.001 -12.787   0.000  0.00  0.00    +0.000 Cl
ATOM     13  C   UNL     1      -4.287 -11.550   0.000  0.00  0.00    +0.000 A 
ENDBRANCH   3   7
BRANCH   6  14
ATOM     14  C   UNL     1      -3.572  -7.838   0.000  0.00  0.00    +0.000 A 
ATOM     15  N   UNL     1      -4.287  -7.425   0.000  0.00  0.00    +0.000 NA
ATOM     16  C   UNL     1      -4.287  -6.600   0.000  0.00  0.00    +0.000 A 
ATOM     17  C   UNL     1      -3.572  -6.188   0.000  0.00  0.00    +0.000 A 
ATOM     18  C   UNL     1      -2.858  -6.600   0.000  0.00  0.00    +0.000 A 
ATOM     19  C   UNL     1      -2.858  -7.425   0.000  0.00  0.00    +0.000 A 
ENDBRANCH   6  14
BRANCH   1  21
ATOM     20  N   UNL     1      -2.143  -7.838   0.000  0.00  0.00    +0.000 NA
ATOM     21  C   UNL     1      -2.143  -8.662   0.000  0.00  0.00    +0.000 C 
ATOM     22  O   UNL     1      -1.429  -9.075   0.000  0.00  0.00    +0.000 OA
BRANCH  20  23
ATOM     23  C   UNL     1      -1.429  -7.425   0.000  0.00  0.00    +0.000 C 
BRANCH  23  27
ATOM     24  C   UNL     1      -1.429  -4.950   0.000  0.00  0.00    +0.000 A 
ATOM     25  C   UNL     1      -0.715  -5.362   0.000  0.00  0.00    +0.000 A 
ATOM     26  C   UNL     1      -0.715  -6.188   0.000  0.00  0.00    +0.000 A 
ATOM     27  C   UNL     1      -1.429  -6.600   0.000  0.00  0.00    +0.000 A 
ATOM     28  N   UNL     1      -2.143  -6.188   0.000  0.00  0.00    +0.000 NA
ATOM     29  C   UNL     1      -2.143  -5.362   0.000  0.00  0.00    +0.000 A 
BRANCH  24  31
ATOM     30  C   UNL     1      -2.143  -3.712   0.000  0.00  0.00    +0.000 C 
ATOM     31  O   UNL     1      -1.429  -4.125   0.000  0.00  0.00    +0.000 OA
ENDBRANCH  24  31
BRANCH  29  32
ATOM     32  O   UNL     1      -2.858  -4.950   0.000  0.00  0.00    +0.000 OA
ATOM     33  C   UNL     1      -2.858  -4.125   0.000  0.00  0.00    +0.000 C 
ENDBRANCH  29  32
ENDBRANCH  23  27
ENDBRANCH  20  23
ENDBRANCH   1  21
TORSDOF 7
