REMARK  Name = 
REMARK  15 active torsions:
REMARK  status: ('A' for Active; 'I' for Inactive)
REMARK    1  A    between atoms: C_2  and  C_3
REMARK    2  A    between atoms: C_3  and  C_4
REMARK    3  A    between atoms: C_4  and  O_6
REMARK    4  A    between atoms: O_6  and  C_7
REMARK    5  A    between atoms: C_10  and  O_19
REMARK    6  A    between atoms: C_12  and  O_14
REMARK    7  A    between atoms: O_14  and  C_15
REMARK    8  A    between atoms: C_15  and  C_17
REMARK    9  A    between atoms: O_19  and  C_20
REMARK   10  A    between atoms: C_23  and  O_30
REMARK   11  A    between atoms: C_25  and  N_26
REMARK   12  A    between atoms: O_30  and  C_31
REMARK   13  A    between atoms: C_32  and  C_54
REMARK   14  A    between atoms: C_47  and  O_48
REMARK   15  A    between atoms: C_54  and  C_55
REMARK                            x       y       z     vdW  Elec       q    Type
REMARK                         _______ _______ _______ _____ _____    ______ ____
ROOT
ATOM      1  C   UNL     1       4.287  -9.075   0.000  0.00  0.00    +0.000 C 
ATOM      2  C   UNL     1       3.572  -8.662   0.000  0.00  0.00    +0.000 C 
ATOM      3  O   UNL     1       2.858  -9.075   0.000  0.00  0.00    +0.000 OA
ATOM      4  C   UNL     1       2.858  -9.900   0.000  0.00  0.00    +0.000 C 
ATOM      5  C   UNL     1       3.572 -10.312   0.000  0.00  0.00    +0.000 C 
ATOM      6  C   UNL     1       4.287  -9.900   0.000  0.00  0.00    +0.000 C 
ATOM      7  O   UNL     1       3.572 -11.137   0.000  0.00  0.00    +0.000 OA
ATOM      8  C   UNL     1       3.572  -7.838   0.000  0.00  0.00    +0.000 C 
ENDROOT
BRANCH   6   9
ATOM      9  N   UNL     1       5.001 -10.312   0.000  0.00  0.00    +0.000 NA
ATOM     10  C   UNL     1       5.716  -9.900   0.000  0.00  0.00    +0.000 C 
ATOM     11  C   UNL     1       5.001 -11.137   0.000  0.00  0.00    +0.000 C 
ENDBRANCH   6   9
BRANCH   4  12
ATOM     12  O   UNL     1       2.143 -10.312   0.000  0.00  0.00    +0.000 OA
BRANCH  12  13
ATOM     13  C   UNL     1       1.429  -9.900   0.000  0.00  0.00    +0.000 C 
ATOM     14  C   UNL     1       0.715 -10.312   0.000  0.00  0.00    +0.000 C 
ATOM     15  C   UNL     1       0.715 -11.137   0.000  0.00  0.00    +0.000 C 
ATOM     16  C   UNL     1       0.000 -11.550   0.000  0.00  0.00    +0.000 C 
ATOM     17  C   UNL     1      -0.715 -11.137   0.000  0.00  0.00    +0.000 C 
ATOM     18  C   UNL     1      -0.715 -10.312   0.000  0.00  0.00    +0.000 C 
ATOM     19  C   UNL     1      -1.429  -9.900   0.000  0.00  0.00    +0.000 C 
ATOM     20  C   UNL     1      -1.429  -9.075   0.000  0.00  0.00    +0.000 C 
ATOM     21  C   UNL     1      -2.143  -8.662   0.000  0.00  0.00    +0.000 C 
ATOM     22  C   UNL     1      -2.143  -7.838   0.000  0.00  0.00    +0.000 C 
ATOM     23  C   UNL     1      -1.429  -7.425   0.000  0.00  0.00    +0.000 C 
ATOM     24  O   UNL     1      -0.715  -7.838   0.000  0.00  0.00    +0.000 OA
ATOM     25  C   UNL     1       0.000  -7.425   0.000  0.00  0.00    +0.000 C 
ATOM     26  O   UNL     1       0.000  -6.600   0.000  0.00  0.00    +0.000 OA
ATOM     27  C   UNL     1       0.715  -7.838   0.000  0.00  0.00    +0.000 C 
ATOM     28  C   UNL     1       0.715  -8.662   0.000  0.00  0.00    +0.000 C 
ATOM     29  C   UNL     1       1.429  -9.075   0.000  0.00  0.00    +0.000 C 
ATOM     30  O   UNL     1       0.000  -9.075   0.000  0.00  0.00    +0.000 OA
ATOM     31  C   UNL     1      -1.429  -6.600   0.000  0.00  0.00    +0.000 C 
ATOM     32  O   UNL     1      -1.429 -11.550   0.000  0.00  0.00    +0.000 OA
ATOM     33  C   UNL     1       0.000 -12.375   0.000  0.00  0.00    +0.000 C 
BRANCH  29  34
ATOM     34  O   UNL     1       2.143  -8.662   0.000  0.00  0.00    +0.000 OA
ATOM     35  C   UNL     1       2.143  -7.838   0.000  0.00  0.00    +0.000 C 
ENDBRANCH  29  34
BRANCH  14  36
ATOM     36  C   UNL     1       1.429 -10.725   0.000  0.00  0.00    +0.000 C 
BRANCH  36  37
ATOM     37  C   UNL     1       1.429 -11.550   0.000  0.00  0.00    +0.000 C 
ATOM     38  O   UNL     1       0.715 -11.963   0.000  0.00  0.00    +0.000 OA
ENDBRANCH  36  37
ENDBRANCH  14  36
ENDBRANCH  12  13
ENDBRANCH   4  12
BRANCH   1  39
ATOM     39  O   UNL     1       5.001  -8.662   0.000  0.00  0.00    +0.000 OA
BRANCH  39  43
ATOM     40  C   UNL     1       5.001  -6.188   0.000  0.00  0.00    +0.000 C 
ATOM     41  C   UNL     1       4.287  -6.600   0.000  0.00  0.00    +0.000 C 
ATOM     42  O   UNL     1       4.287  -7.425   0.000  0.00  0.00    +0.000 OA
ATOM     43  C   UNL     1       5.001  -7.838   0.000  0.00  0.00    +0.000 C 
ATOM     44  C   UNL     1       5.716  -7.425   0.000  0.00  0.00    +0.000 C 
ATOM     45  C   UNL     1       5.716  -6.600   0.000  0.00  0.00    +0.000 C 
ATOM     46  C   UNL     1       6.540  -6.571   0.000  0.00  0.00    +0.000 C 
ATOM     47  C   UNL     1       3.572  -6.188   0.000  0.00  0.00    +0.000 C 
BRANCH  40  48
ATOM     48  O   UNL     1       5.001  -5.362   0.000  0.00  0.00    +0.000 OA
BRANCH  48  49
ATOM     49  C   UNL     1       4.287  -4.950   0.000  0.00  0.00    +0.000 C 
ATOM     50  O   UNL     1       4.287  -4.125   0.000  0.00  0.00    +0.000 OA
BRANCH  49  51
ATOM     51  C   UNL     1       3.572  -5.362   0.000  0.00  0.00    +0.000 C 
BRANCH  51  53
ATOM     52  C   UNL     1       2.143  -5.362   0.000  0.00  0.00    +0.000 C 
ATOM     53  C   UNL     1       2.858  -4.950   0.000  0.00  0.00    +0.000 C 
ENDBRANCH  51  53
ENDBRANCH  49  51
ENDBRANCH  48  49
ENDBRANCH  40  48
BRANCH  45  54
ATOM     54  O   UNL     1       6.153  -5.900   0.000  0.00  0.00    +0.000 OA
BRANCH  54  55
ATOM     55  C   UNL     1       6.977  -5.929   0.000  0.00  0.00    +0.000 C 
ATOM     56  O   UNL     1       7.365  -6.658   0.000  0.00  0.00    +0.000 OA
BRANCH  55  57
ATOM     57  C   UNL     1       7.415  -5.229   0.000  0.00  0.00    +0.000 C 
ATOM     58  C   UNL     1       7.027  -4.501   0.000  0.00  0.00    +0.000 C 
ENDBRANCH  55  57
ENDBRANCH  54  55
ENDBRANCH  45  54
ENDBRANCH  39  43
ENDBRANCH   1  39
TORSDOF 15
