REMARK  Name = 
REMARK  2 active torsions:
REMARK  status: ('A' for Active; 'I' for Inactive)
REMARK    1  A    between atoms: C_7  and  O_13
REMARK    2  A    between atoms: C_11  and  C_14
REMARK                            x       y       z     vdW  Elec       q    Type
REMARK                         _______ _______ _______ _____ _____    ______ ____
ROOT
ATOM      1  C   UNL     1      -0.724  -0.612   0.000  0.00  0.00    +0.000 A 
ATOM      2  C   UNL     1      -0.720   0.213   0.000  0.00  0.00    +0.000 A 
ATOM      3  C   UNL     1      -1.432  -1.024   0.000  0.00  0.00    +0.000 A 
ATOM      4  C   UNL     1      -0.009  -1.028   0.000  0.00  0.00    +0.000 A 
ATOM      5  O   UNL     1      -0.002   0.625   0.000  0.00  0.00    +0.000 OA
ATOM      6  C   UNL     1      -1.432   0.629   0.000  0.00  0.00    +0.000 A 
ATOM      7  C   UNL     1      -2.150  -0.612   0.000  0.00  0.00    +0.000 A 
ATOM      8  O   UNL     1      -1.432  -1.853   0.000  0.00  0.00    +0.000 OA
ATOM      9  C   UNL     1       0.710  -0.619   0.000  0.00  0.00    +0.000 A 
ATOM     10  O   UNL     1      -0.012  -1.853   0.000  0.00  0.00    +0.000 OA
ATOM     11  C   UNL     1       0.713   0.206   0.000  0.00  0.00    +0.000 A 
ATOM     12  C   UNL     1      -2.150   0.213   0.000  0.00  0.00    +0.000 A 
ATOM     13  O   UNL     1      -2.861   0.629   0.000  0.00  0.00    +0.000 OA
ENDROOT
BRANCH  11  14
ATOM     14  C   UNL     1       1.432   0.619   0.000  0.00  0.00    +0.000 A 
ATOM     15  C   UNL     1       2.143   0.199   0.000  0.00  0.00    +0.000 A 
ATOM     16  C   UNL     1       1.435   1.444   0.000  0.00  0.00    +0.000 A 
ATOM     17  C   UNL     1       2.858   0.612   0.000  0.00  0.00    +0.000 A 
ATOM     18  C   UNL     1       2.150   1.853   0.000  0.00  0.00    +0.000 A 
ATOM     19  C   UNL     1       2.861   1.437   0.000  0.00  0.00    +0.000 A 
ATOM     20  O   UNL     1       3.580   1.846   0.000  0.00  0.00    +0.000 OA
ENDBRANCH  11  14
BRANCH   7  21
ATOM     21  O   UNL     1      -2.861  -1.024   0.000  0.00  0.00    +0.000 OA
ATOM     22  C   UNL     1      -3.580  -0.615   0.000  0.00  0.00    +0.000 C 
ENDBRANCH   7  21
TORSDOF 2
