REMARK  Name = 
REMARK  4 active torsions:
REMARK  status: ('A' for Active; 'I' for Inactive)
REMARK    1  A    between atoms: P_1  and  O_5
REMARK    2  A    between atoms: O_5  and  C_18
REMARK    3  A    between atoms: N_10  and  C_16
REMARK    4  A    between atoms: C_17  and  C_18
REMARK                            x       y       z     vdW  Elec       q    Type
REMARK                         _______ _______ _______ _____ _____    ______ ____
ROOT
ATOM      1  O   UNL     1       0.145  -0.280   0.000  0.00  0.00    +0.000 OA
ATOM      2  O   UNL     1       2.081  -1.181   0.000  0.00  0.00    +0.000 OA
ATOM      3  O   UNL     1       2.084   0.614   0.000  0.00  0.00    +0.000 OA
ATOM      4  C   UNL     1       1.414  -0.695   0.000  0.00  0.00    +0.000 C 
ATOM      5  C   UNL     1       1.416   0.130   0.000  0.00  0.00    +0.000 C 
ATOM      6  C   UNL     1       0.629  -0.949   0.000  0.00  0.00    +0.000 C 
ATOM      7  C   UNL     1       0.632   0.386   0.000  0.00  0.00    +0.000 C 
ENDROOT
BRANCH   6   9
ATOM      8  O   UNL     1      -2.551  -3.222   0.000  0.00  0.00    +0.000 OA
ATOM      9  N   UNL     1       0.373  -1.733   0.000  0.00  0.00    +0.000 N 
ATOM     10  N   UNL     1       0.373  -3.061   0.000  0.00  0.00    +0.000 NA
ATOM     11  N   UNL     1      -1.122  -3.222   0.000  0.00  0.00    +0.000 NA
ATOM     12  N   UNL     1      -1.837  -1.984   0.000  0.00  0.00    +0.000 NA
ATOM     13  C   UNL     1      -0.407  -1.984   0.000  0.00  0.00    +0.000 A 
ATOM     14  C   UNL     1       0.855  -2.397   0.000  0.00  0.00    +0.000 A 
ATOM     15  C   UNL     1      -0.407  -2.809   0.000  0.00  0.00    +0.000 A 
ATOM     16  C   UNL     1      -1.122  -1.572   0.000  0.00  0.00    +0.000 A 
ATOM     17  C   UNL     1      -1.837  -2.809   0.000  0.00  0.00    +0.000 A 
ENDBRANCH   6   9
BRANCH   7  18
ATOM     18  C   UNL     1       0.378   1.171   0.000  0.00  0.00    +0.000 C 
BRANCH  18  19
ATOM     19  O   UNL     1       0.931   1.784   0.000  0.00  0.00    +0.000 OA
BRANCH  19  20
ATOM     20  P   UNL     1       0.677   2.569   0.000  0.00  0.00    +0.000 P 
ATOM     21  O   UNL     1       0.424   3.354   0.000  0.00  0.00    +0.000 OA
ATOM     22  O   UNL     1       1.463   2.822   0.000  0.00  0.00    +0.000 OA
ATOM     23  O   UNL     1      -0.107   2.315   0.000  0.00  0.00    +0.000 OA
ENDBRANCH  19  20
ENDBRANCH  18  19
ENDBRANCH   7  18
TORSDOF 4
