REMARK  Name = 
REMARK  4 active torsions:
REMARK  status: ('A' for Active; 'I' for Inactive)
REMARK    1  A    between atoms: C_1  and  O_7
REMARK    2  A    between atoms: C_4  and  C_6
REMARK    3  A    between atoms: O_7  and  C_14
REMARK    4  A    between atoms: C_9  and  O_15
REMARK                            x       y       z     vdW  Elec       q    Type
REMARK                         _______ _______ _______ _____ _____    ______ ____
ROOT
ATOM      1  C   UNL     1      -1.019  -0.231   0.000  0.00  0.00    +0.000 A 
ATOM      2  C   UNL     1       0.406  -0.231   0.000  0.00  0.00    +0.000 A 
ATOM      3  C   UNL     1      -0.306   0.181   0.000  0.00  0.00    +0.000 A 
ATOM      4  C   UNL     1      -1.019  -1.056   0.000  0.00  0.00    +0.000 A 
ATOM      5  C   UNL     1       0.406  -1.056   0.000  0.00  0.00    +0.000 A 
ATOM      6  C   UNL     1      -0.306  -1.469   0.000  0.00  0.00    +0.000 A 
ENDROOT
BRANCH   2   9
ATOM      7  N   UNL     1       2.419   0.469   0.000  0.00  0.00    +0.000 NA
ATOM      8  C   UNL     1       2.006   1.181   0.000  0.00  0.00    +0.000 C 
ATOM      9  C   UNL     1       1.119   0.185   0.000  0.00  0.00    +0.000 C 
ATOM     10  C   UNL     1       1.202   1.006   0.000  0.00  0.00    +0.000 C 
ATOM     11  C   UNL     1       1.869  -0.144   0.000  0.00  0.00    +0.000 C 
ATOM     12  O   UNL     1       2.344   1.944   0.000  0.00  0.00    +0.000 OA
ENDBRANCH   2   9
BRANCH   4  13
ATOM     13  O   UNL     1      -1.731  -1.469   0.000  0.00  0.00    +0.000 OA
ATOM     14  C   UNL     1      -1.731  -2.294   0.000  0.00  0.00    +0.000 C 
ENDBRANCH   4  13
BRANCH   1  15
ATOM     15  O   UNL     1      -1.744   0.181   0.000  0.00  0.00    +0.000 OA
BRANCH  15  16
ATOM     16  C   UNL     1      -1.744   1.006   0.000  0.00  0.00    +0.000 C 
ATOM     17  C   UNL     1      -1.081   1.506   0.000  0.00  0.00    +0.000 C 
ATOM     18  C   UNL     1      -2.419   1.494   0.000  0.00  0.00    +0.000 C 
ATOM     19  C   UNL     1      -2.169   2.281   0.000  0.00  0.00    +0.000 C 
ATOM     20  C   UNL     1      -1.344   2.294   0.000  0.00  0.00    +0.000 C 
ENDBRANCH  15  16
ENDBRANCH   1  15
TORSDOF 4
