REMARK  Name = 
REMARK  3 active torsions:
REMARK  status: ('A' for Active; 'I' for Inactive)
REMARK    1  A    between atoms: C_2  and  C_3
REMARK    2  A    between atoms: C_3  and  N_4
REMARK    3  A    between atoms: C_3  and  C_6
REMARK                            x       y       z     vdW  Elec       q    Type
REMARK                         _______ _______ _______ _____ _____    ______ ____
ROOT
ATOM      1  C   UNL     1       0.000  -0.002   0.000  0.00  0.00    +0.000 C 
ATOM      2 BR   UNL     1       0.714  -0.415   0.000  0.00  0.00    +0.000 Br
ENDROOT
BRANCH   1   3
ATOM      3  N   UNL     1       0.714   0.411   0.000  0.00  0.00    +0.000 N 
ATOM      4  O   UNL     1       1.428   0.002   0.000  0.00  0.00    +0.000 OA
ATOM      5  O   UNL     1       0.712   1.238   0.000  0.00  0.00    +0.000 OA
ENDBRANCH   1   3
BRANCH   1   7
ATOM      6  O   UNL     1      -1.428  -0.006   0.000  0.00  0.00    +0.000 OA
ATOM      7  C   UNL     1      -0.714   0.407   0.000  0.00  0.00    +0.000 C 
ENDBRANCH   1   7
BRANCH   1   8
ATOM      8  C   UNL     1      -0.718  -0.411   0.000  0.00  0.00    +0.000 C 
ATOM      9  O   UNL     1      -0.722  -1.238   0.000  0.00  0.00    +0.000 OA
ENDBRANCH   1   8
TORSDOF 3
