REMARK  Name = 
REMARK  38 active torsions:
REMARK  status: ('A' for Active; 'I' for Inactive)
REMARK    1  A    between atoms: C_2  and  O_3
REMARK    2  A    between atoms: O_3  and  C_4
REMARK    3  A    between atoms: C_8  and  O_10
REMARK    4  A    between atoms: O_10  and  C_11
REMARK    5  A    between atoms: C_16  and  C_17
REMARK    6  A    between atoms: C_20  and  O_21
REMARK    7  A    between atoms: O_21  and  C_22
REMARK    8  A    between atoms: C_22  and  C_24
REMARK    9  A    between atoms: C_26  and  O_27
REMARK   10  A    between atoms: O_27  and  C_28
REMARK   11  A    between atoms: C_28  and  C_30
REMARK   12  A    between atoms: C_30  and  C_31
REMARK   13  A    between atoms: C_33  and  C_34
REMARK   14  A    between atoms: C_34  and  C_35
REMARK   15  A    between atoms: C_35  and  C_36
REMARK   16  A    between atoms: C_36  and  O_38
REMARK   17  A    between atoms: C_36  and  C_62
REMARK   18  A    between atoms: O_38  and  C_39
REMARK   19  A    between atoms: C_43  and  O_44
REMARK   20  A    between atoms: O_44  and  C_45
REMARK   21  A    between atoms: C_45  and  C_47
REMARK   22  A    between atoms: C_47  and  C_48
REMARK   23  A    between atoms: C_50  and  C_51
REMARK   24  A    between atoms: C_51  and  C_52
REMARK   25  A    between atoms: C_52  and  C_53
REMARK   26  A    between atoms: C_53  and  C_56
REMARK   27  A    between atoms: C_79  and  O_80
REMARK   28  A    between atoms: O_80  and  C_81
REMARK   29  A    between atoms: C_84  and  C_85
REMARK   30  A    between atoms: C_85  and  O_86
REMARK   31  A    between atoms: O_86  and  C_87
REMARK   32  A    between atoms: C_95  and  O_96
REMARK   33  A    between atoms: O_96  and  C_97
REMARK   34  A    between atoms: C_111  and  N_112
REMARK   35  A    between atoms: C_132  and  O_133
REMARK   36  A    between atoms: O_133  and  C_134
REMARK   37  A    between atoms: C_137  and  C_138
REMARK   38  A    between atoms: C_147  and  C_148
REMARK                            x       y       z     vdW  Elec       q    Type
REMARK                         _______ _______ _______ _____ _____    ______ ____
ROOT
ATOM      1  C   UNL     1       1.127  -5.252   0.000  0.00  0.00    +0.000 C 
ATOM      2  C   UNL     1       0.302  -5.252   0.000  0.00  0.00    +0.000 C 
ATOM      3  C   UNL     1      -0.111  -4.537   0.000  0.00  0.00    +0.000 C 
ATOM      4  C   UNL     1       0.302  -3.823   0.000  0.00  0.00    +0.000 C 
ATOM      5  C   UNL     1       0.445  -3.011   0.000  0.00  0.00    +0.000 C 
ATOM      6  C   UNL     1      -0.473  -3.541   0.000  0.00  0.00    +0.000 C 
ATOM      7  C   UNL     1       1.127  -3.823   0.000  0.00  0.00    +0.000 C 
ATOM      8  C   UNL     1       1.540  -4.537   0.000  0.00  0.00    +0.000 C 
ATOM      9  C   UNL     1       2.365  -4.537   0.000  0.00  0.00    +0.000 C 
ATOM     10  C   UNL     1       2.777  -3.823   0.000  0.00  0.00    +0.000 C 
ATOM     11  C   UNL     1       3.602  -3.823   0.000  0.00  0.00    +0.000 C 
ATOM     12  C   UNL     1       4.014  -4.537   0.000  0.00  0.00    +0.000 C 
ATOM     13  C   UNL     1       4.840  -4.537   0.000  0.00  0.00    +0.000 C 
ATOM     14  C   UNL     1       4.427  -3.823   0.000  0.00  0.00    +0.000 C 
ATOM     15  C   UNL     1       5.252  -3.823   0.000  0.00  0.00    +0.000 C 
ATOM     16  C   UNL     1       6.077  -3.823   0.000  0.00  0.00    +0.000 C 
ATOM     17  C   UNL     1       6.489  -4.537   0.000  0.00  0.00    +0.000 C 
ATOM     18  C   UNL     1       6.077  -5.252   0.000  0.00  0.00    +0.000 C 
ATOM     19  C   UNL     1       6.852  -5.534   0.000  0.00  0.00    +0.000 C 
ATOM     20  C   UNL     1       5.934  -6.064   0.000  0.00  0.00    +0.000 C 
ATOM     21  C   UNL     1       5.252  -5.252   0.000  0.00  0.00    +0.000 C 
ATOM     22  C   UNL     1       4.840  -5.966   0.000  0.00  0.00    +0.000 C 
ATOM     23  C   UNL     1       4.014  -5.966   0.000  0.00  0.00    +0.000 C 
ATOM     24  C   UNL     1       3.602  -5.252   0.000  0.00  0.00    +0.000 C 
ATOM     25  C   UNL     1       3.189  -5.966   0.000  0.00  0.00    +0.000 C 
ATOM     26  C   UNL     1       2.777  -5.252   0.000  0.00  0.00    +0.000 C 
ATOM     27  C   UNL     1       2.691  -6.072   0.000  0.00  0.00    +0.000 C 
ATOM     28  C   UNL     1       2.365  -5.966   0.000  0.00  0.00    +0.000 C 
ATOM     29  C   UNL     1       1.540  -5.966   0.000  0.00  0.00    +0.000 C 
ATOM     30  O   UNL     1       1.626  -6.787   0.000  0.00  0.00    +0.000 OA
ENDROOT
BRANCH   1  31
ATOM     31  C   UNL     1       0.715  -5.966   0.000  0.00  0.00    +0.000 C 
ATOM     32  O   UNL     1       1.127  -6.681   0.000  0.00  0.00    +0.000 OA
BRANCH  31  33
ATOM     33  O   UNL     1      -0.111  -5.966   0.000  0.00  0.00    +0.000 OA
BRANCH  33  41
ATOM     34  C   UNL     1      -0.111  -7.395   0.000  0.00  0.00    +0.000 C 
ATOM     35  C   UNL     1      -0.523  -8.110   0.000  0.00  0.00    +0.000 C 
ATOM     36  O   UNL     1      -0.111  -8.824   0.000  0.00  0.00    +0.000 OA
ATOM     37  C   UNL     1      -1.348  -8.110   0.000  0.00  0.00    +0.000 C 
ATOM     38  O   UNL     1      -1.760  -8.824   0.000  0.00  0.00    +0.000 OA
ATOM     39  C   UNL     1      -1.760  -7.395   0.000  0.00  0.00    +0.000 C 
ATOM     40  O   UNL     1      -1.348  -6.681   0.000  0.00  0.00    +0.000 OA
ATOM     41  C   UNL     1      -0.523  -6.681   0.000  0.00  0.00    +0.000 C 
BRANCH  39  42
ATOM     42  C   UNL     1      -2.586  -7.395   0.000  0.00  0.00    +0.000 C 
ATOM     43  O   UNL     1      -2.998  -8.110   0.000  0.00  0.00    +0.000 OA
ENDBRANCH  39  42
BRANCH  34  44
ATOM     44  O   UNL     1       0.715  -7.395   0.000  0.00  0.00    +0.000 OA
BRANCH  44  49
ATOM     45  C   UNL     1       1.952  -9.539   0.000  0.00  0.00    +0.000 C 
ATOM     46  C   UNL     1       1.127  -9.539   0.000  0.00  0.00    +0.000 C 
ATOM     47  C   UNL     1       0.715 -10.253   0.000  0.00  0.00    +0.000 C 
ATOM     48  O   UNL     1       0.715  -8.824   0.000  0.00  0.00    +0.000 OA
ATOM     49  C   UNL     1       1.127  -8.110   0.000  0.00  0.00    +0.000 C 
ATOM     50  C   UNL     1       1.952  -8.110   0.000  0.00  0.00    +0.000 C 
ATOM     51  O   UNL     1       2.365  -7.395   0.000  0.00  0.00    +0.000 OA
ATOM     52  C   UNL     1       2.365  -8.824   0.000  0.00  0.00    +0.000 C 
BRANCH  52  53
ATOM     53  O   UNL     1       3.189  -8.824   0.000  0.00  0.00    +0.000 OA
BRANCH  53  54
ATOM     54  C   UNL     1       3.602  -9.539   0.000  0.00  0.00    +0.000 C 
ATOM     55  O   UNL     1       3.189 -10.253   0.000  0.00  0.00    +0.000 OA
ATOM     56  C   UNL     1       3.602 -10.968   0.000  0.00  0.00    +0.000 C 
ATOM     57  C   UNL     1       4.427 -10.968   0.000  0.00  0.00    +0.000 C 
ATOM     58  O   UNL     1       4.840 -11.682   0.000  0.00  0.00    +0.000 OA
ATOM     59  C   UNL     1       4.840 -10.253   0.000  0.00  0.00    +0.000 C 
ATOM     60  O   UNL     1       5.665 -10.253   0.000  0.00  0.00    +0.000 OA
ATOM     61  C   UNL     1       4.427  -9.539   0.000  0.00  0.00    +0.000 C 
ATOM     62  O   UNL     1       4.840  -8.824   0.000  0.00  0.00    +0.000 OA
BRANCH  56  63
ATOM     63  C   UNL     1       3.189 -11.682   0.000  0.00  0.00    +0.000 C 
ATOM     64  O   UNL     1       3.602 -12.397   0.000  0.00  0.00    +0.000 OA
ENDBRANCH  56  63
ENDBRANCH  53  54
ENDBRANCH  52  53
BRANCH  45  65
ATOM     65  O   UNL     1       2.365 -10.253   0.000  0.00  0.00    +0.000 OA
BRANCH  65  66
ATOM     66  C   UNL     1       1.952 -10.968   0.000  0.00  0.00    +0.000 C 
ATOM     67  O   UNL     1       1.131 -11.054   0.000  0.00  0.00    +0.000 OA
ATOM     68  C   UNL     1       0.960 -11.861   0.000  0.00  0.00    +0.000 C 
ATOM     69  C   UNL     1       1.674 -12.273   0.000  0.00  0.00    +0.000 C 
ATOM     70  O   UNL     1       1.761 -13.094   0.000  0.00  0.00    +0.000 OA
ATOM     71  C   UNL     1       2.288 -11.721   0.000  0.00  0.00    +0.000 C 
ATOM     72  O   UNL     1       3.002 -12.134   0.000  0.00  0.00    +0.000 OA
BRANCH  68  73
ATOM     73  C   UNL     1       0.206 -12.197   0.000  0.00  0.00    +0.000 C 
ATOM     74  O   UNL     1       0.120 -13.017   0.000  0.00  0.00    +0.000 OA
ENDBRANCH  68  73
ENDBRANCH  65  66
ENDBRANCH  45  65
ENDBRANCH  44  49
ENDBRANCH  34  44
ENDBRANCH  33  41
ENDBRANCH  31  33
ENDBRANCH   1  31
BRANCH   3  75
ATOM     75  O   UNL     1      -0.935  -4.537   0.000  0.00  0.00    +0.000 OA
BRANCH  75  76
ATOM     76  C   UNL     1      -1.348  -5.252   0.000  0.00  0.00    +0.000 C 
ATOM     77  O   UNL     1      -0.935  -5.966   0.000  0.00  0.00    +0.000 OA
BRANCH  76  78
ATOM     78  C   UNL     1      -2.173  -5.252   0.000  0.00  0.00    +0.000 C 
ATOM     79  C   UNL     1      -2.586  -5.966   0.000  0.00  0.00    +0.000 C 
BRANCH  78  80
ATOM     80  C   UNL     1      -2.586  -4.537   0.000  0.00  0.00    +0.000 C 
ATOM     81  O   UNL     1      -3.410  -4.537   0.000  0.00  0.00    +0.000 OA
ENDBRANCH  78  80
BRANCH  79  82
ATOM     82  C   UNL     1      -3.410  -5.966   0.000  0.00  0.00    +0.000 C 
BRANCH  82  83
ATOM     83  C   UNL     1      -3.823  -6.681   0.000  0.00  0.00    +0.000 C 
BRANCH  83  84
ATOM     84  C   UNL     1      -4.648  -6.681   0.000  0.00  0.00    +0.000 C 
ATOM     85  C   UNL     1      -4.648  -5.856   0.000  0.00  0.00    +0.000 C 
BRANCH  84  86
ATOM     86  C   UNL     1      -4.648  -7.506   0.000  0.00  0.00    +0.000 C 
ATOM     87  C   UNL     1      -5.362  -7.918   0.000  0.00  0.00    +0.000 C 
ENDBRANCH  84  86
BRANCH  84  88
ATOM     88  O   UNL     1      -5.473  -6.681   0.000  0.00  0.00    +0.000 OA
BRANCH  88  89
ATOM     89  C   UNL     1      -5.886  -5.966   0.000  0.00  0.00    +0.000 C 
ATOM     90  O   UNL     1      -5.473  -5.252   0.000  0.00  0.00    +0.000 OA
ATOM     91  C   UNL     1      -5.886  -4.537   0.000  0.00  0.00    +0.000 C 
ATOM     92  C   UNL     1      -5.473  -3.823   0.000  0.00  0.00    +0.000 C 
ATOM     93  C   UNL     1      -6.710  -4.537   0.000  0.00  0.00    +0.000 C 
ATOM     94  C   UNL     1      -7.123  -5.252   0.000  0.00  0.00    +0.000 C 
ATOM     95  O   UNL     1      -7.948  -5.252   0.000  0.00  0.00    +0.000 OA
ATOM     96  C   UNL     1      -6.710  -5.966   0.000  0.00  0.00    +0.000 C 
ATOM     97  O   UNL     1      -7.123  -6.681   0.000  0.00  0.00    +0.000 OA
BRANCH  93  98
ATOM     98  O   UNL     1      -7.123  -3.823   0.000  0.00  0.00    +0.000 OA
BRANCH  98  99
ATOM     99  C   UNL     1      -7.948  -3.823   0.000  0.00  0.00    +0.000 C 
ATOM    100  O   UNL     1      -8.361  -4.537   0.000  0.00  0.00    +0.000 OA
BRANCH  99 101
ATOM    101  C   UNL     1      -8.361  -3.109   0.000  0.00  0.00    +0.000 C 
ATOM    102  C   UNL     1      -9.185  -3.109   0.000  0.00  0.00    +0.000 C 
BRANCH 101 103
ATOM    103  C   UNL     1      -7.948  -2.394   0.000  0.00  0.00    +0.000 C 
ATOM    104  O   UNL     1      -7.123  -2.394   0.000  0.00  0.00    +0.000 OA
ENDBRANCH 101 103
BRANCH 102 105
ATOM    105  C   UNL     1      -9.598  -2.394   0.000  0.00  0.00    +0.000 C 
BRANCH 105 106
ATOM    106  C   UNL     1      -9.185  -1.680   0.000  0.00  0.00    +0.000 C 
BRANCH 106 107
ATOM    107  C   UNL     1      -9.598  -0.965   0.000  0.00  0.00    +0.000 C 
ATOM    108  C   UNL     1     -10.312  -1.378   0.000  0.00  0.00    +0.000 C 
ATOM    109  O   UNL     1      -8.884  -0.553   0.000  0.00  0.00    +0.000 OA
BRANCH 107 110
ATOM    110  C   UNL     1     -10.011  -0.251   0.000  0.00  0.00    +0.000 C 
ATOM    111  C   UNL     1      -9.598   0.464   0.000  0.00  0.00    +0.000 C 
ENDBRANCH 107 110
ENDBRANCH 106 107
ENDBRANCH 105 106
ENDBRANCH 102 105
ENDBRANCH  99 101
ENDBRANCH  98  99
ENDBRANCH  93  98
ENDBRANCH  88  89
ENDBRANCH  84  88
ENDBRANCH  83  84
ENDBRANCH  82  83
ENDBRANCH  79  82
ENDBRANCH  76  78
ENDBRANCH  75  76
ENDBRANCH   3  75
BRANCH  17 112
ATOM    112  O   UNL     1       7.314  -4.537   0.000  0.00  0.00    +0.000 OA
BRANCH 112 113
ATOM    113  C   UNL     1       7.727  -3.823   0.000  0.00  0.00    +0.000 C 
ATOM    114  O   UNL     1       7.314  -3.109   0.000  0.00  0.00    +0.000 OA
ATOM    115  C   UNL     1       7.727  -2.394   0.000  0.00  0.00    +0.000 C 
ATOM    116  C   UNL     1       8.552  -2.394   0.000  0.00  0.00    +0.000 C 
ATOM    117  O   UNL     1       8.964  -1.680   0.000  0.00  0.00    +0.000 OA
ATOM    118  C   UNL     1       8.964  -3.109   0.000  0.00  0.00    +0.000 C 
ATOM    119  O   UNL     1       9.790  -3.109   0.000  0.00  0.00    +0.000 OA
ATOM    120  C   UNL     1       8.552  -3.823   0.000  0.00  0.00    +0.000 C 
BRANCH 120 121
ATOM    121  N   UNL     1       8.964  -4.537   0.000  0.00  0.00    +0.000 NA
ATOM    122  C   UNL     1       9.790  -4.537   0.000  0.00  0.00    +0.000 C 
ATOM    123  C   UNL     1      10.202  -3.823   0.000  0.00  0.00    +0.000 C 
ATOM    124  O   UNL     1      10.202  -5.252   0.000  0.00  0.00    +0.000 OA
ENDBRANCH 120 121
BRANCH 115 125
ATOM    125  C   UNL     1       7.314  -1.680   0.000  0.00  0.00    +0.000 C 
BRANCH 125 126
ATOM    126  O   UNL     1       7.727  -0.965   0.000  0.00  0.00    +0.000 OA
BRANCH 126 127
ATOM    127  C   UNL     1       7.314  -0.251   0.000  0.00  0.00    +0.000 C 
ATOM    128  O   UNL     1       7.727   0.464   0.000  0.00  0.00    +0.000 OA
ATOM    129  C   UNL     1       7.314   1.178   0.000  0.00  0.00    +0.000 C 
ATOM    130  C   UNL     1       7.727   1.893   0.000  0.00  0.00    +0.000 C 
ATOM    131  C   UNL     1       6.489   1.178   0.000  0.00  0.00    +0.000 C 
ATOM    132  O   UNL     1       6.077   1.893   0.000  0.00  0.00    +0.000 OA
ATOM    133  C   UNL     1       6.077   0.464   0.000  0.00  0.00    +0.000 C 
ATOM    134  O   UNL     1       5.252   0.464   0.000  0.00  0.00    +0.000 OA
ATOM    135  C   UNL     1       6.489  -0.251   0.000  0.00  0.00    +0.000 C 
BRANCH 135 136
ATOM    136  O   UNL     1       6.077  -0.965   0.000  0.00  0.00    +0.000 OA
BRANCH 136 137
ATOM    137  C   UNL     1       5.252  -0.965   0.000  0.00  0.00    +0.000 C 
ATOM    138  O   UNL     1       4.840  -0.251   0.000  0.00  0.00    +0.000 OA
ATOM    139  C   UNL     1       4.014  -0.251   0.000  0.00  0.00    +0.000 C 
ATOM    140  C   UNL     1       3.602  -0.965   0.000  0.00  0.00    +0.000 C 
ATOM    141  O   UNL     1       2.777  -0.965   0.000  0.00  0.00    +0.000 OA
ATOM    142  C   UNL     1       4.014  -1.680   0.000  0.00  0.00    +0.000 C 
ATOM    143  O   UNL     1       3.602  -2.394   0.000  0.00  0.00    +0.000 OA
ATOM    144  C   UNL     1       4.840  -1.680   0.000  0.00  0.00    +0.000 C 
ATOM    145  O   UNL     1       5.252  -2.394   0.000  0.00  0.00    +0.000 OA
ENDBRANCH 136 137
ENDBRANCH 135 136
ENDBRANCH 126 127
ENDBRANCH 125 126
ENDBRANCH 115 125
ENDBRANCH 112 113
ENDBRANCH  17 112
TORSDOF 38
