REMARK  Name = 
REMARK  8 active torsions:
REMARK  status: ('A' for Active; 'I' for Inactive)
REMARK    1  A    between atoms: C_1  and  C_2
REMARK    2  A    between atoms: C_2  and  C_4
REMARK    3  A    between atoms: C_3  and  O_6
REMARK    4  A    between atoms: N_5  and  C_9
REMARK    5  A    between atoms: O_6  and  C_11
REMARK    6  A    between atoms: C_9  and  C_14
REMARK    7  A    between atoms: C_11  and  C_15
REMARK    8  A    between atoms: C_14  and  C_15
REMARK                            x       y       z     vdW  Elec       q    Type
REMARK                         _______ _______ _______ _____ _____    ______ ____
ROOT
ATOM      1  C   UNL     1       1.786   0.412   0.000  0.00  0.00    +0.000 A 
ATOM      2  C   UNL     1       1.072   0.825   0.000  0.00  0.00    +0.000 A 
ATOM      3  C   UNL     1       2.501   0.825   0.000  0.00  0.00    +0.000 A 
ATOM      4  C   UNL     1       1.072   1.650   0.000  0.00  0.00    +0.000 A 
ATOM      5  C   UNL     1       2.501   1.650   0.000  0.00  0.00    +0.000 A 
ATOM      6  C   UNL     1       1.786   2.062   0.000  0.00  0.00    +0.000 A 
ENDROOT
BRANCH   1   7
ATOM      7  C   UNL     1       1.786  -0.412   0.000  0.00  0.00    +0.000 C 
BRANCH   7   8
ATOM      8  C   UNL     1       2.501  -0.825   0.000  0.00  0.00    +0.000 A 
ATOM      9  C   UNL     1       3.215  -0.412   0.000  0.00  0.00    +0.000 A 
ATOM     10  C   UNL     1       2.501  -1.650   0.000  0.00  0.00    +0.000 A 
ATOM     11  C   UNL     1       3.930  -0.825   0.000  0.00  0.00    +0.000 A 
ATOM     12  C   UNL     1       3.215  -2.062   0.000  0.00  0.00    +0.000 A 
ATOM     13  C   UNL     1       3.930  -1.650   0.000  0.00  0.00    +0.000 A 
ENDBRANCH   7   8
ENDBRANCH   1   7
BRANCH   2  14
ATOM     14  O   UNL     1       0.357   0.412   0.000  0.00  0.00    +0.000 OA
BRANCH  14  15
ATOM     15  C   UNL     1      -0.357   0.825   0.000  0.00  0.00    +0.000 C 
BRANCH  15  16
ATOM     16  C   UNL     1      -1.072   0.412   0.000  0.00  0.00    +0.000 C 
BRANCH  16  17
ATOM     17  C   UNL     1      -1.786   0.825   0.000  0.00  0.00    +0.000 C 
BRANCH  17  18
ATOM     18  C   UNL     1      -2.501   0.412   0.000  0.00  0.00    +0.000 C 
BRANCH  18  19
ATOM     19  N   UNL     1      -3.215   0.825   0.000  0.00  0.00    +0.000 NA
ATOM     20  C   UNL     1      -3.930   0.412   0.000  0.00  0.00    +0.000 C 
ENDBRANCH  18  19
ENDBRANCH  17  18
ENDBRANCH  16  17
ENDBRANCH  15  16
ENDBRANCH  14  15
ENDBRANCH   2  14
TORSDOF 8
