REMARK  Name = 
REMARK  1 active torsions:
REMARK  status: ('A' for Active; 'I' for Inactive)
REMARK    1  A    between atoms: C_10  and  C_11
REMARK                            x       y       z     vdW  Elec       q    Type
REMARK                         _______ _______ _______ _____ _____    ______ ____
ROOT
ATOM      1  C   UNL     1      -1.786   0.825   0.000  0.00  0.00    +0.000 A 
ATOM      2  C   UNL     1      -1.786   1.650   0.000  0.00  0.00    +0.000 A 
ATOM      3  C   UNL     1      -1.072   0.412   0.000  0.00  0.00    +0.000 A 
ATOM      4  C   UNL     1      -1.072   2.062   0.000  0.00  0.00    +0.000 A 
ATOM      5  C   UNL     1       1.072   0.825   0.000  0.00  0.00    +0.000 C 
ATOM      6  C   UNL     1       1.072   1.650   0.000  0.00  0.00    +0.000 C 
ATOM      7  C   UNL     1       0.357   0.412   0.000  0.00  0.00    +0.000 C 
ATOM      8  C   UNL     1      -0.357   0.825   0.000  0.00  0.00    +0.000 A 
ATOM      9  C   UNL     1      -0.357   1.650   0.000  0.00  0.00    +0.000 A 
ATOM     10  C   UNL     1       0.357   2.062   0.000  0.00  0.00    +0.000 C 
ATOM     11  N   UNL     1       0.357   2.888   0.000  0.00  0.00    +0.000 NA
ENDROOT
BRANCH   7  15
ATOM     12  C   UNL     1      -0.357  -0.825   0.000  0.00  0.00    +0.000 A 
ATOM     13  C   UNL     1      -0.357  -1.650   0.000  0.00  0.00    +0.000 A 
ATOM     14  C   UNL     1       1.072  -0.825   0.000  0.00  0.00    +0.000 A 
ATOM     15  C   UNL     1       0.357  -0.412   0.000  0.00  0.00    +0.000 A 
ATOM     16  C   UNL     1       0.357  -2.062   0.000  0.00  0.00    +0.000 A 
ATOM     17  C   UNL     1       1.072  -1.650   0.000  0.00  0.00    +0.000 A 
ATOM     18 CL   UNL     1       0.357  -2.888   0.000  0.00  0.00    +0.000 Cl
ATOM     19 CL   UNL     1       1.786  -2.062   0.000  0.00  0.00    +0.000 Cl
ENDBRANCH   7  15
TORSDOF 1
