REMARK  Name = 
REMARK  3 active torsions:
REMARK  status: ('A' for Active; 'I' for Inactive)
REMARK    1  A    between atoms: C_2  and  C_27
REMARK    2  A    between atoms: C_3  and  N_9
REMARK    3  A    between atoms: C_12  and  C_17
REMARK                            x       y       z     vdW  Elec       q    Type
REMARK                         _______ _______ _______ _____ _____    ______ ____
ROOT
ATOM      1  N   UNL     1      -0.826   0.498   0.000  0.00  0.00    +0.000 NA
ATOM      2  C   UNL     1      -0.826  -0.331   0.000  0.00  0.00    +0.000 A 
ATOM      3  N   UNL     1      -0.112  -0.744   0.000  0.00  0.00    +0.000 NA
ATOM      4  C   UNL     1      -0.112  -1.568   0.000  0.00  0.00    +0.000 A 
ATOM      5  N   UNL     1      -0.826  -1.981   0.000  0.00  0.00    +0.000 NA
ATOM      6  C   UNL     1      -1.541  -1.568   0.000  0.00  0.00    +0.000 A 
ATOM      7  C   UNL     1      -1.541  -0.744   0.000  0.00  0.00    +0.000 A 
ATOM      8  F   UNL     1      -2.256  -0.331   0.000  0.00  0.00    +0.000 F 
ENDROOT
BRANCH   4   9
ATOM      9  C   UNL     1       0.603  -1.981   0.000  0.00  0.00    +0.000 A 
ATOM     10  C   UNL     1       0.687  -2.800   0.000  0.00  0.00    +0.000 A 
ATOM     11  N   UNL     1       1.497  -2.971   0.000  0.00  0.00    +0.000 NA
ATOM     12  C   UNL     1       1.909  -2.257   0.000  0.00  0.00    +0.000 A 
ATOM     13  C   UNL     1       1.355  -1.642   0.000  0.00  0.00    +0.000 A 
ATOM     14  C   UNL     1       1.612  -0.861   0.000  0.00  0.00    +0.000 A 
ATOM     15  C   UNL     1       2.417  -0.690   0.000  0.00  0.00    +0.000 A 
ATOM     16  C   UNL     1       2.970  -1.300   0.000  0.00  0.00    +0.000 A 
ATOM     17  N   UNL     1       2.714  -2.086   0.000  0.00  0.00    +0.000 NA
ATOM     18  F   UNL     1       2.673   0.096   0.000  0.00  0.00    +0.000 F 
ENDBRANCH   4   9
BRANCH   1  21
ATOM     19  C   UNL     1      -2.256   2.147   0.000  0.00  0.00    +0.000 C 
ATOM     20  C   UNL     1      -1.541   1.734   0.000  0.00  0.00    +0.000 C 
ATOM     21  C   UNL     1      -1.541   0.910   0.000  0.00  0.00    +0.000 C 
ATOM     22  C   UNL     1      -2.256   0.498   0.000  0.00  0.00    +0.000 C 
ATOM     23  C   UNL     1      -2.596   1.011   0.000  0.00  0.00    +0.000 C 
ATOM     24  C   UNL     1      -2.596   1.632   0.000  0.00  0.00    +0.000 C 
ATOM     25  C   UNL     1      -2.970   0.910   0.000  0.00  0.00    +0.000 C 
ATOM     26  C   UNL     1      -2.970   1.734   0.000  0.00  0.00    +0.000 C 
BRANCH  20  27
ATOM     27  C   UNL     1      -0.826   2.147   0.000  0.00  0.00    +0.000 C 
ATOM     28  O   UNL     1      -0.826   2.971   0.000  0.00  0.00    +0.000 OA
ATOM     29  O   UNL     1      -0.112   1.734   0.000  0.00  0.00    +0.000 OA
ENDBRANCH  20  27
ENDBRANCH   1  21
TORSDOF 3
