REMARK  Name = 
REMARK  2 active torsions:
REMARK  status: ('A' for Active; 'I' for Inactive)
REMARK    1  A    between atoms: C_16  and  C_17
REMARK    2  A    between atoms: C_22  and  C_23
REMARK                            x       y       z     vdW  Elec       q    Type
REMARK                         _______ _______ _______ _____ _____    ______ ____
ROOT
ATOM      1  O   UNL     1       2.858   1.933   0.000  0.00  0.00    +0.000 OA
ATOM      2  C   UNL     1       2.143   1.521   0.000  0.00  0.00    +0.000 A 
ATOM      3  O   UNL     1       0.000   1.933   0.000  0.00  0.00    +0.000 OA
ATOM      4  C   UNL     1       0.715   1.521   0.000  0.00  0.00    +0.000 A 
ATOM      5  C   UNL     1       1.429   0.283   0.000  0.00  0.00    +0.000 A 
ATOM      6  C   UNL     1       2.143   0.696   0.000  0.00  0.00    +0.000 A 
ATOM      7  C   UNL     1       0.715   0.696   0.000  0.00  0.00    +0.000 A 
ATOM      8  C   UNL     1      -0.715   0.696   0.000  0.00  0.00    +0.000 A 
ATOM      9  C   UNL     1      -0.715   1.521   0.000  0.00  0.00    +0.000 A 
ATOM     10  C   UNL     1      -1.429   0.283   0.000  0.00  0.00    +0.000 A 
ATOM     11  C   UNL     1       1.429   1.933   0.000  0.00  0.00    +0.000 A 
ATOM     12  C   UNL     1      -1.429   1.933   0.000  0.00  0.00    +0.000 A 
ATOM     13  C   UNL     1      -2.143   0.696   0.000  0.00  0.00    +0.000 A 
ATOM     14  C   UNL     1      -2.143   1.521   0.000  0.00  0.00    +0.000 A 
ATOM     15  O   UNL     1      -2.858   1.933   0.000  0.00  0.00    +0.000 OA
ATOM     16  C   UNL     1       0.000   0.283   0.000  0.00  0.00    +0.000 C 
ENDROOT
BRANCH  16  17
ATOM     17  C   UNL     1      -0.244  -0.505   0.000  0.00  0.00    +0.000 A 
ATOM     18  C   UNL     1      -1.069  -0.505   0.000  0.00  0.00    +0.000 A 
ATOM     19  C   UNL     1      -1.481  -1.219   0.000  0.00  0.00    +0.000 A 
ATOM     20  C   UNL     1      -1.069  -1.933   0.000  0.00  0.00    +0.000 A 
ATOM     21  C   UNL     1      -0.244  -1.933   0.000  0.00  0.00    +0.000 A 
ATOM     22  C   UNL     1       0.169  -1.219   0.000  0.00  0.00    +0.000 A 
BRANCH  22  23
ATOM     23  C   UNL     1       0.994  -1.219   0.000  0.00  0.00    +0.000 C 
ATOM     24  O   UNL     1       1.406  -0.505   0.000  0.00  0.00    +0.000 OA
ATOM     25  O   UNL     1       1.406  -1.933   0.000  0.00  0.00    +0.000 OA
ENDBRANCH  22  23
ENDBRANCH  16  17
TORSDOF 2
