REMARK  Name = 
REMARK  4 active torsions:
REMARK  status: ('A' for Active; 'I' for Inactive)
REMARK    1  A    between atoms: N_4  and  C_5
REMARK    2  A    between atoms: C_5  and  C_6
REMARK    3  A    between atoms: N_8  and  C_12
REMARK    4  A    between atoms: C_15  and  N_19
REMARK                            x       y       z     vdW  Elec       q    Type
REMARK                         _______ _______ _______ _____ _____    ______ ____
ROOT
ATOM      1  C   UNL     1       1.612  -5.649   0.000  0.00  0.00    +0.000 A 
ATOM      2  C   UNL     1       2.432  -5.563   0.000  0.00  0.00    +0.000 A 
ATOM      3  C   UNL     1       2.917  -6.231   0.000  0.00  0.00    +0.000 A 
ATOM      4  C   UNL     1       2.582  -6.984   0.000  0.00  0.00    +0.000 A 
ATOM      5  C   UNL     1       1.761  -7.071   0.000  0.00  0.00    +0.000 A 
ATOM      6  C   UNL     1       1.276  -6.403   0.000  0.00  0.00    +0.000 A 
ATOM      7  F   UNL     1       1.426  -7.824   0.000  0.00  0.00    +0.000 F 
ENDROOT
BRANCH   1  10
ATOM      8  C   UNL     1       0.715  -3.712   0.000  0.00  0.00    +0.000 C 
ATOM      9  C   UNL     1       1.382  -4.197   0.000  0.00  0.00    +0.000 C 
ATOM     10  N   UNL     1       1.127  -4.982   0.000  0.00  0.00    +0.000 N 
ATOM     11  C   UNL     1       0.302  -4.982   0.000  0.00  0.00    +0.000 C 
ATOM     12  O   UNL     1      -0.183  -5.649   0.000  0.00  0.00    +0.000 OA
ATOM     13  O   UNL     1       0.047  -4.197   0.000  0.00  0.00    +0.000 OA
BRANCH   8  14
ATOM     14  C   UNL     1       0.715  -2.888   0.000  0.00  0.00    +0.000 C 
BRANCH  14  18
ATOM     15  C   UNL     1      -0.715  -1.238   0.000  0.00  0.00    +0.000 C 
ATOM     16  C   UNL     1       0.000  -1.650   0.000  0.00  0.00    +0.000 C 
ATOM     17  O   UNL     1       0.715  -1.238   0.000  0.00  0.00    +0.000 OA
ATOM     18  N   UNL     1       0.000  -2.475   0.000  0.00  0.00    +0.000 NA
ENDBRANCH  14  18
ENDBRANCH   8  14
ENDBRANCH   1  10
BRANCH   4  19
ATOM     19  N   UNL     1       3.067  -7.652   0.000  0.00  0.00    +0.000 N 
ATOM     20  C   UNL     1       3.887  -7.566   0.000  0.00  0.00    +0.000 C 
ATOM     21  C   UNL     1       4.372  -8.233   0.000  0.00  0.00    +0.000 C 
ATOM     22  S   UNL     1       4.037  -8.987   0.000  0.00  0.00    +0.000 S 
ATOM     23  C   UNL     1       3.216  -9.073   0.000  0.00  0.00    +0.000 C 
ATOM     24  C   UNL     1       2.731  -8.405   0.000  0.00  0.00    +0.000 C 
ENDBRANCH   4  19
TORSDOF 4
