REMARK  Name = 
REMARK  2 active torsions:
REMARK  status: ('A' for Active; 'I' for Inactive)
REMARK    1  A    between atoms: N_1  and  C_2
REMARK    2  A    between atoms: N_1  and  C_20
REMARK                            x       y       z     vdW  Elec       q    Type
REMARK                         _______ _______ _______ _____ _____    ______ ____
ROOT
ATOM      1  C   UNL     1       0.299   0.025   0.000  0.00  0.00    +0.000 A 
ATOM      2  N   UNL     1      -0.415  -0.388   0.000  0.00  0.00    +0.000 NA
ATOM      3  C   UNL     1      -0.415  -1.213   0.000  0.00  0.00    +0.000 A 
ATOM      4  N   UNL     1       0.299  -1.625   0.000  0.00  0.00    +0.000 NA
ATOM      5  C   UNL     1       1.014  -1.212   0.000  0.00  0.00    +0.000 A 
ATOM      6  C   UNL     1       1.014  -0.388   0.000  0.00  0.00    +0.000 A 
ATOM      7  N   UNL     1       1.728  -1.625   0.000  0.00  0.00    +0.000 N 
ATOM      8  C   UNL     1       1.728  -2.450   0.000  0.00  0.00    +0.000 C 
ATOM      9  C   UNL     1       2.443  -2.863   0.000  0.00  0.00    +0.000 C 
ATOM     10  O   UNL     1       3.157  -2.450   0.000  0.00  0.00    +0.000 OA
ATOM     11  C   UNL     1       3.157  -1.625   0.000  0.00  0.00    +0.000 C 
ATOM     12  C   UNL     1       2.443  -1.212   0.000  0.00  0.00    +0.000 C 
ATOM     13  N   UNL     1      -1.129  -1.625   0.000  0.00  0.00    +0.000 N 
ATOM     14  N   UNL     1      -1.883  -1.290   0.000  0.00  0.00    +0.000 NA
ATOM     15  C   UNL     1      -2.435  -1.903   0.000  0.00  0.00    +0.000 A 
ATOM     16  C   UNL     1      -2.022  -2.617   0.000  0.00  0.00    +0.000 A 
ATOM     17  C   UNL     1      -1.216  -2.446   0.000  0.00  0.00    +0.000 A 
ATOM     18  C   UNL     1      -3.256  -1.816   0.000  0.00  0.00    +0.000 C 
ENDROOT
BRANCH   1  19
ATOM     19  N   UNL     1       0.299   0.850   0.000  0.00  0.00    +0.000 NA
BRANCH  19  20
ATOM     20  C   UNL     1       1.014   1.262   0.000  0.00  0.00    +0.000 C 
ATOM     21  C   UNL     1       1.014   2.087   0.000  0.00  0.00    +0.000 C 
ATOM     22  C   UNL     1       1.728   2.500   0.000  0.00  0.00    +0.000 C 
ATOM     23  C   UNL     1       2.443   2.087   0.000  0.00  0.00    +0.000 C 
ATOM     24  C   UNL     1       2.443   1.262   0.000  0.00  0.00    +0.000 C 
ATOM     25  C   UNL     1       1.728   0.850   0.000  0.00  0.00    +0.000 C 
ATOM     26  F   UNL     1       3.256   1.944   0.000  0.00  0.00    +0.000 F 
ATOM     27  F   UNL     1       2.725   2.863   0.000  0.00  0.00    +0.000 F 
ENDBRANCH  19  20
ENDBRANCH   1  19
TORSDOF 2
