REMARK  Name = 
REMARK  10 active torsions:
REMARK  status: ('A' for Active; 'I' for Inactive)
REMARK    1  A    between atoms: C_3  and  C_10
REMARK    2  A    between atoms: CA_15  and  CB_42
REMARK    3  A    between atoms: CA_16  and  C_41
REMARK    4  A    between atoms: CA_18  and  N_25
REMARK    5  A    between atoms: C_21  and  C_24
REMARK    6  A    between atoms: C_22  and  N_27
REMARK    7  A    between atoms: C_24  and  C_30
REMARK    8  A    between atoms: C_30  and  C_39
REMARK    9  A    between atoms: C_39  and  C_43
REMARK   10  A    between atoms: C_43  and  C_47
REMARK                            x       y       z     vdW  Elec       q    Type
REMARK                         _______ _______ _______ _____ _____    ______ ____
ROOT
ATOM      1  C   UNL     1       2.448  -1.030   0.000  0.00  0.00    +0.000 C 
ATOM      2  N   UNL     1       1.049  -1.030   0.000  0.00  0.00    +0.000 NA
ATOM      3  C   UNL     1       0.324  -1.437   0.000  0.00  0.00    +0.000 C 
ATOM      4  N   UNL     1       2.448  -0.178   0.000  0.00  0.00    +0.000 NA
ATOM      5  C   UNL     1       1.748  -1.437   0.000  0.00  0.00    +0.000 C 
ATOM      6  N   UNL     1       2.448   1.424   0.000  0.00  0.00    +0.000 NA
ATOM      7  N   UNL     1       1.062   2.263   0.000  0.00  0.00    +0.000 NA
ATOM      8  C   UNL     1       3.185   0.216   0.000  0.00  0.00    +0.000 C 
ATOM      9  C   UNL     1       2.448   2.263   0.000  0.00  0.00    +0.000 C 
ATOM     10  C   UNL     1       1.062   1.424   0.000  0.00  0.00    +0.000 C 
ATOM     11  CA  UNL     1       1.748   2.670   0.000  0.00  0.00    +0.000 C 
ATOM     12  CA  UNL     1       3.185   1.030   0.000  0.00  0.00    +0.000 C 
ATOM     13  C   UNL     1      -0.388  -1.030   0.000  0.00  0.00    +0.000 C 
ATOM     14  CA  UNL     1       0.350   1.030   0.000  0.00  0.00    +0.000 C 
ATOM     15  N   UNL     1      -0.388  -0.178   0.000  0.00  0.00    +0.000 NA
ATOM     16  C   UNL     1       3.185  -1.437   0.000  0.00  0.00    +0.000 C 
ATOM     17  C   UNL     1       0.350   0.216   0.000  0.00  0.00    +0.000 C 
ATOM     18  O   UNL     1       1.748  -2.276   0.000  0.00  0.00    +0.000 OA
ATOM     19  O   UNL     1       3.185   2.670   0.000  0.00  0.00    +0.000 OA
ATOM     20  O   UNL     1       1.748   1.030   0.000  0.00  0.00    +0.000 OA
ATOM     21  O   UNL     1       3.872  -0.178   0.000  0.00  0.00    +0.000 OA
ATOM     22  O   UNL     1      -1.125  -1.450   0.000  0.00  0.00    +0.000 OA
ENDROOT
BRANCH   3  25
ATOM     23  C   UNL     1       1.049  -3.509   0.000  0.00  0.00    +0.000 C 
ATOM     24  N   UNL     1       0.324  -3.904   0.000  0.00  0.00    +0.000 NA
ATOM     25  C   UNL     1       0.324  -2.276   0.000  0.00  0.00    +0.000 C 
ATOM     26  N   UNL     1       1.049  -2.645   0.000  0.00  0.00    +0.000 NA
ATOM     27  C   UNL     1      -0.388  -2.645   0.000  0.00  0.00    +0.000 C 
ATOM     28  C   UNL     1      -0.388  -3.509   0.000  0.00  0.00    +0.000 C 
ATOM     29  N   UNL     1       1.774  -3.904   0.000  0.00  0.00    +0.000 NA
ENDBRANCH   3  25
BRANCH  16  31
ATOM     30  C   UNL     1       4.635  -1.450   0.000  0.00  0.00    +0.000 C 
ATOM     31  N   UNL     1       3.872  -1.030   0.000  0.00  0.00    +0.000 NA
ATOM     32  O   UNL     1       4.635  -2.276   0.000  0.00  0.00    +0.000 OA
ATOM     33  N   UNL     1       5.372  -1.030   0.000  0.00  0.00    +0.000 NA
ENDBRANCH  16  31
BRANCH  14  35
ATOM     34  C   UNL     1      -1.049   1.068   0.000  0.00  0.00    +0.000 C 
ATOM     35  N   UNL     1      -0.337   1.462   0.000  0.00  0.00    +0.000 NA
ATOM     36  O   UNL     1      -1.049   0.242   0.000  0.00  0.00    +0.000 OA
BRANCH  34  37
ATOM     37  C   UNL     1      -1.748   1.462   0.000  0.00  0.00    +0.000 C 
BRANCH  37  38
ATOM     38  C   UNL     1      -2.448   1.068   0.000  0.00  0.00    +0.000 C 
ATOM     39  N   UNL     1      -2.448   0.242   0.000  0.00  0.00    +0.000 NA
BRANCH  38  40
ATOM     40  C   UNL     1      -3.211   1.488   0.000  0.00  0.00    +0.000 C 
ATOM     41  O   UNL     1      -3.211   2.314   0.000  0.00  0.00    +0.000 OA
BRANCH  40  42
ATOM     42  C   UNL     1      -3.923   1.068   0.000  0.00  0.00    +0.000 C 
BRANCH  42  44
ATOM     43  N   UNL     1      -5.372   1.068   0.000  0.00  0.00    +0.000 NA
ATOM     44  C   UNL     1      -4.647   1.462   0.000  0.00  0.00    +0.000 C 
ENDBRANCH  42  44
ENDBRANCH  40  42
ENDBRANCH  38  40
ENDBRANCH  37  38
ENDBRANCH  34  37
ENDBRANCH  14  35
BRANCH  12  45
ATOM     45  C   UNL     1       3.872   1.424   0.000  0.00  0.00    +0.000 C 
ATOM     46  O   UNL     1       3.872   2.263   0.000  0.00  0.00    +0.000 OA
ENDBRANCH  12  45
BRANCH  11  47
ATOM     47  CB  UNL     1       1.748   3.509   0.000  0.00  0.00    +0.000 C 
ATOM     48  O   UNL     1       2.448   3.904   0.000  0.00  0.00    +0.000 OA
ENDBRANCH  11  47
TORSDOF 10
