REMARK  Name = 
REMARK  2 active torsions:
REMARK  status: ('A' for Active; 'I' for Inactive)
REMARK    1  A    between atoms: S_1  and  N_7
REMARK    2  A    between atoms: S_1  and  C_18
REMARK                            x       y       z     vdW  Elec       q    Type
REMARK                         _______ _______ _______ _____ _____    ______ ____
ROOT
ATOM      1  O   UNL     1       1.171   1.105   0.000  0.00  0.00    +0.000 OA
ATOM      2  O   UNL     1       3.370  -1.492   0.000  0.00  0.00    +0.000 OA
ATOM      3  N   UNL     1       3.101   0.207   0.000  0.00  0.00    +0.000 N 
ATOM      4  N   UNL     1       2.064  -2.156   0.000  0.00  0.00    +0.000 N 
ATOM      5  C   UNL     1       1.839   0.620   0.000  0.00  0.00    +0.000 C 
ATOM      6  C   UNL     1       2.320  -0.044   0.000  0.00  0.00    +0.000 C 
ATOM      7  C   UNL     1       2.064  -0.828   0.000  0.00  0.00    +0.000 C 
ATOM      8  C   UNL     1      -0.146  -1.079   0.000  0.00  0.00    +0.000 A 
ATOM      9  C   UNL     1       2.320   1.284   0.000  0.00  0.00    +0.000 A 
ATOM     10  C   UNL     1       1.283  -1.079   0.000  0.00  0.00    +0.000 A 
ATOM     11  C   UNL     1       3.104   1.028   0.000  0.00  0.00    +0.000 A 
ATOM     12  C   UNL     1       0.569  -0.667   0.000  0.00  0.00    +0.000 A 
ATOM     13  C   UNL     1       1.283  -1.905   0.000  0.00  0.00    +0.000 A 
ATOM     14  C   UNL     1       1.171   0.135   0.000  0.00  0.00    +0.000 C 
ATOM     15  C   UNL     1       2.545  -1.492   0.000  0.00  0.00    +0.000 C 
ATOM     16  C   UNL     1      -0.146  -1.905   0.000  0.00  0.00    +0.000 A 
ATOM     17  C   UNL     1       0.569  -2.317   0.000  0.00  0.00    +0.000 A 
ATOM     18  C   UNL     1       2.150   2.091   0.000  0.00  0.00    +0.000 A 
ATOM     19  C   UNL     1       3.718   1.579   0.000  0.00  0.00    +0.000 A 
ATOM     20  C   UNL     1       2.764   2.642   0.000  0.00  0.00    +0.000 A 
ATOM     21  C   UNL     1       3.548   2.386   0.000  0.00  0.00    +0.000 A 
ATOM     22  H   UNL     1       3.513  -0.095   0.000  0.00  0.00    +0.000 HD
ATOM     23  H   UNL     1       2.223  -2.642   0.000  0.00  0.00    +0.000 HD
ENDROOT
BRANCH   8  24
ATOM     24  S   UNL     1      -0.860  -0.667   0.000  0.00  0.00    +0.000 S 
ATOM     25  O   UNL     1      -0.448   0.047   0.000  0.00  0.00    +0.000 OA
ATOM     26  O   UNL     1      -1.273  -1.381   0.000  0.00  0.00    +0.000 OA
BRANCH  24  28
ATOM     27  O   UNL     1      -3.718   0.983   0.000  0.00  0.00    +0.000 OA
ATOM     28  N   UNL     1      -1.575  -0.255   0.000  0.00  0.00    +0.000 NA
ATOM     29  C   UNL     1      -3.004   0.571   0.000  0.00  0.00    +0.000 C 
ATOM     30  C   UNL     1      -2.289  -0.667   0.000  0.00  0.00    +0.000 C 
ATOM     31  C   UNL     1      -1.575   0.571   0.000  0.00  0.00    +0.000 C 
ATOM     32  C   UNL     1      -3.004  -0.255   0.000  0.00  0.00    +0.000 C 
ATOM     33  C   UNL     1      -2.289   0.983   0.000  0.00  0.00    +0.000 C 
ENDBRANCH  24  28
ENDBRANCH   8  24
TORSDOF 2
