REMARK  Name = 
REMARK  11 active torsions:
REMARK  status: ('A' for Active; 'I' for Inactive)
REMARK    1  A    between atoms: O_3  and  C_17
REMARK    2  A    between atoms: O_3  and  C_18
REMARK    3  A    between atoms: O_5  and  C_28
REMARK    4  A    between atoms: C_7  and  C_12
REMARK    5  A    between atoms: C_8  and  C_13
REMARK    6  A    between atoms: C_13  and  C_15
REMARK    7  A    between atoms: C_14  and  C_16
REMARK    8  A    between atoms: C_16  and  C_17
REMARK    9  A    between atoms: C_22  and  C_26
REMARK   10  A    between atoms: C_26  and  C_27
REMARK   11  A    between atoms: C_27  and  C_28
REMARK                            x       y       z     vdW  Elec       q    Type
REMARK                         _______ _______ _______ _____ _____    ______ ____
ROOT
ATOM      1  O   UNL     1      -3.642  -1.342   0.000  0.00  0.00    +0.000 OA
ATOM      2  O   UNL     1      -3.642   1.553   0.000  0.00  0.00    +0.000 OA
ATOM      3  C   UNL     1      -2.607  -0.307   0.000  0.00  0.00    +0.000 C 
ATOM      4  C   UNL     1      -2.607   0.517   0.000  0.00  0.00    +0.000 C 
ATOM      5  C   UNL     1      -3.393  -0.556   0.000  0.00  0.00    +0.000 C 
ATOM      6  C   UNL     1      -3.393   0.767   0.000  0.00  0.00    +0.000 C 
ATOM      7  C   UNL     1      -3.891   0.105   0.000  0.00  0.00    +0.000 C 
ENDROOT
BRANCH   3   8
ATOM      8  C   UNL     1      -1.782  -0.307   0.000  0.00  0.00    +0.000 C 
ATOM      9  C   UNL     1      -1.370  -1.016   0.000  0.00  0.00    +0.000 C 
BRANCH   9  11
ATOM     10  O   UNL     1      -0.124  -1.716   0.000  0.00  0.00    +0.000 OA
ATOM     11  C   UNL     1      -0.537  -1.016   0.000  0.00  0.00    +0.000 C 
BRANCH  11  12
ATOM     12  C   UNL     1      -0.124  -0.307   0.000  0.00  0.00    +0.000 C 
BRANCH  12  13
ATOM     13  O   UNL     1       0.700  -0.307   0.000  0.00  0.00    +0.000 OA
BRANCH  13  14
ATOM     14  C   UNL     1       1.121  -1.016   0.000  0.00  0.00    +0.000 A 
ATOM     15  C   UNL     1       1.946  -1.016   0.000  0.00  0.00    +0.000 A 
ATOM     16  C   UNL     1       0.700  -1.763   0.000  0.00  0.00    +0.000 A 
ATOM     17  C   UNL     1       2.358  -1.763   0.000  0.00  0.00    +0.000 A 
ATOM     18  C   UNL     1       1.121  -2.463   0.000  0.00  0.00    +0.000 A 
ATOM     19  C   UNL     1       1.946  -2.463   0.000  0.00  0.00    +0.000 A 
ENDBRANCH  13  14
ENDBRANCH  12  13
ENDBRANCH  11  12
ENDBRANCH   9  11
ENDBRANCH   3   8
BRANCH   4  20
ATOM     20  C   UNL     1      -1.782   0.517   0.000  0.00  0.00    +0.000 C 
BRANCH  20  21
ATOM     21  C   UNL     1      -1.370   1.218   0.000  0.00  0.00    +0.000 C 
ATOM     22  C   UNL     1      -0.537   1.218   0.000  0.00  0.00    +0.000 C 
ATOM     23  C   UNL     1       0.288   1.218   0.000  0.00  0.00    +0.000 C 
BRANCH  23  24
ATOM     24  C   UNL     1       1.035   1.638   0.000  0.00  0.00    +0.000 C 
BRANCH  24  25
ATOM     25  C   UNL     1       1.736   1.218   0.000  0.00  0.00    +0.000 C 
BRANCH  25  27
ATOM     26  O   UNL     1       2.483   2.463   0.000  0.00  0.00    +0.000 OA
ATOM     27  C   UNL     1       2.483   1.638   0.000  0.00  0.00    +0.000 C 
BRANCH  27  28
ATOM     28  O   UNL     1       3.191   1.218   0.000  0.00  0.00    +0.000 OA
ATOM     29  C   UNL     1       3.891   1.638   0.000  0.00  0.00    +0.000 C 
ENDBRANCH  27  28
ENDBRANCH  25  27
ENDBRANCH  24  25
ENDBRANCH  23  24
ENDBRANCH  20  21
ENDBRANCH   4  20
TORSDOF 11
