REMARK  Name = 
REMARK  2 active torsions:
REMARK  status: ('A' for Active; 'I' for Inactive)
REMARK    1  A    between atoms: C_4  and  N_5
REMARK    2  A    between atoms: C_20  and  C_22
REMARK                            x       y       z     vdW  Elec       q    Type
REMARK                         _______ _______ _______ _____ _____    ______ ____
ROOT
ATOM      1  N   UNL     1       5.263   2.065   0.000  0.00  0.00    +0.000 NA
ATOM      2  C   UNL     1       4.851   1.351   0.000  0.00  0.00    +0.000 A 
ATOM      3  N   UNL     1       5.263   0.636   0.000  0.00  0.00    +0.000 NA
ATOM      4  C   UNL     1       4.851  -0.078   0.000  0.00  0.00    +0.000 A 
ATOM      5  C   UNL     1       4.026  -0.078   0.000  0.00  0.00    +0.000 A 
ATOM      6  C   UNL     1       3.613   0.636   0.000  0.00  0.00    +0.000 A 
ATOM      7  N   UNL     1       4.026   1.351   0.000  0.00  0.00    +0.000 NA
ATOM      8  N   UNL     1       2.788   0.636   0.000  0.00  0.00    +0.000 N 
ATOM      9  C   UNL     1       2.430   1.380   0.000  0.00  0.00    +0.000 C 
ATOM     10  C   UNL     1       1.626   1.563   0.000  0.00  0.00    +0.000 C 
ATOM     11  C   UNL     1       0.981   1.049   0.000  0.00  0.00    +0.000 C 
ATOM     12  C   UNL     1       0.981   0.224   0.000  0.00  0.00    +0.000 C 
ATOM     13  C   UNL     1       1.626  -0.290   0.000  0.00  0.00    +0.000 C 
ATOM     14  C   UNL     1       2.430  -0.107   0.000  0.00  0.00    +0.000 C 
ATOM     15  N   UNL     1       1.394   0.636   0.000  0.00  0.00    +0.000 N 
ATOM     16  C   UNL     1       0.569   0.636   0.000  0.00  0.00    +0.000 C 
ATOM     17  O   UNL     1       0.157   1.351   0.000  0.00  0.00    +0.000 OA
ENDROOT
BRANCH   1  21
ATOM     18  C   UNL     1       8.025   1.168   0.000  0.00  0.00    +0.000 C 
ATOM     19  N   UNL     1       7.357   1.653   0.000  0.00  0.00    +0.000 N 
ATOM     20  C   UNL     1       6.573   1.398   0.000  0.00  0.00    +0.000 A 
ATOM     21  C   UNL     1       6.088   2.065   0.000  0.00  0.00    +0.000 A 
ATOM     22  C   UNL     1       6.573   2.733   0.000  0.00  0.00    +0.000 A 
ATOM     23  N   UNL     1       7.357   2.478   0.000  0.00  0.00    +0.000 NA
ENDBRANCH   1  21
BRANCH  16  24
ATOM     24  C   UNL     1       0.157  -0.078   0.000  0.00  0.00    +0.000 C 
ATOM     25  C   UNL     1       0.157  -0.903   0.000  0.00  0.00    +0.000 C 
ATOM     26  C   UNL     1      -0.558  -0.491   0.000  0.00  0.00    +0.000 C 
ATOM     27  F   UNL     1      -1.234  -0.964   0.000  0.00  0.00    +0.000 F 
ATOM     28  F   UNL     1      -1.234  -0.017   0.000  0.00  0.00    +0.000 F 
ENDBRANCH  16  24
TORSDOF 2
