REMARK  Name = 
REMARK  7 active torsions:
REMARK  status: ('A' for Active; 'I' for Inactive)
REMARK    1  A    between atoms: N_3  and  C_10
REMARK    2  A    between atoms: C_5  and  C_6
REMARK    3  A    between atoms: C_10  and  C_11
REMARK    4  A    between atoms: C_10  and  C_12
REMARK    5  A    between atoms: C_12  and  C_13
REMARK    6  A    between atoms: N_19  and  C_20
REMARK    7  A    between atoms: C_23  and  C_26
REMARK                            x       y       z     vdW  Elec       q    Type
REMARK                         _______ _______ _______ _____ _____    ______ ____
ROOT
ATOM      1  C   UNL     1      -0.999   0.028   0.000  0.00  0.00    +0.000 C 
ENDROOT
BRANCH   1   4
ATOM      2  N   UNL     1      -1.848  -1.955   0.000  0.00  0.00    +0.000 NA
ATOM      3  C   UNL     1      -1.174  -1.479   0.000  0.00  0.00    +0.000 A 
ATOM      4  N   UNL     1      -1.420  -0.686   0.000  0.00  0.00    +0.000 N 
ATOM      5  C   UNL     1      -2.245  -0.678   0.000  0.00  0.00    +0.000 A 
ATOM      6  C   UNL     1      -2.506  -1.456   0.000  0.00  0.00    +0.000 A 
BRANCH   6   7
ATOM      7  C   UNL     1      -3.228  -1.868   0.000  0.00  0.00    +0.000 C 
ATOM      8  F   UNL     1      -3.934  -1.448   0.000  0.00  0.00    +0.000 F 
ATOM      9  F   UNL     1      -3.228  -2.693   0.000  0.00  0.00    +0.000 F 
ATOM     10  F   UNL     1      -3.966  -2.249   0.000  0.00  0.00    +0.000 F 
ENDBRANCH   6   7
ENDBRANCH   1   4
BRANCH   1  11
ATOM     11  C   UNL     1      -0.174   0.020   0.000  0.00  0.00    +0.000 C 
ATOM     12  O   UNL     1       0.238  -0.702   0.000  0.00  0.00    +0.000 OA
ATOM     13  N   UNL     1       0.246   0.734   0.000  0.00  0.00    +0.000 NA
BRANCH  13  14
ATOM     14  C   UNL     1       1.071   0.726   0.000  0.00  0.00    +0.000 A 
ATOM     15  C   UNL     1       1.475   0.012   0.000  0.00  0.00    +0.000 A 
ATOM     16  C   UNL     1       2.300   0.004   0.000  0.00  0.00    +0.000 A 
ATOM     17  C   UNL     1       2.721   0.718   0.000  0.00  0.00    +0.000 A 
ATOM     18  C   UNL     1       2.308   1.440   0.000  0.00  0.00    +0.000 A 
ATOM     19  N   UNL     1       1.483   1.440   0.000  0.00  0.00    +0.000 NA
BRANCH  17  20
ATOM     20  C   UNL     1       3.546   0.710   0.000  0.00  0.00    +0.000 C 
ATOM     21  O   UNL     1       3.958  -0.004   0.000  0.00  0.00    +0.000 OA
ATOM     22  O   UNL     1       3.966   1.424   0.000  0.00  0.00    +0.000 OA
ENDBRANCH  17  20
ENDBRANCH  13  14
ENDBRANCH   1  11
BRANCH   1  23
ATOM     23  C   UNL     1      -1.404   0.742   0.000  0.00  0.00    +0.000 C 
BRANCH  23  24
ATOM     24  C   UNL     1      -0.928   1.416   0.000  0.00  0.00    +0.000 C 
ATOM     25  C   UNL     1      -0.103   1.432   0.000  0.00  0.00    +0.000 C 
ATOM     26  C   UNL     1       0.135   2.217   0.000  0.00  0.00    +0.000 C 
ATOM     27  C   UNL     1      -0.539   2.693   0.000  0.00  0.00    +0.000 C 
ATOM     28  C   UNL     1      -1.198   2.201   0.000  0.00  0.00    +0.000 C 
ENDBRANCH  23  24
ENDBRANCH   1  23
TORSDOF 7
