REMARK  Name = 
REMARK  27 active torsions:
REMARK  status: ('A' for Active; 'I' for Inactive)
REMARK    1  A    between atoms: O_2  and  C_3
REMARK    2  A    between atoms: N_7  and  C_12
REMARK    3  A    between atoms: C_14  and  C_15
REMARK    4  A    between atoms: C_17  and  O_18
REMARK    5  A    between atoms: O_18  and  P_19
REMARK    6  A    between atoms: P_19  and  O_22
REMARK    7  A    between atoms: O_22  and  C_23
REMARK    8  A    between atoms: C_23  and  C_25
REMARK    9  A    between atoms: C_25  and  N_26
REMARK   10  A    between atoms: C_27  and  C_29
REMARK   11  A    between atoms: C_29  and  C_30
REMARK   12  A    between atoms: C_30  and  C_31
REMARK   13  A    between atoms: C_33  and  C_34
REMARK   14  A    between atoms: C_34  and  C_35
REMARK   15  A    between atoms: C_56  and  C_58
REMARK   16  A    between atoms: C_58  and  C_59
REMARK   17  A    between atoms: C_62  and  C_63
REMARK   18  A    between atoms: C_63  and  C_64
REMARK   19  A    between atoms: C_64  and  C_65
REMARK   20  A    between atoms: C_69  and  C_71
REMARK   21  A    between atoms: C_71  and  C_72
REMARK   22  A    between atoms: C_75  and  C_76
REMARK   23  A    between atoms: C_76  and  C_77
REMARK   24  A    between atoms: C_77  and  C_78
REMARK   25  A    between atoms: C_84  and  C_85
REMARK   26  A    between atoms: C_85  and  C_86
REMARK   27  A    between atoms: C_86  and  C_87
REMARK                            x       y       z     vdW  Elec       q    Type
REMARK                         _______ _______ _______ _____ _____    ______ ____
ROOT
ATOM      1  C   UNL     1       2.143   1.114   0.000  0.00  0.00    +0.000 C 
ATOM      2  C   UNL     1       1.458   1.574   0.000  0.00  0.00    +0.000 C 
ATOM      3  C   UNL     1       2.717   0.521   0.000  0.00  0.00    +0.000 C 
ATOM      4  C   UNL     1       3.458   0.884   0.000  0.00  0.00    +0.000 C 
ATOM      5  N   UNL     1       3.342   1.700   0.000  0.00  0.00    +0.000 N 
ATOM      6  C   UNL     1       2.529   1.843   0.000  0.00  0.00    +0.000 C 
ATOM      7  C   UNL     1       2.220   2.860   0.000  0.00  0.00    +0.000 C 
ATOM      8  C   UNL     1       1.395   2.853   0.000  0.00  0.00    +0.000 C 
ATOM      9  C   UNL     1       2.446   3.653   0.000  0.00  0.00    +0.000 C 
ATOM     10  N   UNL     1       3.270   3.683   0.000  0.00  0.00    +0.000 N 
ATOM     11  C   UNL     1       3.497   4.476   0.000  0.00  0.00    +0.000 C 
ATOM     12  C   UNL     1       4.541   4.678   0.000  0.00  0.00    +0.000 C 
ATOM     13  C   UNL     1       5.306   4.370   0.000  0.00  0.00    +0.000 C 
ATOM     14  N   UNL     1       5.250   3.547   0.000  0.00  0.00    +0.000 N 
ATOM     15  C   UNL     1       6.015   3.239   0.000  0.00  0.00    +0.000 C 
ATOM     16  C   UNL     1       6.107   2.179   0.000  0.00  0.00    +0.000 C 
ATOM     17  C   UNL     1       6.915   2.015   0.000  0.00  0.00    +0.000 C 
ATOM     18  C   UNL     1       5.720   1.450   0.000  0.00  0.00    +0.000 C 
ATOM     19  N   UNL     1       4.907   1.593   0.000  0.00  0.00    +0.000 N 
ATOM     20  C   UNL     1       4.521   0.864   0.000  0.00  0.00    +0.000 C 
ATOM     21  C   UNL     1       4.192   0.107   0.000  0.00  0.00    +0.000 C 
ATOM     22  C   UNL     1       5.095   0.271   0.000  0.00  0.00    +0.000 C 
ATOM     23  C   UNL     1       4.445  -0.237   0.000  0.00  0.00    +0.000 C 
ATOM     24  C   UNL     1       5.836   0.634   0.000  0.00  0.00    +0.000 C 
ATOM     25 CO   UNL     1       4.192   2.631   0.000  0.00  0.00    +0.000 Co
ATOM     26  C   UNL     1       6.545   3.872   0.000  0.00  0.00    +0.000 C 
ATOM     27  C   UNL     1       7.118   3.279   0.000  0.00  0.00    +0.000 C 
ATOM     28  C   UNL     1       6.107   4.571   0.000  0.00  0.00    +0.000 C 
ATOM     29  C   UNL     1       2.812   4.937   0.000  0.00  0.00    +0.000 C 
ATOM     30  C   UNL     1       2.239   5.530   0.000  0.00  0.00    +0.000 C 
ATOM     31  C   UNL     1       3.342   5.570   0.000  0.00  0.00    +0.000 C 
ATOM     32  C   UNL     1       2.163   4.428   0.000  0.00  0.00    +0.000 C 
ENDROOT
BRANCH   3  33
ATOM     33  C   UNL     1       2.574  -0.291   0.000  0.00  0.00    +0.000 C 
BRANCH  33  34
ATOM     34  C   UNL     1       1.799  -0.575   0.000  0.00  0.00    +0.000 C 
ATOM     35  N   UNL     1       1.657  -1.387   0.000  0.00  0.00    +0.000 NA
ATOM     36  O   UNL     1       1.167  -0.045   0.000  0.00  0.00    +0.000 OA
ENDBRANCH  33  34
ENDBRANCH   3  33
BRANCH  22  37
ATOM     37  C   UNL     1       5.533  -0.428   0.000  0.00  0.00    +0.000 C 
BRANCH  37  38
ATOM     38  C   UNL     1       5.146  -1.157   0.000  0.00  0.00    +0.000 C 
ATOM     39  N   UNL     1       5.584  -1.856   0.000  0.00  0.00    +0.000 NA
ATOM     40  O   UNL     1       4.322  -1.187   0.000  0.00  0.00    +0.000 OA
ENDBRANCH  37  38
ENDBRANCH  22  37
BRANCH   1  41
ATOM     41  C   UNL     1       1.613   0.481   0.000  0.00  0.00    +0.000 C 
BRANCH  41  42
ATOM     42  C   UNL     1       0.801   0.624   0.000  0.00  0.00    +0.000 C 
BRANCH  42  44
ATOM     43  N   UNL     1      -0.541   0.133   0.000  0.00  0.00    +0.000 NA
ATOM     44  C   UNL     1       0.271  -0.009   0.000  0.00  0.00    +0.000 C 
ATOM     45  O   UNL     1       0.554  -0.784   0.000  0.00  0.00    +0.000 OA
BRANCH  43  46
ATOM     46  C   UNL     1      -1.071  -0.499   0.000  0.00  0.00    +0.000 C 
BRANCH  46  47
ATOM     47  C   UNL     1      -1.884  -0.357   0.000  0.00  0.00    +0.000 C 
ATOM     48  C   UNL     1      -2.167   0.418   0.000  0.00  0.00    +0.000 C 
BRANCH  47  49
ATOM     49  O   UNL     1      -2.413  -0.990   0.000  0.00  0.00    +0.000 OA
BRANCH  49  50
ATOM     50  P   UNL     1      -3.226  -0.847   0.000  0.00  0.00    +0.000 P 
ATOM     51  O   UNL     1      -3.368  -1.660   0.000  0.00  0.00    +0.000 OA
ATOM     52  O   UNL     1      -3.083  -0.035   0.000  0.00  0.00    +0.000 OA
BRANCH  50  53
ATOM     53  O   UNL     1      -4.038  -0.705   0.000  0.00  0.00    +0.000 OA
BRANCH  53  57
ATOM     54  C   UNL     1      -5.067  -2.576   0.000  0.00  0.00    +0.000 C 
ATOM     55  O   UNL     1      -5.699  -2.046   0.000  0.00  0.00    +0.000 OA
ATOM     56  C   UNL     1      -5.391  -1.281   0.000  0.00  0.00    +0.000 C 
ATOM     57  C   UNL     1      -4.568  -1.337   0.000  0.00  0.00    +0.000 C 
ATOM     58  C   UNL     1      -4.367  -2.138   0.000  0.00  0.00    +0.000 C 
ATOM     59  O   UNL     1      -3.602  -2.446   0.000  0.00  0.00    +0.000 OA
BRANCH  54  64
ATOM     60  C   UNL     1      -7.008  -4.984   0.000  0.00  0.00    +0.000 A 
ATOM     61  C   UNL     1      -7.208  -4.184   0.000  0.00  0.00    +0.000 A 
ATOM     62  C   UNL     1      -6.616  -3.610   0.000  0.00  0.00    +0.000 A 
ATOM     63  C   UNL     1      -5.822  -3.837   0.000  0.00  0.00    +0.000 A 
ATOM     64  N   UNL     1      -5.123  -3.399   0.000  0.00  0.00    +0.000 N 
ATOM     65  C   UNL     1      -4.491  -3.928   0.000  0.00  0.00    +0.000 A 
ATOM     66  N   UNL     1      -4.799  -4.694   0.000  0.00  0.00    +0.000 NA
ATOM     67  C   UNL     1      -5.622  -4.637   0.000  0.00  0.00    +0.000 A 
ATOM     68  C   UNL     1      -6.215  -5.211   0.000  0.00  0.00    +0.000 A 
BRANCH  60  70
ATOM     69  C   UNL     1      -7.400  -6.358   0.000  0.00  0.00    +0.000 C 
ATOM     70  O   UNL     1      -7.601  -5.558   0.000  0.00  0.00    +0.000 OA
ENDBRANCH  60  70
ENDBRANCH  54  64
BRANCH  56  71
ATOM     71  C   UNL     1      -5.829  -0.582   0.000  0.00  0.00    +0.000 C 
ATOM     72  O   UNL     1      -5.443   0.147   0.000  0.00  0.00    +0.000 OA
ENDBRANCH  56  71
ENDBRANCH  53  57
ENDBRANCH  50  53
ENDBRANCH  49  50
ENDBRANCH  47  49
ENDBRANCH  46  47
ENDBRANCH  43  46
ENDBRANCH  42  44
ENDBRANCH  41  42
ENDBRANCH   1  41
BRANCH  24  73
ATOM     73  C   UNL     1       6.565   0.247   0.000  0.00  0.00    +0.000 C 
BRANCH  73  74
ATOM     74  C   UNL     1       7.264   0.685   0.000  0.00  0.00    +0.000 C 
BRANCH  74  75
ATOM     75  C   UNL     1       7.993   0.299   0.000  0.00  0.00    +0.000 C 
ATOM     76  N   UNL     1       8.023  -0.526   0.000  0.00  0.00    +0.000 NA
ATOM     77  O   UNL     1       8.692   0.737   0.000  0.00  0.00    +0.000 OA
ENDBRANCH  74  75
ENDBRANCH  73  74
ENDBRANCH  24  73
BRANCH  26  78
ATOM     78  C   UNL     1       7.194   4.380   0.000  0.00  0.00    +0.000 C 
BRANCH  78  79
ATOM     79  C   UNL     1       7.959   4.072   0.000  0.00  0.00    +0.000 C 
ATOM     80  N   UNL     1       8.609   4.581   0.000  0.00  0.00    +0.000 NA
ATOM     81  O   UNL     1       8.075   3.255   0.000  0.00  0.00    +0.000 OA
ENDBRANCH  78  79
ENDBRANCH  26  78
BRANCH  28  82
ATOM     82  C   UNL     1       6.415   5.336   0.000  0.00  0.00    +0.000 C 
BRANCH  82  83
ATOM     83  C   UNL     1       5.906   5.985   0.000  0.00  0.00    +0.000 C 
BRANCH  83  84
ATOM     84  C   UNL     1       6.214   6.751   0.000  0.00  0.00    +0.000 C 
ATOM     85  N   UNL     1       5.706   7.400   0.000  0.00  0.00    +0.000 NA
ATOM     86  O   UNL     1       7.031   6.867   0.000  0.00  0.00    +0.000 OA
ENDBRANCH  83  84
ENDBRANCH  82  83
ENDBRANCH  28  82
BRANCH  32  87
ATOM     87  C   UNL     1       1.370   4.655   0.000  0.00  0.00    +0.000 C 
BRANCH  87  88
ATOM     88  C   UNL     1       1.169   5.455   0.000  0.00  0.00    +0.000 C 
BRANCH  88  89
ATOM     89  C   UNL     1       0.376   5.681   0.000  0.00  0.00    +0.000 C 
ATOM     90  N   UNL     1      -0.217   5.108   0.000  0.00  0.00    +0.000 NA
ATOM     91  O   UNL     1       0.175   6.482   0.000  0.00  0.00    +0.000 OA
ENDBRANCH  88  89
ENDBRANCH  87  88
ENDBRANCH  32  87
TORSDOF 27
