REMARK  Name = 
REMARK  1 active torsions:
REMARK  status: ('A' for Active; 'I' for Inactive)
REMARK    1  A    between atoms: C_1  and  C_2
REMARK                            x       y       z     vdW  Elec       q    Type
REMARK                         _______ _______ _______ _____ _____    ______ ____
ROOT
ATOM      1  C   UNL     1       0.825   0.000   0.000  0.00  0.00    +0.000 C 
ATOM      2  F   UNL     1       0.825   0.825   0.000  0.00  0.00    +0.000 F 
ATOM      3  F   UNL     1       1.650   0.000   0.000  0.00  0.00    +0.000 F 
ATOM      4  F   UNL     1       0.000   0.000   0.000  0.00  0.00    +0.000 F 
ENDROOT
BRANCH   1   5
ATOM      5  C   UNL     1       0.825  -0.825   0.000  0.00  0.00    +0.000 C 
ATOM      6  F   UNL     1       0.111  -1.238   0.000  0.00  0.00    +0.000 F 
ENDBRANCH   1   5
TORSDOF 1
