REMARK  Name = 
REMARK  0 active torsions:
REMARK  status: ('A' for Active; 'I' for Inactive)
REMARK                            x       y       z     vdW  Elec       q    Type
REMARK                         _______ _______ _______ _____ _____    ______ ____
ROOT
ATOM      1  C   UNL     1       0.444  -0.733   0.000  0.00  0.00    +0.000 A 
ATOM      2  C   UNL     1       0.467   0.098   0.000  0.00  0.00    +0.000 A 
ATOM      3  S   UNL     1       1.242  -1.004   0.000  0.00  0.00    +0.000 S 
ATOM      4  C   UNL     1      -0.286  -1.117   0.000  0.00  0.00    +0.000 A 
ATOM      5  C   UNL     1       1.279   0.316   0.000  0.00  0.00    +0.000 A 
ATOM      6  C   UNL     1      -0.223   0.533   0.000  0.00  0.00    +0.000 A 
ATOM      7  N   UNL     1       1.741  -0.382   0.000  0.00  0.00    +0.000 NA
ATOM      8  C   UNL     1      -0.982  -0.682   0.000  0.00  0.00    +0.000 A 
ATOM      9  O   UNL     1       1.551   1.117   0.000  0.00  0.00    +0.000 OA
ATOM     10  C   UNL     1      -0.982   0.141   0.000  0.00  0.00    +0.000 A 
ATOM     11 CL   UNL     1      -1.741  -1.076   0.000  0.00  0.00    +0.000 Cl
ENDROOT
TORSDOF 0
