REMARK  Name = 
REMARK  3 active torsions:
REMARK  status: ('A' for Active; 'I' for Inactive)
REMARK    1  A    between atoms: C_5  and  C_6
REMARK    2  A    between atoms: C_14  and  C_15
REMARK    3  A    between atoms: C_23  and  C_24
REMARK                            x       y       z     vdW  Elec       q    Type
REMARK                         _______ _______ _______ _____ _____    ______ ____
ROOT
ATOM      1  C   UNL     1       0.857  -1.238   0.000  0.00  0.00    +0.000 A 
ATOM      2  C   UNL     1       0.857  -0.412   0.000  0.00  0.00    +0.000 A 
ATOM      3  C   UNL     1       0.143  -1.650   0.000  0.00  0.00    +0.000 A 
ATOM      4  C   UNL     1      -0.572  -0.412   0.000  0.00  0.00    +0.000 A 
ATOM      5  C   UNL     1       0.143   0.000   0.000  0.00  0.00    +0.000 A 
ATOM      6  N   UNL     1      -0.572  -1.238   0.000  0.00  0.00    +0.000 NA
ENDROOT
BRANCH   5   7
ATOM      7  C   UNL     1       0.143   0.825   0.000  0.00  0.00    +0.000 C 
ATOM      8  O   UNL     1       0.857   1.238   0.000  0.00  0.00    +0.000 OA
ATOM      9  O   UNL     1      -0.572   1.238   0.000  0.00  0.00    +0.000 OA
ENDBRANCH   5   7
TORSDOF 1
REMARK  Name = 
REMARK  3 active torsions:
REMARK  status: ('A' for Active; 'I' for Inactive)
REMARK    1  A    between atoms: C_5  and  C_6
REMARK    2  A    between atoms: C_14  and  C_15
REMARK    3  A    between atoms: C_23  and  C_24
REMARK                            x       y       z     vdW  Elec       q    Type
REMARK                         _______ _______ _______ _____ _____    ______ ____
ROOT
ATOM      1  C   UNL     1       4.172  -1.054   0.000  0.00  0.00    +0.000 A 
ATOM      2  C   UNL     1       4.172  -0.229   0.000  0.00  0.00    +0.000 A 
ATOM      3  C   UNL     1       3.458  -1.467   0.000  0.00  0.00    +0.000 A 
ATOM      4  C   UNL     1       2.743  -0.229   0.000  0.00  0.00    +0.000 A 
ATOM      5  C   UNL     1       3.458   0.183   0.000  0.00  0.00    +0.000 A 
ATOM      6  N   UNL     1       2.743  -1.054   0.000  0.00  0.00    +0.000 NA
ENDROOT
BRANCH   5   7
ATOM      7  C   UNL     1       3.458   1.008   0.000  0.00  0.00    +0.000 C 
ATOM      8  O   UNL     1       2.743   1.421   0.000  0.00  0.00    +0.000 OA
ATOM      9  O   UNL     1       4.172   1.421   0.000  0.00  0.00    +0.000 OA
ENDBRANCH   5   7
TORSDOF 1
REMARK  Name = 
REMARK  3 active torsions:
REMARK  status: ('A' for Active; 'I' for Inactive)
REMARK    1  A    between atoms: C_5  and  C_6
REMARK    2  A    between atoms: C_14  and  C_15
REMARK    3  A    between atoms: C_23  and  C_24
REMARK                            x       y       z     vdW  Elec       q    Type
REMARK                         _______ _______ _______ _____ _____    ______ ____
ROOT
ATOM      1  C   UNL     1       0.715  -5.775   0.000  0.00  0.00    +0.000 A 
ATOM      2  C   UNL     1       0.715  -4.950   0.000  0.00  0.00    +0.000 A 
ATOM      3  C   UNL     1       0.000  -6.188   0.000  0.00  0.00    +0.000 A 
ATOM      4  C   UNL     1      -0.715  -4.950   0.000  0.00  0.00    +0.000 A 
ATOM      5  C   UNL     1       0.000  -4.537   0.000  0.00  0.00    +0.000 A 
ATOM      6  N   UNL     1      -0.715  -5.775   0.000  0.00  0.00    +0.000 NA
ENDROOT
BRANCH   5   7
ATOM      7  C   UNL     1       0.000  -3.712   0.000  0.00  0.00    +0.000 C 
ATOM      8  O   UNL     1      -0.715  -3.300   0.000  0.00  0.00    +0.000 OA
ATOM      9  O   UNL     1       0.715  -3.300   0.000  0.00  0.00    +0.000 OA
ENDBRANCH   5   7
TORSDOF 1
REMARK  Name = 
REMARK  3 active torsions:
REMARK  status: ('A' for Active; 'I' for Inactive)
REMARK    1  A    between atoms: C_5  and  C_6
REMARK    2  A    between atoms: C_14  and  C_15
REMARK    3  A    between atoms: C_23  and  C_24
REMARK                            x       y       z     vdW  Elec       q    Type
REMARK                         _______ _______ _______ _____ _____    ______ ____
ROOT
ATOM      1 AL   UNL     1      -1.286   1.650   0.000  0.00  0.00    +0.000 Al
ENDROOT
TORSDOF 0
