REMARK  Name = 
REMARK  10 active torsions:
REMARK  status: ('A' for Active; 'I' for Inactive)
REMARK    1  A    between atoms: C_2  and  C_3
REMARK    2  A    between atoms: C_3  and  N_4
REMARK    3  A    between atoms: N_4  and  C_11
REMARK    4  A    between atoms: C_5  and  C_6
REMARK    5  A    between atoms: C_6  and  C_7
REMARK    6  A    between atoms: C_6  and  N_15
REMARK    7  A    between atoms: C_7  and  C_8
REMARK    8  A    between atoms: C_8  and  C_9
REMARK    9  A    between atoms: C_11  and  C_12
REMARK   10  A    between atoms: C_16  and  C_17
REMARK                            x       y       z     vdW  Elec       q    Type
REMARK                         _______ _______ _______ _____ _____    ______ ____
ROOT
ATOM      1  C   UNL     1       0.356   1.234   0.000  0.00  0.00    +0.000 C 
ENDROOT
BRANCH   1   2
ATOM      2  N   UNL     1       0.358   0.408   0.000  0.00  0.00    +0.000 NA
ATOM      3  C   UNL     1       1.075  -0.003   0.000  0.00  0.00    +0.000 C 
ATOM      4  O   UNL     1       1.789   0.411   0.000  0.00  0.00    +0.000 OA
BRANCH   3   5
ATOM      5  C   UNL     1       1.076  -0.829   0.000  0.00  0.00    +0.000 A 
ATOM      6  C   UNL     1       0.363  -1.240   0.000  0.00  0.00    +0.000 A 
ATOM      7  C   UNL     1       0.365  -2.066   0.000  0.00  0.00    +0.000 A 
ATOM      8  C   UNL     1       1.081  -2.477   0.000  0.00  0.00    +0.000 A 
ATOM      9  C   UNL     1       1.795  -2.062   0.000  0.00  0.00    +0.000 A 
ATOM     10  C   UNL     1       1.794  -1.236   0.000  0.00  0.00    +0.000 A 
ENDBRANCH   3   5
ENDBRANCH   1   2
BRANCH   1  12
ATOM     11  N   UNL     1      -1.070   1.230   0.000  0.00  0.00    +0.000 N 
ATOM     12  C   UNL     1      -0.356   1.643   0.000  0.00  0.00    +0.000 C 
ATOM     13  O   UNL     1      -0.358   2.468   0.000  0.00  0.00    +0.000 OA
BRANCH  11  14
ATOM     14  C   UNL     1      -1.068   0.404   0.000  0.00  0.00    +0.000 C 
BRANCH  14  15
ATOM     15  C   UNL     1      -1.782  -0.011   0.000  0.00  0.00    +0.000 C 
ATOM     16  C   UNL     1      -1.780  -0.836   0.000  0.00  0.00    +0.000 C 
ENDBRANCH  14  15
ENDBRANCH  11  14
BRANCH  11  17
ATOM     17  C   UNL     1      -1.783   1.639   0.000  0.00  0.00    +0.000 C 
BRANCH  17  19
ATOM     18  C   UNL     1      -3.209   1.634   0.000  0.00  0.00    +0.000 C 
ATOM     19  C   UNL     1      -2.496   1.226   0.000  0.00  0.00    +0.000 C 
ENDBRANCH  17  19
ENDBRANCH  11  17
ENDBRANCH   1  12
BRANCH   1  20
ATOM     20  C   UNL     1       1.070   1.647   0.000  0.00  0.00    +0.000 C 
BRANCH  20  21
ATOM     21  C   UNL     1       1.783   1.238   0.000  0.00  0.00    +0.000 C 
BRANCH  21  22
ATOM     22  C   UNL     1       2.496   1.651   0.000  0.00  0.00    +0.000 C 
ATOM     23  O   UNL     1       3.209   1.242   0.000  0.00  0.00    +0.000 OA
ATOM     24  O   UNL     1       2.494   2.477   0.000  0.00  0.00    +0.000 OA
ENDBRANCH  21  22
ENDBRANCH  20  21
ENDBRANCH   1  20
TORSDOF 10
