REMARK  Name = 
REMARK  9 active torsions:
REMARK  status: ('A' for Active; 'I' for Inactive)
REMARK    1  A    between atoms: C_2  and  N_3
REMARK    2  A    between atoms: C_2  and  C_10
REMARK    3  A    between atoms: C_4  and  C_6
REMARK    4  A    between atoms: C_10  and  O_11
REMARK    5  A    between atoms: C_10  and  C_35
REMARK    6  A    between atoms: O_11  and  C_12
REMARK    7  A    between atoms: N_16  and  C_21
REMARK    8  A    between atoms: C_23  and  C_27
REMARK    9  A    between atoms: N_29  and  C_30
REMARK                            x       y       z     vdW  Elec       q    Type
REMARK                         _______ _______ _______ _____ _____    ______ ____
ROOT
ATOM      1  C   UNL     1      -0.715  -2.888   0.000  0.00  0.00    +0.000 A 
ATOM      2  C   UNL     1      -0.715  -3.712   0.000  0.00  0.00    +0.000 A 
ATOM      3  C   UNL     1      -1.429  -4.125   0.000  0.00  0.00    +0.000 A 
ATOM      4  C   UNL     1      -2.143  -3.712   0.000  0.00  0.00    +0.000 A 
ATOM      5  N   UNL     1      -2.928  -3.967   0.000  0.00  0.00    +0.000 N 
ATOM      6  N   UNL     1      -3.413  -3.300   0.000  0.00  0.00    +0.000 NA
ATOM      7  C   UNL     1      -2.928  -2.633   0.000  0.00  0.00    +0.000 A 
ATOM      8  C   UNL     1      -2.143  -2.888   0.000  0.00  0.00    +0.000 A 
ATOM      9  C   UNL     1      -1.429  -2.475   0.000  0.00  0.00    +0.000 A 
ENDROOT
BRANCH   5  10
ATOM     10  C   UNL     1      -3.183  -4.752   0.000  0.00  0.00    +0.000 A 
ATOM     11  C   UNL     1      -3.990  -4.924   0.000  0.00  0.00    +0.000 A 
ATOM     12  C   UNL     1      -4.245  -5.708   0.000  0.00  0.00    +0.000 A 
ATOM     13  C   UNL     1      -3.693  -6.321   0.000  0.00  0.00    +0.000 A 
ATOM     14  C   UNL     1      -2.886  -6.150   0.000  0.00  0.00    +0.000 A 
ATOM     15  C   UNL     1      -2.631  -5.365   0.000  0.00  0.00    +0.000 A 
BRANCH  12  16
ATOM     16  C   UNL     1      -5.052  -5.880   0.000  0.00  0.00    +0.000 C 
ATOM     17  O   UNL     1      -5.307  -6.664   0.000  0.00  0.00    +0.000 OA
ATOM     18  N   UNL     1      -5.604  -5.267   0.000  0.00  0.00    +0.000 NA
BRANCH  18  19
ATOM     19  C   UNL     1      -6.411  -5.438   0.000  0.00  0.00    +0.000 C 
ATOM     20  C   UNL     1      -6.746  -6.192   0.000  0.00  0.00    +0.000 C 
ATOM     21  C   UNL     1      -7.567  -6.106   0.000  0.00  0.00    +0.000 C 
ATOM     22  O   UNL     1      -7.738  -5.299   0.000  0.00  0.00    +0.000 OA
ATOM     23  C   UNL     1      -7.024  -4.886   0.000  0.00  0.00    +0.000 C 
ENDBRANCH  18  19
ENDBRANCH  12  16
ENDBRANCH   5  10
BRANCH   1  24
ATOM     24  O   UNL     1       0.000  -2.475   0.000  0.00  0.00    +0.000 OA
BRANCH  24  25
ATOM     25  C   UNL     1       0.000  -1.650   0.000  0.00  0.00    +0.000 C 
BRANCH  25  26
ATOM     26  C   UNL     1       0.715  -1.238   0.000  0.00  0.00    +0.000 A 
ATOM     27  C   UNL     1       0.715  -0.412   0.000  0.00  0.00    +0.000 A 
ATOM     28  C   UNL     1       1.429   0.000   0.000  0.00  0.00    +0.000 A 
ATOM     29  C   UNL     1       2.143  -0.412   0.000  0.00  0.00    +0.000 A 
ATOM     30  O   UNL     1       2.858   0.000   0.000  0.00  0.00    +0.000 OA
ATOM     31  C   UNL     1       3.572  -0.412   0.000  0.00  0.00    +0.000 C 
ATOM     32  C   UNL     1       3.572  -1.238   0.000  0.00  0.00    +0.000 C 
ATOM     33  O   UNL     1       2.858  -1.650   0.000  0.00  0.00    +0.000 OA
ATOM     34  C   UNL     1       2.143  -1.238   0.000  0.00  0.00    +0.000 A 
ATOM     35  C   UNL     1       1.429  -1.650   0.000  0.00  0.00    +0.000 A 
ENDBRANCH  25  26
BRANCH  25  37
ATOM     36  C   UNL     1      -1.429  -1.650   0.000  0.00  0.00    +0.000 C 
ATOM     37  C   UNL     1      -0.715  -1.238   0.000  0.00  0.00    +0.000 C 
BRANCH  37  38
ATOM     38  N   UNL     1      -0.715  -0.412   0.000  0.00  0.00    +0.000 NA
ATOM     39  C   UNL     1      -1.429   0.000   0.000  0.00  0.00    +0.000 C 
ATOM     40  O   UNL     1      -2.143  -0.412   0.000  0.00  0.00    +0.000 OA
BRANCH  39  41
ATOM     41  C   UNL     1      -1.429   0.825   0.000  0.00  0.00    +0.000 C 
ATOM     42  C   UNL     1      -0.604   0.825   0.000  0.00  0.00    +0.000 C 
ATOM     43  F   UNL     1      -2.254   0.825   0.000  0.00  0.00    +0.000 F 
ATOM     44  F   UNL     1      -1.429   1.650   0.000  0.00  0.00    +0.000 F 
ENDBRANCH  39  41
ENDBRANCH  37  38
ENDBRANCH  25  37
ENDBRANCH  24  25
ENDBRANCH   1  24
TORSDOF 9
