REMARK  Name = 
REMARK  4 active torsions:
REMARK  status: ('A' for Active; 'I' for Inactive)
REMARK    1  A    between atoms: C_18  and  C_19
REMARK    2  A    between atoms: C_19  and  C_20
REMARK    3  A    between atoms: C_20  and  C_21
REMARK    4  A    between atoms: C_21  and  C_22
REMARK                            x       y       z     vdW  Elec       q    Type
REMARK                         _______ _______ _______ _____ _____    ______ ____
ROOT
ATOM      1  C   UNL     1      -2.145  -0.004   0.000  0.00  0.00    +0.000 A 
ATOM      2  C   UNL     1      -1.430  -0.409   0.000  0.00  0.00    +0.000 A 
ATOM      3  C   UNL     1      -2.856  -0.416   0.000  0.00  0.00    +0.000 A 
ATOM      4  C   UNL     1      -2.145   0.825   0.000  0.00  0.00    +0.000 A 
ATOM      5  C   UNL     1      -1.426  -1.241   0.000  0.00  0.00    +0.000 A 
ATOM      6  C   UNL     1      -0.715   0.003   0.000  0.00  0.00    +0.000 A 
ATOM      7  C   UNL     1      -2.853  -1.244   0.000  0.00  0.00    +0.000 C 
ATOM      8  C   UNL     1      -3.571  -0.004   0.000  0.00  0.00    +0.000 A 
ATOM      9  C   UNL     1      -2.856   1.241   0.000  0.00  0.00    +0.000 A 
ATOM     10  O   UNL     1      -2.142  -1.653   0.000  0.00  0.00    +0.000 OA
ATOM     11  C   UNL     1      -0.712  -1.650   0.000  0.00  0.00    +0.000 A 
ATOM     12  C   UNL     1       0.003  -0.409   0.000  0.00  0.00    +0.000 A 
ATOM     13  O   UNL     1      -0.715   0.828   0.000  0.00  0.00    +0.000 OA
ATOM     14  C   UNL     1      -2.860  -2.066   0.000  0.00  0.00    +0.000 C 
ATOM     15  C   UNL     1      -3.571  -0.825   0.000  0.00  0.00    +0.000 C 
ATOM     16  C   UNL     1      -3.571   0.825   0.000  0.00  0.00    +0.000 A 
ATOM     17  C   UNL     1      -2.853   2.066   0.000  0.00  0.00    +0.000 C 
ATOM     18  C   UNL     1       0.003  -1.234   0.000  0.00  0.00    +0.000 A 
ENDROOT
BRANCH  18  19
ATOM     19  C   UNL     1       0.719  -1.643   0.000  0.00  0.00    +0.000 C 
BRANCH  19  20
ATOM     20  C   UNL     1       1.433  -1.227   0.000  0.00  0.00    +0.000 C 
BRANCH  20  21
ATOM     21  C   UNL     1       2.145  -1.640   0.000  0.00  0.00    +0.000 C 
BRANCH  21  22
ATOM     22  C   UNL     1       2.857  -1.224   0.000  0.00  0.00    +0.000 C 
ATOM     23  C   UNL     1       3.571  -1.633   0.000  0.00  0.00    +0.000 C 
ENDBRANCH  21  22
ENDBRANCH  20  21
ENDBRANCH  19  20
ENDBRANCH  18  19
TORSDOF 4
