REMARK  Name = 
REMARK  1 active torsions:
REMARK  status: ('A' for Active; 'I' for Inactive)
REMARK    1  A    between atoms: N_1  and  C_7
REMARK                            x       y       z     vdW  Elec       q    Type
REMARK                         _______ _______ _______ _____ _____    ______ ____
ROOT
ATOM      1  C   UNL     1      -0.893  -0.258   0.000  0.00  0.00    +0.000 A 
ATOM      2  C   UNL     1      -0.178   0.154   0.000  0.00  0.00    +0.000 A 
ATOM      3  C   UNL     1      -0.178   0.979   0.000  0.00  0.00    +0.000 A 
ATOM      4  C   UNL     1      -0.893   1.392   0.000  0.00  0.00    +0.000 A 
ATOM      5  C   UNL     1      -1.607   0.979   0.000  0.00  0.00    +0.000 A 
ATOM      6  C   UNL     1      -1.607   0.154   0.000  0.00  0.00    +0.000 A 
ATOM      7 CL   UNL     1       0.536   1.391   0.000  0.00  0.00    +0.000 Cl
ENDROOT
BRANCH   1   8
ATOM      8  N   UNL     1      -0.893  -1.083   0.000  0.00  0.00    +0.000 N 
ATOM      9  C   UNL     1      -1.607  -1.496   0.000  0.00  0.00    +0.000 C 
ATOM     10  C   UNL     1      -1.607  -2.321   0.000  0.00  0.00    +0.000 C 
ATOM     11  N   UNL     1      -0.893  -2.733   0.000  0.00  0.00    +0.000 NA
ATOM     12  C   UNL     1      -0.178  -2.321   0.000  0.00  0.00    +0.000 C 
ATOM     13  C   UNL     1      -0.178  -1.496   0.000  0.00  0.00    +0.000 C 
ENDBRANCH   1   8
TORSDOF 1
