REMARK  Name = 
REMARK  8 active torsions:
REMARK  status: ('A' for Active; 'I' for Inactive)
REMARK    1  A    between atoms: C_2  and  C_5
REMARK    2  A    between atoms: C_6  and  C_7
REMARK    3  A    between atoms: C_7  and  O_9
REMARK    4  A    between atoms: O_9  and  C_10
REMARK    5  A    between atoms: C_12  and  C_15
REMARK    6  A    between atoms: C_16  and  C_17
REMARK    7  A    between atoms: C_17  and  O_19
REMARK    8  A    between atoms: O_19  and  C_20
REMARK                            x       y       z     vdW  Elec       q    Type
REMARK                         _______ _______ _______ _____ _____    ______ ____
ROOT
ATOM      1 MG   UNL     1      -2.723  -2.223   0.000  0.00  0.00    +0.000 Mg
ENDROOT
TORSDOF 0
REMARK  Name = 
REMARK  8 active torsions:
REMARK  status: ('A' for Active; 'I' for Inactive)
REMARK    1  A    between atoms: C_2  and  C_5
REMARK    2  A    between atoms: C_6  and  C_7
REMARK    3  A    between atoms: C_7  and  O_9
REMARK    4  A    between atoms: O_9  and  C_10
REMARK    5  A    between atoms: C_12  and  C_15
REMARK    6  A    between atoms: C_16  and  C_17
REMARK    7  A    between atoms: C_17  and  O_19
REMARK    8  A    between atoms: O_19  and  C_20
REMARK                            x       y       z     vdW  Elec       q    Type
REMARK                         _______ _______ _______ _____ _____    ______ ____
ROOT
ATOM      1  C   UNL     1       1.839   0.356   0.000  0.00  0.00    +0.000 C 
ATOM      2  C   UNL     1       1.014   0.356   0.000  0.00  0.00    +0.000 C 
ENDROOT
BRANCH   1   3
ATOM      3  C   UNL     1       2.254   1.069   0.000  0.00  0.00    +0.000 C 
ATOM      4  O   UNL     1       3.080   1.069   0.000  0.00  0.00    +0.000 OA
ATOM      5  O   UNL     1       1.839   1.787   0.000  0.00  0.00    +0.000 OA
ENDBRANCH   1   3
BRANCH   2   6
ATOM      6  C   UNL     1       0.604  -0.356   0.000  0.00  0.00    +0.000 C 
ATOM      7  O   UNL     1       1.014  -1.074   0.000  0.00  0.00    +0.000 OA
BRANCH   6   8
ATOM      8  O   UNL     1      -0.222  -0.356   0.000  0.00  0.00    +0.000 OA
BRANCH   8   9
ATOM      9  C   UNL     1      -0.636  -1.074   0.000  0.00  0.00    +0.000 C 
ATOM     10  C   UNL     1      -0.222  -1.787   0.000  0.00  0.00    +0.000 C 
ENDBRANCH   8   9
ENDBRANCH   6   8
ENDBRANCH   2   6
TORSDOF 4
REMARK  Name = 
REMARK  8 active torsions:
REMARK  status: ('A' for Active; 'I' for Inactive)
REMARK    1  A    between atoms: C_2  and  C_5
REMARK    2  A    between atoms: C_6  and  C_7
REMARK    3  A    between atoms: C_7  and  O_9
REMARK    4  A    between atoms: O_9  and  C_10
REMARK    5  A    between atoms: C_12  and  C_15
REMARK    6  A    between atoms: C_16  and  C_17
REMARK    7  A    between atoms: C_17  and  O_19
REMARK    8  A    between atoms: O_19  and  C_20
REMARK                            x       y       z     vdW  Elec       q    Type
REMARK                         _______ _______ _______ _____ _____    ______ ____
ROOT
ATOM      1  C   UNL     1       3.090  -2.524   0.000  0.00  0.00    +0.000 C 
ATOM      2  C   UNL     1       2.265  -2.524   0.000  0.00  0.00    +0.000 C 
ENDROOT
BRANCH   1   3
ATOM      3  C   UNL     1       3.505  -1.811   0.000  0.00  0.00    +0.000 C 
ATOM      4  O   UNL     1       4.330  -1.811   0.000  0.00  0.00    +0.000 OA
ATOM      5  O   UNL     1       3.090  -1.093   0.000  0.00  0.00    +0.000 OA
ENDBRANCH   1   3
BRANCH   2   6
ATOM      6  C   UNL     1       1.854  -3.237   0.000  0.00  0.00    +0.000 C 
ATOM      7  O   UNL     1       2.265  -3.954   0.000  0.00  0.00    +0.000 OA
BRANCH   6   8
ATOM      8  O   UNL     1       1.029  -3.237   0.000  0.00  0.00    +0.000 OA
BRANCH   8   9
ATOM      9  C   UNL     1       0.614  -3.954   0.000  0.00  0.00    +0.000 C 
ATOM     10  C   UNL     1       1.029  -4.667   0.000  0.00  0.00    +0.000 C 
ENDBRANCH   8   9
ENDBRANCH   6   8
ENDBRANCH   2   6
TORSDOF 4
