REMARK  Name = 
REMARK  6 active torsions:
REMARK  status: ('A' for Active; 'I' for Inactive)
REMARK    1  A    between atoms: C_3  and  C_4
REMARK    2  A    between atoms: C_4  and  O_5
REMARK    3  A    between atoms: O_5  and  C_6
REMARK    4  A    between atoms: C_6  and  O_7
REMARK    5  A    between atoms: O_7  and  C_8
REMARK    6  A    between atoms: C_8  and  C_9
REMARK                            x       y       z     vdW  Elec       q    Type
REMARK                         _______ _______ _______ _____ _____    ______ ____
ROOT
ATOM      1  S   UNL     1      -1.041   1.302   0.000  0.00  0.00    +0.000 S 
ATOM      2  C   UNL     1      -0.551   0.633   0.000  0.00  0.00    +0.000 C 
ATOM      3  C   UNL     1      -1.034  -0.038   0.000  0.00  0.00    +0.000 C 
ATOM      4  N   UNL     1      -1.827   0.214   0.000  0.00  0.00    +0.000 N 
ATOM      5  C   UNL     1      -1.825   1.039   0.000  0.00  0.00    +0.000 C 
ATOM      6  C   UNL     1      -2.650   1.041   0.000  0.00  0.00    +0.000 C 
ATOM      7  C   UNL     1      -2.651   0.216   0.000  0.00  0.00    +0.000 C 
ATOM      8  O   UNL     1      -3.237  -0.361   0.000  0.00  0.00    +0.000 OA
ATOM      9  C   UNL     1       0.032   0.048   0.000  0.00  0.00    +0.000 C 
ATOM     10  C   UNL     1       0.034   1.220   0.000  0.00  0.00    +0.000 C 
ATOM     11  O   UNL     1      -1.261   2.104   0.000  0.00  0.00    +0.000 OA
ATOM     12  O   UNL     1      -0.460   1.889   0.000  0.00  0.00    +0.000 OA
ENDROOT
BRANCH   3  13
ATOM     13  C   UNL     1      -1.036  -0.863   0.000  0.00  0.00    +0.000 C 
ATOM     14  O   UNL     1      -1.765  -1.269   0.000  0.00  0.00    +0.000 OA
BRANCH  13  15
ATOM     15  O   UNL     1      -0.328  -1.277   0.000  0.00  0.00    +0.000 OA
BRANCH  15  16
ATOM     16  C   UNL     1       0.386  -0.857   0.000  0.00  0.00    +0.000 C 
BRANCH  16  17
ATOM     17  O   UNL     1       1.099  -1.276   0.000  0.00  0.00    +0.000 OA
BRANCH  17  18
ATOM     18  C   UNL     1       1.814  -0.860   0.000  0.00  0.00    +0.000 C 
ATOM     19  O   UNL     1       1.816  -0.035   0.000  0.00  0.00    +0.000 OA
BRANCH  18  20
ATOM     20  C   UNL     1       2.522  -1.279   0.000  0.00  0.00    +0.000 C 
ATOM     21  C   UNL     1       3.235  -1.693   0.000  0.00  0.00    +0.000 C 
ATOM     22  C   UNL     1       3.237  -0.864   0.000  0.00  0.00    +0.000 C 
ATOM     23  C   UNL     1       2.520  -2.104   0.000  0.00  0.00    +0.000 C 
ENDBRANCH  18  20
ENDBRANCH  17  18
ENDBRANCH  16  17
ENDBRANCH  15  16
ENDBRANCH  13  15
ENDBRANCH   3  13
TORSDOF 6
