REMARK  Name = 
REMARK  7 active torsions:
REMARK  status: ('A' for Active; 'I' for Inactive)
REMARK    1  A    between atoms: C_1  and  C_3
REMARK    2  A    between atoms: N_2  and  CA_6
REMARK    3  A    between atoms: C_3  and  C_7
REMARK    4  A    between atoms: C_3  and  C_9
REMARK    5  A    between atoms: C_4  and  CA_6
REMARK    6  A    between atoms: C_5  and  C_7
REMARK    7  A    between atoms: C_9  and  C_14
REMARK                            x       y       z     vdW  Elec       q    Type
REMARK                         _______ _______ _______ _____ _____    ______ ____
ROOT
ATOM      1  C   UNK A   0      -0.357   0.618   0.000  0.00  0.00    +0.000 C 
ENDROOT
BRANCH   1   2
ATOM      2  C   UNK A   0       0.357   1.031   0.000  0.00  0.00    +0.000 C 
ATOM      3  N   ALA A   1       1.071   0.618   0.000  0.00  0.00    +0.000 NA
ATOM      4  O   UNK A   0       0.357   1.858   0.000  0.00  0.00    +0.000 OA
BRANCH   3   5
ATOM      5  CA  ALA A   1       1.785   1.031   0.000  0.00  0.00    +0.000 C 
ATOM      6  CB  ALA A   1       1.785   1.858   0.000  0.00  0.00    +0.000 C 
BRANCH   5   7
ATOM      7  C   ALA A   1       2.499   0.618   0.000  0.00  0.00    +0.000 C 
ATOM      8  O   ALA A   1       2.499  -0.209   0.000  0.00  0.00    +0.000 OA
ATOM      9  OXT ALA A   1       3.213   1.031   0.000  0.00  0.00    +0.000 OA
ENDBRANCH   5   7
ENDBRANCH   3   5
ENDBRANCH   1   2
BRANCH   1  10
ATOM     10  C   UNK A   0      -1.071   1.031   0.000  0.00  0.00    +0.000 C 
BRANCH  10  11
ATOM     11  C   UNK A   0      -1.785   0.618   0.000  0.00  0.00    +0.000 C 
ATOM     12  O   UNK A   0      -1.785  -0.209   0.000  0.00  0.00    +0.000 OA
ATOM     13  N   UNK A   0      -2.499   1.031   0.000  0.00  0.00    +0.000 NA
ATOM     14  O   UNK A   0      -3.213   0.618   0.000  0.00  0.00    +0.000 OA
ENDBRANCH  10  11
ENDBRANCH   1  10
BRANCH   1  15
ATOM     15  C   UNK A   0      -0.357  -0.209   0.000  0.00  0.00    +0.000 C 
BRANCH  15  16
ATOM     16  C   UNK A   0       0.357  -0.622   0.000  0.00  0.00    +0.000 A 
ATOM     17  C   UNK A   0       1.071  -0.209   0.000  0.00  0.00    +0.000 A 
ATOM     18  C   UNK A   0       0.357  -1.445   0.000  0.00  0.00    +0.000 A 
ATOM     19  C   UNK A   0       1.067  -1.858   0.000  0.00  0.00    +0.000 A 
ATOM     20  C   UNK A   0       1.781  -0.618   0.000  0.00  0.00    +0.000 A 
ATOM     21  C   UNK A   0       1.785  -1.449   0.000  0.00  0.00    +0.000 A 
ENDBRANCH  15  16
ENDBRANCH   1  15
TORSDOF 7
