REMARK  Name = 
REMARK  11 active torsions:
REMARK  status: ('A' for Active; 'I' for Inactive)
REMARK    1  A    between atoms: C_2  and  C_3
REMARK    2  A    between atoms: C_3  and  C_4
REMARK    3  A    between atoms: C_4  and  C_5
REMARK    4  A    between atoms: C_4  and  N_23
REMARK    5  A    between atoms: N_7  and  C_8
REMARK    6  A    between atoms: N_10  and  C_13
REMARK    7  A    between atoms: C_13  and  C_16
REMARK    8  A    between atoms: C_16  and  N_17
REMARK    9  A    between atoms: N_17  and  C_18
REMARK   10  A    between atoms: C_18  and  C_19
REMARK   11  A    between atoms: N_23  and  C_24
REMARK                            x       y       z     vdW  Elec       q    Type
REMARK                         _______ _______ _______ _____ _____    ______ ____
ROOT
ATOM      1  C   UNL     1       4.920  -0.715   0.000  0.00  0.00    +0.000 C 
ATOM      2  O   UNL     1       5.333  -1.429   0.000  0.00  0.00    +0.000 OA
ATOM      3  N   UNL     1       5.333   0.000   0.000  0.00  0.00    +0.000 NA
ENDROOT
BRANCH   3   4
ATOM      4  C   UNL     1       6.158   0.000   0.000  0.00  0.00    +0.000 A 
ATOM      5  C   UNL     1       6.643   0.667   0.000  0.00  0.00    +0.000 A 
ATOM      6  N   UNL     1       7.427   0.412   0.000  0.00  0.00    +0.000 N 
ATOM      7  C   UNL     1       7.427  -0.412   0.000  0.00  0.00    +0.000 A 
ATOM      8  N   UNL     1       6.643  -0.667   0.000  0.00  0.00    +0.000 NA
BRANCH   6   9
ATOM      9  C   UNL     1       8.095   0.897   0.000  0.00  0.00    +0.000 C 
ATOM     10  C   UNL     1       7.610   1.565   0.000  0.00  0.00    +0.000 C 
ATOM     11  C   UNL     1       8.580   0.230   0.000  0.00  0.00    +0.000 C 
BRANCH   9  12
ATOM     12  C   UNL     1       8.762   1.382   0.000  0.00  0.00    +0.000 C 
BRANCH  12  13
ATOM     13  N   UNL     1       9.516   1.047   0.000  0.00  0.00    +0.000 NA
BRANCH  13  14
ATOM     14  C   UNL     1      10.183   1.532   0.000  0.00  0.00    +0.000 C 
BRANCH  14  15
ATOM     15  C   UNL     1      10.937   1.196   0.000  0.00  0.00    +0.000 C 
ATOM     16  C   UNL     1      11.691   0.861   0.000  0.00  0.00    +0.000 C 
ATOM     17  C   UNL     1      11.273   1.950   0.000  0.00  0.00    +0.000 C 
ATOM     18  C   UNL     1      10.601   0.443   0.000  0.00  0.00    +0.000 C 
ENDBRANCH  14  15
ENDBRANCH  13  14
ENDBRANCH  12  13
ENDBRANCH   9  12
ENDBRANCH   6   9
ENDBRANCH   3   4
BRANCH   1  19
ATOM     19  C   UNL     1       4.095  -0.715   0.000  0.00  0.00    +0.000 C 
BRANCH  19  20
ATOM     20  C   UNL     1       3.683   0.000   0.000  0.00  0.00    +0.000 C 
BRANCH  20  22
ATOM     21  C   UNL     1       2.445   0.715   0.000  0.00  0.00    +0.000 C 
ATOM     22  C   UNL     1       2.858   0.000   0.000  0.00  0.00    +0.000 C 
ENDBRANCH  20  22
ENDBRANCH  19  20
BRANCH  19  23
ATOM     23  N   UNL     1       3.683  -1.429   0.000  0.00  0.00    +0.000 NA
BRANCH  23  24
ATOM     24  C   UNL     1       2.858  -1.429   0.000  0.00  0.00    +0.000 C 
ATOM     25  C   UNL     1       2.445  -2.143   0.000  0.00  0.00    +0.000 C 
ATOM     26  C   UNL     1       1.620  -2.143   0.000  0.00  0.00    +0.000 C 
ATOM     27  C   UNL     1       1.208  -1.429   0.000  0.00  0.00    +0.000 A 
ATOM     28  C   UNL     1       0.383  -1.429   0.000  0.00  0.00    +0.000 A 
ATOM     29  C   UNL     1      -0.030  -0.715   0.000  0.00  0.00    +0.000 A 
ATOM     30  C   UNL     1       0.383   0.000   0.000  0.00  0.00    +0.000 A 
ATOM     31  C   UNL     1       1.208   0.000   0.000  0.00  0.00    +0.000 A 
ATOM     32  C   UNL     1       1.620  -0.715   0.000  0.00  0.00    +0.000 A 
ATOM     33  C   UNL     1       2.445  -0.715   0.000  0.00  0.00    +0.000 C 
ATOM     34  F   UNL     1       1.620   0.715   0.000  0.00  0.00    +0.000 F 
ATOM     35  F   UNL     1      -0.855  -0.715   0.000  0.00  0.00    +0.000 F 
ENDBRANCH  23  24
ENDBRANCH  19  23
ENDBRANCH   1  19
TORSDOF 11
