REMARK  Name = 
REMARK  7 active torsions:
REMARK  status: ('A' for Active; 'I' for Inactive)
REMARK    1  A    between atoms: O_2  and  C_3
REMARK    2  A    between atoms: C_3  and  C_4
REMARK    3  A    between atoms: C_4  and  C_5
REMARK    4  A    between atoms: C_5  and  C_6
REMARK    5  A    between atoms: N_8  and  C_9
REMARK    6  A    between atoms: C_9  and  C_10
REMARK    7  A    between atoms: C_13  and  C_16
REMARK                            x       y       z     vdW  Elec       q    Type
REMARK                         _______ _______ _______ _____ _____    ______ ____
ROOT
ATOM      1  C   UNL     1       7.859  -5.362   0.000  0.00  0.00    +0.000 A 
ATOM      2  C   UNL     1       8.574  -4.950   0.000  0.00  0.00    +0.000 A 
ATOM      3  C   UNL     1       9.288  -5.362   0.000  0.00  0.00    +0.000 A 
ATOM      4  C   UNL     1       9.288  -6.188   0.000  0.00  0.00    +0.000 A 
ATOM      5  C   UNL     1       8.574  -6.600   0.000  0.00  0.00    +0.000 A 
ATOM      6  C   UNL     1       7.859  -6.188   0.000  0.00  0.00    +0.000 A 
ENDROOT
BRANCH   4   7
ATOM      7  C   UNL     1      10.003  -6.600   0.000  0.00  0.00    +0.000 C 
ATOM      8  F   UNL     1      10.717  -7.013   0.000  0.00  0.00    +0.000 F 
ATOM      9  F   UNL     1       9.590  -7.314   0.000  0.00  0.00    +0.000 F 
ATOM     10  F   UNL     1      10.415  -5.886   0.000  0.00  0.00    +0.000 F 
ENDBRANCH   4   7
BRANCH   1  11
ATOM     11  C   UNL     1       7.145  -4.950   0.000  0.00  0.00    +0.000 C 
BRANCH  11  14
ATOM     12  C   UNL     1       5.716  -4.950   0.000  0.00  0.00    +0.000 C 
ATOM     13  O   UNL     1       5.716  -4.125   0.000  0.00  0.00    +0.000 OA
ATOM     14  N   UNL     1       6.430  -5.362   0.000  0.00  0.00    +0.000 NA
BRANCH  12  15
ATOM     15  C   UNL     1       5.001  -5.362   0.000  0.00  0.00    +0.000 C 
BRANCH  15  16
ATOM     16  C   UNL     1       4.287  -4.950   0.000  0.00  0.00    +0.000 C 
BRANCH  16  17
ATOM     17  C   UNL     1       3.572  -5.362   0.000  0.00  0.00    +0.000 C 
BRANCH  17  19
ATOM     18  C   UNL     1       2.143  -5.362   0.000  0.00  0.00    +0.000 C 
ATOM     19  O   UNL     1       2.858  -4.950   0.000  0.00  0.00    +0.000 OA
ENDBRANCH  17  19
ENDBRANCH  16  17
ENDBRANCH  15  16
ENDBRANCH  12  15
ENDBRANCH  11  14
ENDBRANCH   1  11
TORSDOF 7
