REMARK  Name = 
REMARK  1 active torsions:
REMARK  status: ('A' for Active; 'I' for Inactive)
REMARK    1  A    between atoms: C_2  and  CA_4
REMARK                            x       y       z     vdW  Elec       q    Type
REMARK                         _______ _______ _______ _____ _____    ______ ____
ROOT
ATOM      1  CA  UNL     1       0.568   1.114   0.000  0.00  0.00    +0.000 A 
ATOM      2  C   UNL     1       1.235   0.629   0.000  0.00  0.00    +0.000 A 
ATOM      3  N   UNL     1       0.980  -0.155   0.000  0.00  0.00    +0.000 NA
ATOM      4  C   UNL     1       0.155  -0.155   0.000  0.00  0.00    +0.000 A 
ATOM      5  N   UNL     1      -0.100   0.629   0.000  0.00  0.00    +0.000 NA
ENDROOT
BRANCH   1   7
ATOM      6  O   UNL     1      -0.147   2.352   0.000  0.00  0.00    +0.000 OA
ATOM      7  C   UNL     1       0.568   1.939   0.000  0.00  0.00    +0.000 C 
ATOM      8  OXT UNL     1       1.282   2.352   0.000  0.00  0.00    +0.000 OA
ENDBRANCH   1   7
TORSDOF 1
