REMARK  Name = 
REMARK  3 active torsions:
REMARK  status: ('A' for Active; 'I' for Inactive)
REMARK    1  A    between atoms: C_1  and  C_2
REMARK    2  A    between atoms: C_2  and  O_5
REMARK    3  A    between atoms: O_5  and  C_10
REMARK                            x       y       z     vdW  Elec       q    Type
REMARK                         _______ _______ _______ _____ _____    ______ ____
ROOT
ATOM      1  O   UNL     1      -0.044  -0.622   0.000  0.00  0.00    +0.000 OA
ENDROOT
BRANCH   1   2
ATOM      2  C   UNL     1       0.662  -0.224   0.000  0.00  0.00    +0.000 C 
ATOM      3  C   UNL     1       1.389  -0.630   0.000  0.00  0.00    +0.000 C 
ATOM      4  C   UNL     1       0.662   0.601   0.000  0.00  0.00    +0.000 C 
ATOM      5  C   UNL     1       2.095  -0.232   0.000  0.00  0.00    +0.000 C 
ATOM      6  C   UNL     1       1.389   1.022   0.000  0.00  0.00    +0.000 C 
ATOM      7  C   UNL     1       2.095   0.601   0.000  0.00  0.00    +0.000 C 
ATOM      8  C   UNL     1       2.391  -0.999   0.000  0.00  0.00    +0.000 C 
ATOM      9  C   UNL     1       2.923  -0.087   0.000  0.00  0.00    +0.000 C 
ATOM     10  C   UNL     1       1.389   1.833   0.000  0.00  0.00    +0.000 C 
ENDBRANCH   1   2
BRANCH   1  11
ATOM     11  C   UNL     1      -0.750  -0.224   0.000  0.00  0.00    +0.000 C 
ATOM     12  O   UNL     1      -0.758   0.610   0.000  0.00  0.00    +0.000 OA
BRANCH  11  13
ATOM     13  C   UNL     1      -1.484  -0.630   0.000  0.00  0.00    +0.000 A 
ATOM     14  C   UNL     1      -2.182  -0.183   0.000  0.00  0.00    +0.000 A 
ATOM     15  C   UNL     1      -1.476  -1.453   0.000  0.00  0.00    +0.000 A 
ATOM     16  C   UNL     1      -2.923  -0.578   0.000  0.00  0.00    +0.000 A 
ATOM     17  O   UNL     1      -2.190   0.633   0.000  0.00  0.00    +0.000 OA
ATOM     18  C   UNL     1      -2.257  -1.833   0.000  0.00  0.00    +0.000 A 
ATOM     19  C   UNL     1      -2.923  -1.403   0.000  0.00  0.00    +0.000 A 
ENDBRANCH  11  13
ENDBRANCH   1  11
TORSDOF 3
