REMARK  Name = 
REMARK  2 active torsions:
REMARK  status: ('A' for Active; 'I' for Inactive)
REMARK    1  A    between atoms: N_4  and  C_8
REMARK    2  A    between atoms: C_5  and  S_9
REMARK                            x       y       z     vdW  Elec       q    Type
REMARK                         _______ _______ _______ _____ _____    ______ ____
ROOT
ATOM      1  C   UNL     1      -0.361   0.206   0.000  0.00  0.00    +0.000 A 
ATOM      2  S   UNL     1       0.306   0.691   0.000  0.00  0.00    +0.000 S 
ATOM      3  N   UNL     1      -0.106  -0.578   0.000  0.00  0.00    +0.000 N 
ATOM      4  N   UNL     1      -1.145   0.461   0.000  0.00  0.00    +0.000 NA
ATOM      5  C   UNL     1       0.974   0.206   0.000  0.00  0.00    +0.000 A 
ATOM      6  N   UNL     1       0.719  -0.578   0.000  0.00  0.00    +0.000 NA
ATOM      7  C   UNL     1      -0.591  -1.246   0.000  0.00  0.00    +0.000 C 
ENDROOT
BRANCH   5   8
ATOM      8  S   UNL     1       1.759   0.461   0.000  0.00  0.00    +0.000 S 
ATOM      9  N   UNL     1       2.543   0.716   0.000  0.00  0.00    +0.000 NA
ATOM     10  O   UNL     1       2.014  -0.323   0.000  0.00  0.00    +0.000 OA
ATOM     11  O   UNL     1       1.504   1.246   0.000  0.00  0.00    +0.000 OA
ENDBRANCH   5   8
BRANCH   4  12
ATOM     12  C   UNL     1      -1.758  -0.091   0.000  0.00  0.00    +0.000 C 
ATOM     13  C   UNL     1      -2.543   0.164   0.000  0.00  0.00    +0.000 C 
ATOM     14  O   UNL     1      -1.587  -0.898   0.000  0.00  0.00    +0.000 OA
ENDBRANCH   4  12
TORSDOF 2
