REMARK  Name = 
REMARK  5 active torsions:
REMARK  status: ('A' for Active; 'I' for Inactive)
REMARK    1  A    between atoms: C_2  and  C_3
REMARK    2  A    between atoms: C_2  and  N_19
REMARK    3  A    between atoms: C_3  and  C_4
REMARK    4  A    between atoms: C_3  and  C_10
REMARK    5  A    between atoms: C_4  and  N_5
REMARK                            x       y       z     vdW  Elec       q    Type
REMARK                         _______ _______ _______ _____ _____    ______ ____
ROOT
ATOM      1  C   UNL     1       0.000  -2.475   0.000  0.00  0.00    +0.000 C 
ATOM      2  O   UNL     1       0.000  -3.300   0.000  0.00  0.00    +0.000 OA
ENDROOT
BRANCH   1   3
ATOM      3  C   UNL     1      -0.825  -2.475   0.000  0.00  0.00    +0.000 A 
ATOM      4  C   UNL     1      -1.238  -1.760   0.000  0.00  0.00    +0.000 A 
ATOM      5  C   UNL     1      -2.062  -1.760   0.000  0.00  0.00    +0.000 A 
ATOM      6  C   UNL     1      -2.475  -2.475   0.000  0.00  0.00    +0.000 A 
ATOM      7  C   UNL     1      -2.062  -3.189   0.000  0.00  0.00    +0.000 A 
ATOM      8  C   UNL     1      -1.238  -3.189   0.000  0.00  0.00    +0.000 A 
ATOM      9  F   UNL     1      -0.825  -3.904   0.000  0.00  0.00    +0.000 F 
ATOM     10  F   UNL     1      -3.300  -2.475   0.000  0.00  0.00    +0.000 F 
ENDBRANCH   1   3
BRANCH   1  12
ATOM     11  C   UNL     1      -0.715  -1.238   0.000  0.00  0.00    +0.000 C 
ATOM     12  C   UNL     1       0.000  -1.650   0.000  0.00  0.00    +0.000 C 
BRANCH  12  13
ATOM     13  N   UNL     1       0.715  -1.238   0.000  0.00  0.00    +0.000 N 
ATOM     14  C   UNL     1       0.715  -0.412   0.000  0.00  0.00    +0.000 A 
ATOM     15  N   UNL     1       1.429   0.000   0.000  0.00  0.00    +0.000 NA
ATOM     16  C   UNL     1       2.143  -0.412   0.000  0.00  0.00    +0.000 A 
ATOM     17  C   UNL     1       2.858   0.000   0.000  0.00  0.00    +0.000 A 
ATOM     18  C   UNL     1       3.572  -0.412   0.000  0.00  0.00    +0.000 A 
ATOM     19  C   UNL     1       3.572  -1.238   0.000  0.00  0.00    +0.000 A 
ATOM     20  C   UNL     1       2.858  -1.650   0.000  0.00  0.00    +0.000 A 
ATOM     21  C   UNL     1       2.143  -1.238   0.000  0.00  0.00    +0.000 A 
ATOM     22  C   UNL     1       1.429  -1.650   0.000  0.00  0.00    +0.000 A 
ATOM     23  O   UNL     1       1.429  -2.475   0.000  0.00  0.00    +0.000 OA
ATOM     24 CL   UNL     1       4.287   0.000   0.000  0.00  0.00    +0.000 Cl
ENDBRANCH  12  13
ENDBRANCH   1  12
BRANCH   1  25
ATOM     25  C   UNL     1       0.825  -2.475   0.000  0.00  0.00    +0.000 C 
BRANCH  25  26
ATOM     26  N   UNL     1       1.238  -3.189   0.000  0.00  0.00    +0.000 N 
ATOM     27  C   UNL     1       0.902  -3.943   0.000  0.00  0.00    +0.000 A 
ATOM     28  N   UNL     1       1.515  -4.495   0.000  0.00  0.00    +0.000 NA
ATOM     29  C   UNL     1       2.229  -4.083   0.000  0.00  0.00    +0.000 A 
ATOM     30  N   UNL     1       2.058  -3.276   0.000  0.00  0.00    +0.000 NA
ENDBRANCH  25  26
ENDBRANCH   1  25
TORSDOF 5
