REMARK  Name = 
REMARK  9 active torsions:
REMARK  status: ('A' for Active; 'I' for Inactive)
REMARK    1  A    between atoms: O_2  and  C_3
REMARK    2  A    between atoms: C_5  and  C_19
REMARK    3  A    between atoms: C_8  and  O_9
REMARK    4  A    between atoms: O_9  and  C_10
REMARK    5  A    between atoms: C_13  and  C_16
REMARK    6  A    between atoms: C_19  and  N_20
REMARK    7  A    between atoms: N_20  and  C_21
REMARK    8  A    between atoms: C_21  and  C_22
REMARK    9  A    between atoms: C_22  and  C_23
REMARK                            x       y       z     vdW  Elec       q    Type
REMARK                         _______ _______ _______ _____ _____    ______ ____
ROOT
ATOM      1  C   UNL     1      -0.715  -1.238   0.000  0.00  0.00    +0.000 A 
ATOM      2  C   UNL     1       0.000  -1.650   0.000  0.00  0.00    +0.000 A 
ATOM      3  C   UNL     1       0.000  -2.475   0.000  0.00  0.00    +0.000 A 
ATOM      4  C   UNL     1      -0.715  -2.888   0.000  0.00  0.00    +0.000 A 
ATOM      5  C   UNL     1      -1.429  -2.475   0.000  0.00  0.00    +0.000 A 
ATOM      6  C   UNL     1      -1.429  -1.650   0.000  0.00  0.00    +0.000 A 
ENDROOT
BRANCH   1   8
ATOM      7  C   UNL     1      -1.429   0.000   0.000  0.00  0.00    +0.000 C 
ATOM      8  O   UNL     1      -0.715  -0.412   0.000  0.00  0.00    +0.000 OA
ENDBRANCH   1   8
BRANCH   6   9
ATOM      9  O   UNL     1      -2.143  -1.238   0.000  0.00  0.00    +0.000 OA
BRANCH   9  10
ATOM     10  C   UNL     1      -2.858  -1.650   0.000  0.00  0.00    +0.000 A 
ATOM     11  C   UNL     1      -2.858  -2.475   0.000  0.00  0.00    +0.000 A 
ATOM     12  N   UNL     1      -3.572  -2.888   0.000  0.00  0.00    +0.000 NA
ATOM     13  C   UNL     1      -4.287  -2.475   0.000  0.00  0.00    +0.000 A 
ATOM     14  C   UNL     1      -4.287  -1.650   0.000  0.00  0.00    +0.000 A 
ATOM     15  N   UNL     1      -3.572  -1.238   0.000  0.00  0.00    +0.000 NA
BRANCH  13  16
ATOM     16  C   UNL     1      -5.001  -2.888   0.000  0.00  0.00    +0.000 C 
ATOM     17  O   UNL     1      -5.716  -2.475   0.000  0.00  0.00    +0.000 OA
ATOM     18  N   UNL     1      -5.001  -3.712   0.000  0.00  0.00    +0.000 NA
ENDBRANCH  13  16
ENDBRANCH   9  10
ENDBRANCH   6   9
BRANCH   3  19
ATOM     19  C   UNL     1       0.715  -2.888   0.000  0.00  0.00    +0.000 C 
BRANCH  19  20
ATOM     20  N   UNL     1       1.429  -2.475   0.000  0.00  0.00    +0.000 NA
BRANCH  20  21
ATOM     21  C   UNL     1       2.143  -2.888   0.000  0.00  0.00    +0.000 C 
BRANCH  21  22
ATOM     22  C   UNL     1       2.858  -2.475   0.000  0.00  0.00    +0.000 C 
BRANCH  22  23
ATOM     23  C   UNL     1       3.572  -2.888   0.000  0.00  0.00    +0.000 C 
ATOM     24  C   UNL     1       4.287  -2.475   0.000  0.00  0.00    +0.000 C 
ATOM     25  C   UNL     1       5.001  -2.888   0.000  0.00  0.00    +0.000 C 
ATOM     26  O   UNL     1       5.001  -3.712   0.000  0.00  0.00    +0.000 OA
ATOM     27  C   UNL     1       4.287  -4.125   0.000  0.00  0.00    +0.000 C 
ATOM     28  C   UNL     1       3.572  -3.712   0.000  0.00  0.00    +0.000 C 
ENDBRANCH  22  23
ENDBRANCH  21  22
ENDBRANCH  20  21
ENDBRANCH  19  20
ENDBRANCH   3  19
TORSDOF 9
