REMARK  Name = 
REMARK  3 active torsions:
REMARK  status: ('A' for Active; 'I' for Inactive)
REMARK    1  A    between atoms: C_5  and  C_9
REMARK    2  A    between atoms: C_5  and  N_10
REMARK    3  A    between atoms: C_6  and  C_9
REMARK                            x       y       z     vdW  Elec       q    Type
REMARK                         _______ _______ _______ _____ _____    ______ ____
ROOT
ATOM      1  C   UNL     1       1.429   0.000   0.000  0.00  0.00    +0.000 A 
ATOM      2  C   UNL     1       1.429   0.825   0.000  0.00  0.00    +0.000 A 
ATOM      3  C   UNL     1       0.000   0.000   0.000  0.00  0.00    +0.000 A 
ATOM      4  C   UNL     1       0.715  -0.412   0.000  0.00  0.00    +0.000 A 
ATOM      5  C   UNL     1       0.715   1.238   0.000  0.00  0.00    +0.000 A 
ATOM      6  C   UNL     1       0.000   0.825   0.000  0.00  0.00    +0.000 A 
ATOM      7  O   UNL     1       0.715   2.062   0.000  0.00  0.00    +0.000 OA
ATOM      8  O   UNL     1      -0.715   1.238   0.000  0.00  0.00    +0.000 OA
ENDROOT
BRANCH   4   9
ATOM      9  C   UNL     1       0.715  -1.238   0.000  0.00  0.00    +0.000 C 
ATOM     10  O   UNL     1       1.429  -1.650   0.000  0.00  0.00    +0.000 OA
BRANCH   9  11
ATOM     11  C   UNL     1       0.000  -1.650   0.000  0.00  0.00    +0.000 C 
BRANCH  11  13
ATOM     12  C   UNL     1      -0.715  -2.888   0.000  0.00  0.00    +0.000 C 
ATOM     13  N   UNL     1       0.000  -2.475   0.000  0.00  0.00    +0.000 NA
ENDBRANCH  11  13
ENDBRANCH   9  11
ENDBRANCH   4   9
TORSDOF 3
