REMARK  Name = 
REMARK  3 active torsions:
REMARK  status: ('A' for Active; 'I' for Inactive)
REMARK    1  A    between atoms: C_5  and  C_8
REMARK    2  A    between atoms: C_5  and  C_13
REMARK    3  A    between atoms: C_11  and  S_22
REMARK                            x       y       z     vdW  Elec       q    Type
REMARK                         _______ _______ _______ _____ _____    ______ ____
ROOT
ATOM      1  C   UNL     1       0.000   0.000   0.000  0.00  0.00    +0.000 A 
ATOM      2  C   UNL     1       0.000  -1.650   0.000  0.00  0.00    +0.000 A 
ATOM      3  C   UNL     1      -0.715  -0.412   0.000  0.00  0.00    +0.000 A 
ATOM      4  C   UNL     1       0.715  -0.412   0.000  0.00  0.00    +0.000 A 
ATOM      5  C   UNL     1      -0.715  -1.238   0.000  0.00  0.00    +0.000 A 
ATOM      6  C   UNL     1       0.715  -1.238   0.000  0.00  0.00    +0.000 A 
ATOM      7  C   UNL     1       2.143  -0.412   0.000  0.00  0.00    +0.000 C 
ATOM      8 CL   UNL     1      -1.429   0.000   0.000  0.00  0.00    +0.000 Cl
ATOM      9  N   UNL     1       1.429   0.000   0.000  0.00  0.00    +0.000 NA
ATOM     10  N   UNL     1       2.143  -1.238   0.000  0.00  0.00    +0.000 NA
ATOM     11  O   UNL     1       1.042  -2.378   0.000  0.00  0.00    +0.000 OA
ATOM     12  O   UNL     1       1.816  -2.378   0.000  0.00  0.00    +0.000 OA
ATOM     13  S   UNL     1       1.429  -1.650   0.000  0.00  0.00    +0.000 S 
ENDROOT
BRANCH   5  17
ATOM     14  N   UNL     1      -2.143  -2.062   0.000  0.00  0.00    +0.000 NA
ATOM     15  O   UNL     1      -1.841  -0.935   0.000  0.00  0.00    +0.000 OA
ATOM     16  O   UNL     1      -1.016  -2.365   0.000  0.00  0.00    +0.000 OA
ATOM     17  S   UNL     1      -1.429  -1.650   0.000  0.00  0.00    +0.000 S 
ENDBRANCH   5  17
BRANCH   7  18
ATOM     18  C   UNL     1       2.858   0.000   0.000  0.00  0.00    +0.000 C 
BRANCH  18  23
ATOM     19  C   UNL     1       4.466  -1.405   0.000  0.00  0.00    +0.000 C 
ATOM     20  C   UNL     1       4.878  -0.690   0.000  0.00  0.00    +0.000 C 
ATOM     21  C   UNL     1       3.659  -1.233   0.000  0.00  0.00    +0.000 C 
ATOM     22  C   UNL     1       4.326  -0.077   0.000  0.00  0.00    +0.000 C 
ATOM     23  C   UNL     1       3.572  -0.412   0.000  0.00  0.00    +0.000 C 
ENDBRANCH  18  23
ENDBRANCH   7  18
TORSDOF 3
