REMARK  Name = 
REMARK  0 active torsions:
REMARK  status: ('A' for Active; 'I' for Inactive)
REMARK                            x       y       z     vdW  Elec       q    Type
REMARK                         _______ _______ _______ _____ _____    ______ ____
ROOT
ATOM      1  F   UNL     1      -0.098  -1.094   0.000  0.00  0.00    +0.000 F 
ATOM      2  C   UNL     1       0.715  -1.238   0.000  0.00  0.00    +0.000 C 
ATOM      3  F   UNL     1       0.432  -2.013   0.000  0.00  0.00    +0.000 F 
ATOM      4  C   UNL     1       0.715  -0.412   0.000  0.00  0.00    +0.000 C 
ATOM      5  F   UNL     1      -0.098  -0.556   0.000  0.00  0.00    +0.000 F 
ATOM      6  F   UNL     1       0.432   0.363   0.000  0.00  0.00    +0.000 F 
ATOM      7  C   UNL     1       1.429   0.000   0.000  0.00  0.00    +0.000 C 
ATOM      8  F   UNL     1       0.899   0.632   0.000  0.00  0.00    +0.000 F 
ATOM      9  F   UNL     1       1.959   0.632   0.000  0.00  0.00    +0.000 F 
ATOM     10  C   UNL     1       2.143  -0.412   0.000  0.00  0.00    +0.000 C 
ATOM     11  F   UNL     1       2.143   0.412   0.000  0.00  0.00    +0.000 F 
ATOM     12  C   UNL     1       2.858   0.000   0.000  0.00  0.00    +0.000 C 
ATOM     13  F   UNL     1       2.328   0.632   0.000  0.00  0.00    +0.000 F 
ATOM     14  F   UNL     1       3.388   0.632   0.000  0.00  0.00    +0.000 F 
ATOM     15  C   UNL     1       3.572  -0.412   0.000  0.00  0.00    +0.000 C 
ATOM     16  F   UNL     1       3.854   0.363   0.000  0.00  0.00    +0.000 F 
ATOM     17  F   UNL     1       4.385  -0.556   0.000  0.00  0.00    +0.000 F 
ATOM     18  C   UNL     1       3.572  -1.238   0.000  0.00  0.00    +0.000 C 
ATOM     19  F   UNL     1       4.385  -1.094   0.000  0.00  0.00    +0.000 F 
ATOM     20  F   UNL     1       3.854  -2.013   0.000  0.00  0.00    +0.000 F 
ATOM     21  C   UNL     1       2.858  -1.650   0.000  0.00  0.00    +0.000 C 
ATOM     22  F   UNL     1       3.388  -2.282   0.000  0.00  0.00    +0.000 F 
ATOM     23  F   UNL     1       2.328  -2.282   0.000  0.00  0.00    +0.000 F 
ATOM     24  C   UNL     1       2.143  -1.238   0.000  0.00  0.00    +0.000 C 
ATOM     25  F   UNL     1       2.143  -2.062   0.000  0.00  0.00    +0.000 F 
ATOM     26  C   UNL     1       1.429  -1.650   0.000  0.00  0.00    +0.000 C 
ATOM     27  F   UNL     1       1.816  -2.378   0.000  0.00  0.00    +0.000 F 
ATOM     28  F   UNL     1       1.042  -2.378   0.000  0.00  0.00    +0.000 F 
ENDROOT
TORSDOF 0
