REMARK  Name = 
REMARK  0 active torsions:
REMARK  status: ('A' for Active; 'I' for Inactive)
REMARK                            x       y       z     vdW  Elec       q    Type
REMARK                         _______ _______ _______ _____ _____    ______ ____
ROOT
ATOM      1  C   UNL     1       0.641  -0.285   0.000  0.00  0.00    +0.000 A 
ATOM      2  C   UNL     1       0.641  -1.110   0.000  0.00  0.00    +0.000 A 
ATOM      3  C   UNL     1       1.356   0.127   0.000  0.00  0.00    +0.000 A 
ATOM      4  C   UNL     1      -0.628  -0.698   0.000  0.00  0.00    +0.000 A 
ATOM      5  C   UNL     1       2.070  -1.110   0.000  0.00  0.00    +0.000 A 
ATOM      6  N   UNL     1      -0.143  -0.030   0.000  0.00  0.00    +0.000 NA
ATOM      7  N   UNL     1      -0.143  -1.365   0.000  0.00  0.00    +0.000 NA
ATOM      8  N   UNL     1       1.356  -1.523   0.000  0.00  0.00    +0.000 NA
ATOM      9  N   UNL     1       2.070  -0.285   0.000  0.00  0.00    +0.000 NA
ATOM     10  O   UNL     1       1.356   0.952   0.000  0.00  0.00    +0.000 OA
ATOM     11  O   UNL     1      -1.453  -0.698   0.000  0.00  0.00    +0.000 OA
ATOM     12  O   UNL     1       2.784  -1.523   0.000  0.00  0.00    +0.000 OA
ENDROOT
TORSDOF 0
