REMARK  Name = 
REMARK  10 active torsions:
REMARK  status: ('A' for Active; 'I' for Inactive)
REMARK    1  A    between atoms: C_2  and  C_3
REMARK    2  A    between atoms: C_3  and  N_4
REMARK    3  A    between atoms: C_6  and  C_7
REMARK    4  A    between atoms: C_7  and  C_8
REMARK    5  A    between atoms: C_8  and  N_9
REMARK    6  A    between atoms: C_11  and  C_13
REMARK    7  A    between atoms: C_13  and  C_15
REMARK    8  A    between atoms: C_15  and  C_17
REMARK    9  A    between atoms: C_17  and  O_18
REMARK   10  A    between atoms: O_18  and  P_21
REMARK                            x       y       z     vdW  Elec       q    Type
REMARK                         _______ _______ _______ _____ _____    ______ ____
ROOT
ATOM      1  N   UNL     1       0.000   0.206   0.000  0.00  0.00    +0.000 NA
ATOM      2  O   UNL     1      -0.714  -1.031   0.000  0.00  0.00    +0.000 OA
ATOM      3  C   UNL     1      -0.714  -0.206   0.000  0.00  0.00    +0.000 C 
ENDROOT
BRANCH   3   5
ATOM      4  O   UNL     1      -1.429   1.031   0.000  0.00  0.00    +0.000 OA
ATOM      5  C   UNL     1      -1.429   0.206   0.000  0.00  0.00    +0.000 C 
BRANCH   5   7
ATOM      6  C   UNL     1      -2.727  -0.789   0.000  0.00  0.00    +0.000 C 
ATOM      7  C   UNL     1      -2.143  -0.206   0.000  0.00  0.00    +0.000 C 
ATOM      8  C   UNL     1      -1.560  -0.789   0.000  0.00  0.00    +0.000 C 
BRANCH   7   9
ATOM      9  C   UNL     1      -2.858   0.206   0.000  0.00  0.00    +0.000 C 
BRANCH   9  10
ATOM     10  O   UNL     1      -3.572  -0.206   0.000  0.00  0.00    +0.000 OA
BRANCH  10  13
ATOM     11  O   UNL     1      -4.287   1.031   0.000  0.00  0.00    +0.000 OA
ATOM     12  O   UNL     1      -5.001  -0.206   0.000  0.00  0.00    +0.000 OA
ATOM     13  P   UNL     1      -4.287   0.206   0.000  0.00  0.00    +0.000 P 
ATOM     14  O   UNL     1      -4.500  -0.591   0.000  0.00  0.00    +0.000 OA
ENDBRANCH  10  13
ENDBRANCH   9  10
ENDBRANCH   7   9
ENDBRANCH   5   7
ENDBRANCH   3   5
BRANCH   1  15
ATOM     15  C   UNL     1       0.714  -0.206   0.000  0.00  0.00    +0.000 C 
BRANCH  15  16
ATOM     16  C   UNL     1       1.429   0.206   0.000  0.00  0.00    +0.000 C 
BRANCH  16  19
ATOM     17  N   UNL     1       2.858   0.206   0.000  0.00  0.00    +0.000 NA
ATOM     18  O   UNL     1       2.143  -1.031   0.000  0.00  0.00    +0.000 OA
ATOM     19  C   UNL     1       2.143  -0.206   0.000  0.00  0.00    +0.000 C 
BRANCH  17  20
ATOM     20  C   UNL     1       3.572  -0.206   0.000  0.00  0.00    +0.000 C 
BRANCH  20  22
ATOM     21  S   UNL     1       5.001  -0.206   0.000  0.00  0.00    +0.000 S 
ATOM     22  C   UNL     1       4.287   0.206   0.000  0.00  0.00    +0.000 C 
ENDBRANCH  20  22
ENDBRANCH  17  20
ENDBRANCH  16  19
ENDBRANCH  15  16
ENDBRANCH   1  15
TORSDOF 10
