REMARK  Name = 
REMARK  2 active torsions:
REMARK  status: ('A' for Active; 'I' for Inactive)
REMARK    1  A    between atoms: N_9  and  C_10
REMARK    2  A    between atoms: C_13  and  C_15
REMARK                            x       y       z     vdW  Elec       q    Type
REMARK                         _______ _______ _______ _____ _____    ______ ____
ROOT
ATOM      1  C   UNL     1       0.654  -0.698   0.000  0.00  0.00    +0.000 A 
ATOM      2  N   UNL     1       1.139  -0.030   0.000  0.00  0.00    +0.000 NA
ATOM      3  C   UNL     1       1.923  -0.285   0.000  0.00  0.00    +0.000 A 
ATOM      4  C   UNL     1       2.638   0.127   0.000  0.00  0.00    +0.000 A 
ATOM      5  N   UNL     1       3.352  -0.285   0.000  0.00  0.00    +0.000 NA
ATOM      6  C   UNL     1       3.352  -1.110   0.000  0.00  0.00    +0.000 A 
ATOM      7  N   UNL     1       2.638  -1.523   0.000  0.00  0.00    +0.000 NA
ATOM      8  C   UNL     1       1.923  -1.110   0.000  0.00  0.00    +0.000 A 
ATOM      9  N   UNL     1       1.139  -1.365   0.000  0.00  0.00    +0.000 N 
ATOM     10  N   UNL     1       4.067  -1.523   0.000  0.00  0.00    +0.000 NA
ATOM     11  N   UNL     1       2.638   0.952   0.000  0.00  0.00    +0.000 NA
ENDROOT
BRANCH   9  12
ATOM     12  C   UNL     1       0.884  -2.150   0.000  0.00  0.00    +0.000 C 
ATOM     13  C   UNL     1       1.369  -2.817   0.000  0.00  0.00    +0.000 C 
ATOM     14  O   UNL     1       0.884  -3.485   0.000  0.00  0.00    +0.000 OA
ATOM     15  C   UNL     1       0.099  -3.230   0.000  0.00  0.00    +0.000 C 
ATOM     16  O   UNL     1       0.099  -2.405   0.000  0.00  0.00    +0.000 OA
BRANCH  15  17
ATOM     17  C   UNL     1      -0.568  -3.715   0.000  0.00  0.00    +0.000 C 
ATOM     18  O   UNL     1      -0.482  -4.535   0.000  0.00  0.00    +0.000 OA
ENDBRANCH  15  17
ENDBRANCH   9  12
TORSDOF 2
