REMARK  Name = 
REMARK  15 active torsions:
REMARK  status: ('A' for Active; 'I' for Inactive)
REMARK    1  A    between atoms: C_1  and  C_2
REMARK    2  A    between atoms: C_1  and  O_6
REMARK    3  A    between atoms: C_1  and  C_8
REMARK    4  A    between atoms: C_2  and  C_3
REMARK    5  A    between atoms: C_3  and  O_4
REMARK    6  A    between atoms: O_4  and  C_26
REMARK    7  A    between atoms: C_9  and  N_10
REMARK    8  A    between atoms: C_14  and  N_15
REMARK    9  A    between atoms: C_20  and  C_22
REMARK   10  A    between atoms: C_26  and  C_27
REMARK   11  A    between atoms: C_27  and  C_29
REMARK   12  A    between atoms: C_29  and  C_30
REMARK   13  A    between atoms: C_30  and  C_31
REMARK   14  A    between atoms: C_31  and  C_32
REMARK   15  A    between atoms: C_32  and  C_33
REMARK                            x       y       z     vdW  Elec       q    Type
REMARK                         _______ _______ _______ _____ _____    ______ ____
ROOT
ATOM      1  C   UNL     1      -2.502   0.000   0.000  0.00  0.00    +0.000 C 
ATOM      2  C   UNL     1      -3.214  -0.411   0.000  0.00  0.00    +0.000 C 
ATOM      3  C   UNL     1      -3.931   0.000   0.000  0.00  0.00    +0.000 C 
ATOM      4  C   UNL     1      -3.931   0.825   0.000  0.00  0.00    +0.000 C 
ATOM      5  C   UNL     1      -3.214   1.238   0.000  0.00  0.00    +0.000 C 
ATOM      6  O   UNL     1      -2.502   0.825   0.000  0.00  0.00    +0.000 OA
ENDROOT
BRANCH   3   7
ATOM      7  N   UNL     1      -4.645  -0.411   0.000  0.00  0.00    +0.000 NA
ATOM      8  C   UNL     1      -5.359   0.000   0.000  0.00  0.00    +0.000 C 
ATOM      9  N   UNL     1      -5.359   0.825   0.000  0.00  0.00    +0.000 NA
ATOM     10  N   UNL     1      -6.074  -0.411   0.000  0.00  0.00    +0.000 NA
ENDBRANCH   3   7
BRANCH   2  11
ATOM     11  N   UNL     1      -3.214  -1.236   0.000  0.00  0.00    +0.000 NA
ATOM     12  C   UNL     1      -3.929  -1.650   0.000  0.00  0.00    +0.000 C 
ATOM     13  C   UNL     1      -4.643  -1.236   0.000  0.00  0.00    +0.000 C 
ATOM     14  O   UNL     1      -3.929  -2.475   0.000  0.00  0.00    +0.000 OA
ENDBRANCH   2  11
BRANCH   5  15
ATOM     15  C   UNL     1      -3.214   2.063   0.000  0.00  0.00    +0.000 C 
ATOM     16  O   UNL     1      -3.929   2.475   0.000  0.00  0.00    +0.000 OA
ATOM     17  O   UNL     1      -2.499   2.475   0.000  0.00  0.00    +0.000 OA
ENDBRANCH   5  15
BRANCH   1  18
ATOM     18  C   UNL     1      -1.787  -0.411   0.000  0.00  0.00    +0.000 C 
BRANCH  18  19
ATOM     19  O   UNL     1      -1.787  -1.236   0.000  0.00  0.00    +0.000 OA
ATOM     20  C   UNL     1      -1.073  -1.650   0.000  0.00  0.00    +0.000 C 
ENDBRANCH  18  19
BRANCH  18  21
ATOM     21  C   UNL     1      -1.073   0.000   0.000  0.00  0.00    +0.000 C 
ATOM     22  O   UNL     1      -1.073   0.825   0.000  0.00  0.00    +0.000 OA
BRANCH  21  23
ATOM     23  C   UNL     1      -0.356  -0.411   0.000  0.00  0.00    +0.000 C 
BRANCH  23  24
ATOM     24  O   UNL     1       0.358   0.000   0.000  0.00  0.00    +0.000 OA
BRANCH  24  25
ATOM     25  C   UNL     1       1.072  -0.413   0.000  0.00  0.00    +0.000 C 
ATOM     26  O   UNL     1       1.071  -1.238   0.000  0.00  0.00    +0.000 OA
BRANCH  25  27
ATOM     27  C   UNL     1       1.787  -0.002   0.000  0.00  0.00    +0.000 C 
BRANCH  27  28
ATOM     28  C   UNL     1       2.501  -0.415   0.000  0.00  0.00    +0.000 C 
BRANCH  28  29
ATOM     29  C   UNL     1       3.216  -0.003   0.000  0.00  0.00    +0.000 C 
BRANCH  29  30
ATOM     30  C   UNL     1       3.930  -0.416   0.000  0.00  0.00    +0.000 C 
BRANCH  30  31
ATOM     31  C   UNL     1       4.645  -0.004   0.000  0.00  0.00    +0.000 C 
BRANCH  31  32
ATOM     32  C   UNL     1       5.359  -0.418   0.000  0.00  0.00    +0.000 C 
ATOM     33  C   UNL     1       6.074  -0.006   0.000  0.00  0.00    +0.000 C 
ENDBRANCH  31  32
ENDBRANCH  30  31
ENDBRANCH  29  30
ENDBRANCH  28  29
ENDBRANCH  27  28
ENDBRANCH  25  27
ENDBRANCH  24  25
ENDBRANCH  23  24
ENDBRANCH  21  23
ENDBRANCH  18  21
ENDBRANCH   1  18
TORSDOF 15
