REMARK  Name = 
REMARK  4 active torsions:
REMARK  status: ('A' for Active; 'I' for Inactive)
REMARK    1  A    between atoms: C_1  and  C_4
REMARK    2  A    between atoms: C_1  and  C_5
REMARK    3  A    between atoms: C_1  and  C_6
REMARK    4  A    between atoms: N_3  and  C_4
REMARK                            x       y       z     vdW  Elec       q    Type
REMARK                         _______ _______ _______ _____ _____    ______ ____
ROOT
ATOM      1  C   UNL     1      -0.764  -0.249   0.000  0.00  0.00    +0.000 C 
ATOM      2  O   UNL     1      -0.368   0.462   0.000  0.00  0.00    +0.000 OA
ENDROOT
BRANCH   1   3
ATOM      3  C   UNL     1      -1.475  -0.670   0.000  0.00  0.00    +0.000 A 
ATOM      4  C   UNL     1      -2.186  -0.259   0.000  0.00  0.00    +0.000 A 
ATOM      5  C   UNL     1      -1.475  -1.497   0.000  0.00  0.00    +0.000 A 
ATOM      6  C   UNL     1      -2.186  -1.903   0.000  0.00  0.00    +0.000 A 
ATOM      7  C   UNL     1      -2.897  -0.670   0.000  0.00  0.00    +0.000 A 
ATOM      8  C   UNL     1      -2.897  -1.497   0.000  0.00  0.00    +0.000 A 
ENDBRANCH   1   3
BRANCH   1   9
ATOM      9  C   UNL     1      -1.180   0.462   0.000  0.00  0.00    +0.000 C 
ATOM     10  C   UNL     1      -0.764   1.187   0.000  0.00  0.00    +0.000 C 
ATOM     11  C   UNL     1      -2.012   0.462   0.000  0.00  0.00    +0.000 C 
ATOM     12  C   UNL     1      -1.180   1.903   0.000  0.00  0.00    +0.000 C 
ATOM     13  C   UNL     1      -2.428   1.187   0.000  0.00  0.00    +0.000 C 
ATOM     14  C   UNL     1      -2.012   1.903   0.000  0.00  0.00    +0.000 C 
ENDBRANCH   1   9
BRANCH   1  15
ATOM     15  C   UNL     1      -0.053  -0.665   0.000  0.00  0.00    +0.000 C 
BRANCH  15  17
ATOM     16  N   UNL     1       2.080   0.578   0.000  0.00  0.00    +0.000 N 
ATOM     17  N   UNL     1       0.658  -0.249   0.000  0.00  0.00    +0.000 NA
ATOM     18  C   UNL     1       1.359   0.984   0.000  0.00  0.00    +0.000 C 
ATOM     19  C   UNL     1       2.070  -0.249   0.000  0.00  0.00    +0.000 C 
ATOM     20  C   UNL     1       0.648   0.568   0.000  0.00  0.00    +0.000 C 
ATOM     21  C   UNL     1       1.369  -0.655   0.000  0.00  0.00    +0.000 C 
ATOM     22  C   UNL     1       2.897   0.578   0.000  0.00  0.00    +0.000 C 
ATOM     23  C   UNL     1       2.476   1.289   0.000  0.00  0.00    +0.000 C 
ENDBRANCH  15  17
ENDBRANCH   1  15
TORSDOF 4
