REMARK  Name = 
REMARK  2 active torsions:
REMARK  status: ('A' for Active; 'I' for Inactive)
REMARK    1  A    between atoms: C_17  and  C_29
REMARK    2  A    between atoms: C_29  and  C_30
REMARK                            x       y       z     vdW  Elec       q    Type
REMARK                         _______ _______ _______ _____ _____    ______ ____
ROOT
ATOM      1  C   UNL     1      -1.457  -0.764   0.000  0.00  0.00    +0.000 C 
ATOM      2  C   UNL     1      -1.457  -1.585   0.000  0.00  0.00    +0.000 C 
ATOM      3  C   UNL     1      -2.165  -0.340   0.000  0.00  0.00    +0.000 C 
ATOM      4  C   UNL     1      -2.165  -1.981   0.000  0.00  0.00    +0.000 C 
ATOM      5  C   UNL     1      -2.900  -0.764   0.000  0.00  0.00    +0.000 C 
ATOM      6  C   UNL     1      -2.900  -1.585   0.000  0.00  0.00    +0.000 C 
ATOM      7  C   UNL     1      -0.722  -0.340   0.000  0.00  0.00    +0.000 C 
ATOM      8  C   UNL     1      -0.014  -0.764   0.000  0.00  0.00    +0.000 C 
ATOM      9  C   UNL     1      -0.722  -1.981   0.000  0.00  0.00    +0.000 C 
ATOM     10  C   UNL     1      -0.014  -1.585   0.000  0.00  0.00    +0.000 C 
ATOM     11  C   UNL     1      -0.722   0.509   0.000  0.00  0.00    +0.000 C 
ATOM     12  C   UNL     1      -0.014   0.905   0.000  0.00  0.00    +0.000 C 
ATOM     13  C   UNL     1       0.693  -0.340   0.000  0.00  0.00    +0.000 C 
ATOM     14  C   UNL     1       0.693   0.509   0.000  0.00  0.00    +0.000 C 
ATOM     15  C   UNL     1       1.486  -0.594   0.000  0.00  0.00    +0.000 C 
ATOM     16  C   UNL     1       1.967   0.085   0.000  0.00  0.00    +0.000 C 
ATOM     17  C   UNL     1       1.486   0.764   0.000  0.00  0.00    +0.000 C 
ATOM     18  O   UNL     1       2.787   0.340   0.000  0.00  0.00    +0.000 OA
ATOM     19  C   UNL     1       2.787   1.160   0.000  0.00  0.00    +0.000 C 
ATOM     20  O   UNL     1       1.967   1.415   0.000  0.00  0.00    +0.000 OA
ATOM     21  O   UNL     1      -3.608  -1.981   0.000  0.00  0.00    +0.000 OA
ATOM     22  F   UNL     1      -0.722  -2.830   0.000  0.00  0.00    +0.000 F 
ATOM     23  C   UNL     1      -1.457   0.085   0.000  0.00  0.00    +0.000 C 
ATOM     24  F   UNL     1      -0.722  -1.160   0.000  0.00  0.00    +0.000 F 
ATOM     25  O   UNL     1      -1.457   0.905   0.000  0.00  0.00    +0.000 OA
ATOM     26  C   UNL     1       0.693   1.330   0.000  0.00  0.00    +0.000 C 
ATOM     27  C   UNL     1       3.183   1.868   0.000  0.00  0.00    +0.000 C 
ATOM     28  C   UNL     1       3.608   1.160   0.000  0.00  0.00    +0.000 C 
ENDROOT
BRANCH  17  29
ATOM     29  C   UNL     1       1.486   1.585   0.000  0.00  0.00    +0.000 C 
ATOM     30  O   UNL     1       0.778   1.981   0.000  0.00  0.00    +0.000 OA
BRANCH  29  31
ATOM     31  C   UNL     1       2.193   2.009   0.000  0.00  0.00    +0.000 C 
ATOM     32  O   UNL     1       2.193   2.830   0.000  0.00  0.00    +0.000 OA
ENDBRANCH  29  31
ENDBRANCH  17  29
TORSDOF 2
