REMARK  Name = 
REMARK  0 active torsions:
REMARK  status: ('A' for Active; 'I' for Inactive)
REMARK                            x       y       z     vdW  Elec       q    Type
REMARK                         _______ _______ _______ _____ _____    ______ ____
ROOT
ATOM      1  C   UNL     1       0.000  -0.412   0.000  0.00  0.00    +0.000 A 
ATOM      2  C   UNL     1      -0.000   0.413   0.000  0.00  0.00    +0.000 A 
ATOM      3  C   UNL     1      -0.714  -0.825   0.000  0.00  0.00    +0.000 A 
ATOM      4  C   UNL     1       0.715  -0.825   0.000  0.00  0.00    +0.000 A 
ATOM      5  C   UNL     1      -0.715   0.825   0.000  0.00  0.00    +0.000 A 
ATOM      6  N   UNL     1       0.714   0.825   0.000  0.00  0.00    +0.000 NA
ATOM      7  C   UNL     1      -1.429  -0.413   0.000  0.00  0.00    +0.000 A 
ATOM      8 CL   UNL     1      -0.714  -1.650   0.000  0.00  0.00    +0.000 Cl
ATOM      9  C   UNL     1       1.429  -0.412   0.000  0.00  0.00    +0.000 A 
ATOM     10  C   UNL     1      -1.429   0.412   0.000  0.00  0.00    +0.000 A 
ATOM     11  O   UNL     1      -0.715   1.650   0.000  0.00  0.00    +0.000 OA
ATOM     12  C   UNL     1       1.429   0.413   0.000  0.00  0.00    +0.000 A 
ENDROOT
TORSDOF 0
