REMARK  Name = 
REMARK  9 active torsions:
REMARK  status: ('A' for Active; 'I' for Inactive)
REMARK    1  A    between atoms: C_2  and  C_4
REMARK    2  A    between atoms: C_4  and  C_5
REMARK    3  A    between atoms: C_4  and  N_12
REMARK    4  A    between atoms: C_5  and  S_6
REMARK    5  A    between atoms: S_6  and  C_9
REMARK    6  A    between atoms: C_13  and  C_31
REMARK    7  A    between atoms: C_14  and  C_24
REMARK    8  A    between atoms: C_16  and  C_18
REMARK    9  A    between atoms: C_18  and  C_19
REMARK                            x       y       z     vdW  Elec       q    Type
REMARK                         _______ _______ _______ _____ _____    ______ ____
ROOT
ATOM      1  N   UNL     1       1.429  -2.475   0.000  0.00  0.00    +0.000 N 
ATOM      2  C   UNL     1       0.715  -2.888   0.000  0.00  0.00    +0.000 C 
ATOM      3  C   UNL     1       0.000  -2.475   0.000  0.00  0.00    +0.000 C 
ATOM      4  C   UNL     1       0.000  -1.650   0.000  0.00  0.00    +0.000 C 
ATOM      5  C   UNL     1       0.715  -1.238   0.000  0.00  0.00    +0.000 C 
ATOM      6  C   UNL     1       0.184  -0.606   0.000  0.00  0.00    +0.000 C 
ATOM      7  C   UNL     1       1.429  -1.650   0.000  0.00  0.00    +0.000 C 
ATOM      8  O   UNL     1       2.143  -1.238   0.000  0.00  0.00    +0.000 OA
ENDROOT
BRANCH   2   9
ATOM      9  C   UNL     1       0.715  -3.712   0.000  0.00  0.00    +0.000 A 
ATOM     10  C   UNL     1       1.429  -4.125   0.000  0.00  0.00    +0.000 A 
ATOM     11  C   UNL     1       1.429  -4.950   0.000  0.00  0.00    +0.000 A 
ATOM     12  C   UNL     1       0.715  -5.362   0.000  0.00  0.00    +0.000 A 
ATOM     13 CL   UNL     1       0.715  -6.188   0.000  0.00  0.00    +0.000 Cl
ATOM     14  C   UNL     1       0.000  -4.950   0.000  0.00  0.00    +0.000 A 
ATOM     15  C   UNL     1       0.000  -4.125   0.000  0.00  0.00    +0.000 A 
ENDBRANCH   2   9
BRANCH   3  16
ATOM     16  C   UNL     1      -0.715  -2.888   0.000  0.00  0.00    +0.000 A 
ATOM     17  C   UNL     1      -0.715  -3.712   0.000  0.00  0.00    +0.000 A 
ATOM     18  C   UNL     1      -1.429  -4.125   0.000  0.00  0.00    +0.000 A 
ATOM     19  C   UNL     1      -2.143  -3.712   0.000  0.00  0.00    +0.000 A 
ATOM     20  C   UNL     1      -2.143  -2.888   0.000  0.00  0.00    +0.000 A 
ATOM     21 CL   UNL     1      -2.858  -2.475   0.000  0.00  0.00    +0.000 Cl
ATOM     22  C   UNL     1      -1.429  -2.475   0.000  0.00  0.00    +0.000 A 
ENDBRANCH   3  16
BRANCH   1  23
ATOM     23  C   UNL     1       2.143  -2.888   0.000  0.00  0.00    +0.000 C 
BRANCH  23  25
ATOM     24  C   UNL     1       3.572  -2.888   0.000  0.00  0.00    +0.000 C 
ATOM     25  C   UNL     1       2.858  -2.475   0.000  0.00  0.00    +0.000 C 
ATOM     26  C   UNL     1       2.858  -1.650   0.000  0.00  0.00    +0.000 C 
ENDBRANCH  23  25
BRANCH  23  27
ATOM     27  C   UNL     1       2.143  -3.712   0.000  0.00  0.00    +0.000 C 
BRANCH  27  28
ATOM     28  S   UNL     1       2.858  -4.125   0.000  0.00  0.00    +0.000 S 
ATOM     29  O   UNL     1       3.270  -3.410   0.000  0.00  0.00    +0.000 OA
ATOM     30  O   UNL     1       2.445  -4.840   0.000  0.00  0.00    +0.000 OA
BRANCH  28  31
ATOM     31  C   UNL     1       3.572  -4.537   0.000  0.00  0.00    +0.000 C 
ATOM     32  C   UNL     1       4.287  -4.125   0.000  0.00  0.00    +0.000 C 
ATOM     33  C   UNL     1       3.572  -5.362   0.000  0.00  0.00    +0.000 C 
ENDBRANCH  28  31
ENDBRANCH  27  28
ENDBRANCH  23  27
ENDBRANCH   1  23
BRANCH   5  34
ATOM     34  C   UNL     1       1.245  -0.606   0.000  0.00  0.00    +0.000 C 
BRANCH  34  35
ATOM     35  C   UNL     1       0.963   0.170   0.000  0.00  0.00    +0.000 C 
ATOM     36  O   UNL     1       1.493   0.802   0.000  0.00  0.00    +0.000 OA
ATOM     37  O   UNL     1       0.150   0.313   0.000  0.00  0.00    +0.000 OA
ENDBRANCH  34  35
ENDBRANCH   5  34
TORSDOF 9
