REMARK  Name = 
REMARK  2 active torsions:
REMARK  status: ('A' for Active; 'I' for Inactive)
REMARK    1  A    between atoms: C_7  and  S_8
REMARK    2  A    between atoms: S_8  and  N_9
REMARK                            x       y       z     vdW  Elec       q    Type
REMARK                         _______ _______ _______ _____ _____    ______ ____
ROOT
ATOM      1  C   UNL     1       0.357  -0.770   0.000  0.00  0.00    +0.000 A 
ATOM      2  C   UNL     1      -0.357   0.468   0.000  0.00  0.00    +0.000 A 
ATOM      3  C   UNL     1      -1.072   0.055   0.000  0.00  0.00    +0.000 A 
ATOM      4  C   UNL     1      -0.357  -1.182   0.000  0.00  0.00    +0.000 A 
ATOM      5  C   UNL     1      -1.072  -0.770   0.000  0.00  0.00    +0.000 A 
ATOM      6  C   UNL     1      -1.786  -1.182   0.000  0.00  0.00    +0.000 C 
ATOM      7  C   UNL     1       0.357   0.055   0.000  0.00  0.00    +0.000 A 
ENDROOT
BRANCH   7   8
ATOM      8  S   UNL     1       1.072   0.468   0.000  0.00  0.00    +0.000 S 
ATOM      9  O   UNL     1       0.659   1.182   0.000  0.00  0.00    +0.000 OA
ATOM     10  O   UNL     1       1.484   1.182   0.000  0.00  0.00    +0.000 OA
BRANCH   8  11
ATOM     11  N   UNL     1       1.786   0.055   0.000  0.00  0.00    +0.000 NA
ATOM     12 CL   UNL     1       1.786  -0.770   0.000  0.00  0.00    +0.000 Cl
ENDBRANCH   8  11
ENDBRANCH   7   8
TORSDOF 2
