REMARK  Name = 
REMARK  10 active torsions:
REMARK  status: ('A' for Active; 'I' for Inactive)
REMARK    1  A    between atoms: P_1  and  O_5
REMARK    2  A    between atoms: O_5  and  C_23
REMARK    3  A    between atoms: N_16  and  C_25
REMARK    4  A    between atoms: N_17  and  C_28
REMARK    5  A    between atoms: N_17  and  C_30
REMARK    6  A    between atoms: C_21  and  C_23
REMARK    7  A    between atoms: C_25  and  C_26
REMARK    8  A    between atoms: C_26  and  C_27
REMARK    9  A    between atoms: C_27  and  C_28
REMARK   10  A    between atoms: C_28  and  C_29
REMARK                            x       y       z     vdW  Elec       q    Type
REMARK                         _______ _______ _______ _____ _____    ______ ____
ROOT
ATOM      1  O   UNL     1      -0.385  -1.572   0.000  0.00  0.00    +0.000 OA
ATOM      2  O   UNL     1       1.734  -1.317   0.000  0.00  0.00    +0.000 OA
ATOM      3  O   UNL     1       1.180  -3.024   0.000  0.00  0.00    +0.000 OA
ATOM      4  O   UNL     1      -1.170  -0.857   0.000  0.00  0.00    +0.000 OA
ATOM      5  O   UNL     1       1.180   0.850   0.000  0.00  0.00    +0.000 OA
ATOM      6  N   UNL     1       0.950  -0.603   0.000  0.00  0.00    +0.000 N 
ATOM      7  N   UNL     1      -0.130   0.182   0.000  0.00  0.00    +0.000 N 
ATOM      8  C   UNL     1       0.282  -1.087   0.000  0.00  0.00    +0.000 C 
ATOM      9  C   UNL     1       0.950  -1.572   0.000  0.00  0.00    +0.000 C 
ATOM     10  C   UNL     1       0.695  -2.357   0.000  0.00  0.00    +0.000 C 
ATOM     11  C   UNL     1      -0.130  -2.357   0.000  0.00  0.00    +0.000 C 
ATOM     12  C   UNL     1      -0.385  -0.603   0.000  0.00  0.00    +0.000 C 
ATOM     13  C   UNL     1       0.695   0.182   0.000  0.00  0.00    +0.000 C 
ATOM     14  H   UNL     1       1.436  -0.760   0.000  0.00  0.00    +0.000 HD
ENDROOT
BRANCH  11  15
ATOM     15  C   UNL     1      -0.615  -3.024   0.000  0.00  0.00    +0.000 C 
BRANCH  15  16
ATOM     16  O   UNL     1      -0.280  -3.778   0.000  0.00  0.00    +0.000 OA
BRANCH  16  17
ATOM     17  P   UNL     1      -0.764  -4.446   0.000  0.00  0.00    +0.000 P 
ATOM     18  O   UNL     1      -1.249  -5.113   0.000  0.00  0.00    +0.000 OA
ATOM     19  O   UNL     1      -0.097  -4.930   0.000  0.00  0.00    +0.000 OA
ATOM     20  O   UNL     1      -1.432  -3.961   0.000  0.00  0.00    +0.000 OA
ENDBRANCH  16  17
ENDBRANCH  15  16
ENDBRANCH  11  15
BRANCH   7  21
ATOM     21  C   UNL     1      -0.615   0.850   0.000  0.00  0.00    +0.000 C 
BRANCH  21  22
ATOM     22  C   UNL     1      -0.280   1.603   0.000  0.00  0.00    +0.000 C 
BRANCH  22  23
ATOM     23  C   UNL     1      -0.764   2.271   0.000  0.00  0.00    +0.000 C 
BRANCH  23  24
ATOM     24  C   UNL     1      -0.429   3.024   0.000  0.00  0.00    +0.000 C 
BRANCH  24  27
ATOM     25  O   UNL     1       0.727   3.864   0.000  0.00  0.00    +0.000 OA
ATOM     26  O   UNL     1       0.876   2.443   0.000  0.00  0.00    +0.000 OA
ATOM     27  C   UNL     1       0.392   3.111   0.000  0.00  0.00    +0.000 C 
ENDBRANCH  24  27
BRANCH  24  29
ATOM     28  O   UNL     1      -1.734   3.606   0.000  0.00  0.00    +0.000 OA
ATOM     29  N   UNL     1      -0.914   3.692   0.000  0.00  0.00    +0.000 NA
BRANCH  29  31
ATOM     30  O   UNL     1      -1.063   5.113   0.000  0.00  0.00    +0.000 OA
ATOM     31  C   UNL     1      -0.578   4.446   0.000  0.00  0.00    +0.000 C 
ENDBRANCH  29  31
ENDBRANCH  24  29
ENDBRANCH  23  24
ENDBRANCH  22  23
ENDBRANCH  21  22
ENDBRANCH   7  21
TORSDOF 10
