REMARK  Name = 
REMARK  0 active torsions:
REMARK  status: ('A' for Active; 'I' for Inactive)
REMARK                            x       y       z     vdW  Elec       q    Type
REMARK                         _______ _______ _______ _____ _____    ______ ____
ROOT
ATOM      1  C   UNL     1       1.508   0.926   0.000  0.00  0.00    +0.000 C 
ATOM      2  C   UNL     1       1.508   0.099   0.000  0.00  0.00    +0.000 C 
ATOM      3  C   UNL     1       0.794  -0.314   0.000  0.00  0.00    +0.000 C 
ATOM      4  C   UNL     1       0.080   0.099   0.000  0.00  0.00    +0.000 C 
ATOM      5  C   UNL     1      -0.633  -0.314   0.000  0.00  0.00    +0.000 C 
ATOM      6  C   UNL     1      -0.633  -1.136   0.000  0.00  0.00    +0.000 C 
ATOM      7  C   UNL     1      -1.347  -1.550   0.000  0.00  0.00    +0.000 C 
ATOM      8  C   UNL     1      -2.061  -1.136   0.000  0.00  0.00    +0.000 C 
ATOM      9  O   UNL     1      -2.775  -1.550   0.000  0.00  0.00    +0.000 OA
ATOM     10  C   UNL     1      -2.061  -0.314   0.000  0.00  0.00    +0.000 C 
ATOM     11  C   UNL     1      -1.347   0.099   0.000  0.00  0.00    +0.000 C 
ATOM     12  C   UNL     1       0.080  -1.550   0.000  0.00  0.00    +0.000 C 
ATOM     13  C   UNL     1       0.794  -1.136   0.000  0.00  0.00    +0.000 C 
ATOM     14  C   UNL     1       0.080   0.926   0.000  0.00  0.00    +0.000 C 
ATOM     15  C   UNL     1       0.794   1.335   0.000  0.00  0.00    +0.000 C 
ATOM     16  C   UNL     1       2.291  -0.155   0.000  0.00  0.00    +0.000 C 
ATOM     17  C   UNL     1       2.775   0.513   0.000  0.00  0.00    +0.000 C 
ATOM     18  C   UNL     1       2.291   1.181   0.000  0.00  0.00    +0.000 C 
ATOM     19  O   UNL     1       2.545   1.963   0.000  0.00  0.00    +0.000 OA
ATOM     20  C   UNL     1       1.593   1.744   0.000  0.00  0.00    +0.000 C 
ENDROOT
TORSDOF 0
