REMARK  Name = 
REMARK  0 active torsions:
REMARK  status: ('A' for Active; 'I' for Inactive)
REMARK                            x       y       z     vdW  Elec       q    Type
REMARK                         _______ _______ _______ _____ _____    ______ ____
ROOT
ATOM      1  N   UNL     1       0.000   0.941   0.000  0.00  0.00    +0.000 NA
ATOM      2  C   UNL     1      -0.667   0.456   0.000  0.00  0.00    +0.000 A 
ATOM      3  C   UNL     1       0.412  -0.328   0.000  0.00  0.00    +0.000 A 
ATOM      4  C   UNL     1       0.667   0.456   0.000  0.00  0.00    +0.000 A 
ATOM      5  C   UNL     1      -0.412  -0.328   0.000  0.00  0.00    +0.000 A 
ATOM      6  C   UNL     1       0.965  -0.941   0.000  0.00  0.00    +0.000 A 
ATOM      7  C   UNL     1       1.771  -0.770   0.000  0.00  0.00    +0.000 A 
ATOM      8  C   UNL     1       2.026   0.015   0.000  0.00  0.00    +0.000 A 
ATOM      9  C   UNL     1       1.474   0.628   0.000  0.00  0.00    +0.000 A 
ATOM     10  C   UNL     1      -0.965  -0.941   0.000  0.00  0.00    +0.000 A 
ATOM     11  C   UNL     1      -1.474   0.628   0.000  0.00  0.00    +0.000 A 
ATOM     12  C   UNL     1      -2.026   0.015   0.000  0.00  0.00    +0.000 A 
ATOM     13  C   UNL     1      -1.772  -0.770   0.000  0.00  0.00    +0.000 A 
ENDROOT
TORSDOF 0
