REMARK  Name = 
REMARK  5 active torsions:
REMARK  status: ('A' for Active; 'I' for Inactive)
REMARK    1  A    between atoms: C_2  and  N_5
REMARK    2  A    between atoms: N_5  and  C_6
REMARK    3  A    between atoms: C_6  and  C_7
REMARK    4  A    between atoms: C_9  and  N_10
REMARK    5  A    between atoms: N_10  and  C_11
REMARK                            x       y       z     vdW  Elec       q    Type
REMARK                         _______ _______ _______ _____ _____    ______ ____
ROOT
ATOM      1  C   UNL     1       3.572  -1.238   0.000  0.00  0.00    +0.000 A 
ATOM      2  C   UNL     1       3.572  -0.412   0.000  0.00  0.00    +0.000 A 
ATOM      3  C   UNL     1       4.287   0.000   0.000  0.00  0.00    +0.000 A 
ATOM      4  C   UNL     1       5.001  -0.412   0.000  0.00  0.00    +0.000 A 
ATOM      5  C   UNL     1       5.716   0.000   0.000  0.00  0.00    +0.000 C 
ATOM      6  C   UNL     1       6.430  -0.412   0.000  0.00  0.00    +0.000 C 
ATOM      7  C   UNL     1       6.430  -1.238   0.000  0.00  0.00    +0.000 C 
ATOM      8  C   UNL     1       5.716  -1.650   0.000  0.00  0.00    +0.000 C 
ATOM      9  C   UNL     1       5.001  -1.238   0.000  0.00  0.00    +0.000 A 
ATOM     10  C   UNL     1       4.287  -1.650   0.000  0.00  0.00    +0.000 A 
ATOM     11  O   UNL     1       4.287  -2.475   0.000  0.00  0.00    +0.000 OA
ENDROOT
BRANCH   1  12
ATOM     12  C   UNL     1       2.858  -1.650   0.000  0.00  0.00    +0.000 C 
BRANCH  12  13
ATOM     13  N   UNL     1       2.858  -2.475   0.000  0.00  0.00    +0.000 NA
BRANCH  13  15
ATOM     14  C   UNL     1       1.429  -3.300   0.000  0.00  0.00    +0.000 C 
ATOM     15  C   UNL     1       2.143  -2.888   0.000  0.00  0.00    +0.000 C 
ATOM     16  C   UNL     1       2.556  -3.602   0.000  0.00  0.00    +0.000 C 
ATOM     17  C   UNL     1       1.731  -2.173   0.000  0.00  0.00    +0.000 C 
ENDBRANCH  13  15
ENDBRANCH  12  13
ENDBRANCH   1  12
BRANCH   3  18
ATOM     18  N   UNL     1       4.287   0.825   0.000  0.00  0.00    +0.000 NA
BRANCH  18  19
ATOM     19  C   UNL     1       3.572   1.238   0.000  0.00  0.00    +0.000 A 
ATOM     20  C   UNL     1       2.858   0.825   0.000  0.00  0.00    +0.000 A 
ATOM     21  C   UNL     1       2.143   1.238   0.000  0.00  0.00    +0.000 A 
ATOM     22  N   UNL     1       2.143   2.062   0.000  0.00  0.00    +0.000 NA
ATOM     23  C   UNL     1       2.858   2.475   0.000  0.00  0.00    +0.000 A 
ATOM     24  C   UNL     1       2.858   3.300   0.000  0.00  0.00    +0.000 A 
ATOM     25  C   UNL     1       3.572   3.712   0.000  0.00  0.00    +0.000 A 
ATOM     26 CL   UNL     1       3.572   4.537   0.000  0.00  0.00    +0.000 Cl
ATOM     27  C   UNL     1       4.287   3.300   0.000  0.00  0.00    +0.000 A 
ATOM     28  C   UNL     1       4.287   2.475   0.000  0.00  0.00    +0.000 A 
ATOM     29  C   UNL     1       3.572   2.062   0.000  0.00  0.00    +0.000 A 
ENDBRANCH  18  19
ENDBRANCH   3  18
TORSDOF 5
