REMARK  Name = 
REMARK  1 active torsions:
REMARK  status: ('A' for Active; 'I' for Inactive)
REMARK    1  A    between atoms: CA_5  and  C_6
REMARK                            x       y       z     vdW  Elec       q    Type
REMARK                         _______ _______ _______ _____ _____    ______ ____
ROOT
ATOM      1  CB  HYP A   1       1.235   0.629   0.000  0.00  0.00    +0.000 C 
ATOM      2  CG  HYP A   1       0.980  -0.155   0.000  0.00  0.00    +0.000 C 
ATOM      3  CD  HYP A   1       0.155  -0.155   0.000  0.00  0.00    +0.000 C 
ATOM      4  N   HYP A   1      -0.100   0.629   0.000  0.00  0.00    +0.000 NA
ATOM      5  CA  HYP A   1       0.568   1.114   0.000  0.00  0.00    +0.000 C 
ATOM      6  OD  HYP A   1       1.465  -0.823   0.000  0.00  0.00    +0.000 OA
ENDROOT
BRANCH   5   7
ATOM      7  C   HYP A   1       0.568   1.939   0.000  0.00  0.00    +0.000 C 
ATOM      8  O   HYP A   1      -0.147   2.352   0.000  0.00  0.00    +0.000 OA
ATOM      9  OXT HYP A   1       1.282   2.352   0.000  0.00  0.00    +0.000 OA
ENDBRANCH   5   7
TORSDOF 1
