REMARK  Name = 
REMARK  0 active torsions:
REMARK  status: ('A' for Active; 'I' for Inactive)
REMARK                            x       y       z     vdW  Elec       q    Type
REMARK                         _______ _______ _______ _____ _____    ______ ____
ROOT
ATOM      1  C   UNL     1       3.462   2.312   0.000  0.00  0.00    +0.000 C 
ATOM      2  C   UNL     1       3.300   1.503   0.000  0.00  0.00    +0.000 A 
ATOM      3  C   UNL     1       3.919   0.958   0.000  0.00  0.00    +0.000 A 
ATOM      4  C   UNL     1       4.701   1.221   0.000  0.00  0.00    +0.000 A 
ATOM      5  C   UNL     1       5.320   0.676   0.000  0.00  0.00    +0.000 A 
ATOM      6  N   UNL     1       5.157  -0.133   0.000  0.00  0.00    +0.000 NA
ATOM      7  C   UNL     1       4.375  -0.396   0.000  0.00  0.00    +0.000 A 
ATOM      8  C   UNL     1       3.756   0.149   0.000  0.00  0.00    +0.000 A 
ATOM      9  C   UNL     1       2.974  -0.115   0.000  0.00  0.00    +0.000 A 
ATOM     10  C   UNL     1       2.812  -0.923   0.000  0.00  0.00    +0.000 C 
ATOM     11  C   UNL     1       2.355   0.431   0.000  0.00  0.00    +0.000 A 
ATOM     12  C   UNL     1       2.518   1.239   0.000  0.00  0.00    +0.000 A 
ATOM     13  N   UNL     1       1.799   1.644   0.000  0.00  0.00    +0.000 NA
ATOM     14  C   UNL     1       1.192   1.085   0.000  0.00  0.00    +0.000 A 
ATOM     15  C   UNL     1       1.536   0.335   0.000  0.00  0.00    +0.000 A 
ATOM     16  C   UNL     1       1.058  -0.337   0.000  0.00  0.00    +0.000 A 
ATOM     17  C   UNL     1       0.237  -0.260   0.000  0.00  0.00    +0.000 A 
ATOM     18  C   UNL     1      -0.107   0.490   0.000  0.00  0.00    +0.000 A 
ATOM     19  C   UNL     1       0.371   1.162   0.000  0.00  0.00    +0.000 A 
ENDROOT
TORSDOF 0
