REMARK  Name = 
REMARK  8 active torsions:
REMARK  status: ('A' for Active; 'I' for Inactive)
REMARK    1  A    between atoms: N_1  and  C_3
REMARK    2  A    between atoms: C_12  and  C_16
REMARK    3  A    between atoms: C_16  and  O_17
REMARK    4  A    between atoms: O_17  and  P_18
REMARK    5  A    between atoms: P_18  and  O_19
REMARK    6  A    between atoms: O_19  and  P_22
REMARK    7  A    between atoms: P_22  and  O_23
REMARK    8  A    between atoms: O_23  and  P_26
REMARK                            x       y       z     vdW  Elec       q    Type
REMARK                         _______ _______ _______ _____ _____    ______ ____
ROOT
ATOM      1  C   UNL     1       3.943  -1.735   0.000  0.00  0.00    +0.000 C 
ATOM      2  O   UNL     1       2.925  -1.167   0.000  0.00  0.00    +0.000 OA
ATOM      3  C   UNL     1       3.550  -2.511   0.000  0.00  0.00    +0.000 C 
ATOM      4  C   UNL     1       1.911  -1.735   0.000  0.00  0.00    +0.000 C 
ATOM      5  C   UNL     1       2.289  -2.511   0.000  0.00  0.00    +0.000 C 
ENDROOT
BRANCH   1   6
ATOM      6  N   UNL     1       3.932   0.059   0.000  0.00  0.00    +0.000 N 
ATOM      7  C   UNL     1       3.228   0.467   0.000  0.00  0.00    +0.000 A 
ATOM      8  C   UNL     1       4.647   0.471   0.000  0.00  0.00    +0.000 A 
ATOM      9  C   UNL     1       3.224   1.292   0.000  0.00  0.00    +0.000 A 
ATOM     10  N   UNL     1       2.520   0.062   0.000  0.00  0.00    +0.000 NA
ATOM     11  N   UNL     1       4.643   1.296   0.000  0.00  0.00    +0.000 NA
ATOM     12  C   UNL     1       2.516   1.697   0.000  0.00  0.00    +0.000 A 
ATOM     13  C   UNL     1       1.813   0.467   0.000  0.00  0.00    +0.000 A 
ATOM     14  N   UNL     1       1.813   1.288   0.000  0.00  0.00    +0.000 NA
ATOM     15  N   UNL     1       2.516   2.511   0.000  0.00  0.00    +0.000 NA
ENDBRANCH   1   6
BRANCH   4  16
ATOM     16  C   UNL     1       1.302  -1.220   0.000  0.00  0.00    +0.000 C 
BRANCH  16  17
ATOM     17  O   UNL     1       0.435  -1.587   0.000  0.00  0.00    +0.000 OA
BRANCH  17  18
ATOM     18  P   UNL     1      -0.609  -1.190   0.000  0.00  0.00    +0.000 P 
ATOM     19  O   UNL     1      -0.609  -0.452   0.000  0.00  0.00    +0.000 OA
ATOM     20  O   UNL     1      -0.609  -1.943   0.000  0.00  0.00    +0.000 OA
BRANCH  18  21
ATOM     21  O   UNL     1      -1.536  -1.625   0.000  0.00  0.00    +0.000 OA
BRANCH  21  22
ATOM     22  P   UNL     1      -2.240  -1.160   0.000  0.00  0.00    +0.000 P 
ATOM     23  O   UNL     1      -2.240  -0.441   0.000  0.00  0.00    +0.000 OA
ATOM     24  O   UNL     1      -2.240  -1.913   0.000  0.00  0.00    +0.000 OA
BRANCH  22  25
ATOM     25  O   UNL     1      -3.077  -1.625   0.000  0.00  0.00    +0.000 OA
BRANCH  25  26
ATOM     26  P   UNL     1      -3.901  -1.254   0.000  0.00  0.00    +0.000 P 
ATOM     27  O   UNL     1      -3.901  -0.528   0.000  0.00  0.00    +0.000 OA
ATOM     28  O   UNL     1      -4.647  -1.500   0.000  0.00  0.00    +0.000 OA
ATOM     29  O   UNL     1      -3.901  -2.004   0.000  0.00  0.00    +0.000 OA
ENDBRANCH  25  26
ENDBRANCH  22  25
ENDBRANCH  21  22
ENDBRANCH  18  21
ENDBRANCH  17  18
ENDBRANCH  16  17
ENDBRANCH   4  16
TORSDOF 8
