REMARK  Name = 
REMARK  6 active torsions:
REMARK  status: ('A' for Active; 'I' for Inactive)
REMARK    1  A    between atoms: C_5  and  C_7
REMARK    2  A    between atoms: C_8  and  C_9
REMARK    3  A    between atoms: C_10  and  C_11
REMARK    4  A    between atoms: C_12  and  C_13
REMARK    5  A    between atoms: C_14  and  C_15
REMARK    6  A    between atoms: N_16  and  C_23
REMARK                            x       y       z     vdW  Elec       q    Type
REMARK                         _______ _______ _______ _____ _____    ______ ____
ROOT
ATOM      1  C   UNL     1      -1.430   0.595   0.000  0.00  0.00    +0.000 C 
ATOM      2  C   UNL     1      -0.716   0.182   0.000  0.00  0.00    +0.000 C 
ATOM      3  C   UNL     1      -1.428   1.422   0.000  0.00  0.00    +0.000 C 
ENDROOT
BRANCH   2   4
ATOM      4  C   UNL     1      -0.002   0.591   0.000  0.00  0.00    +0.000 C 
ATOM      5  C   UNL     1       0.712   0.177   0.000  0.00  0.00    +0.000 C 
BRANCH   5   6
ATOM      6  C   UNL     1       1.426   0.587   0.000  0.00  0.00    +0.000 C 
ATOM      7  C   UNL     1       2.140   0.173   0.000  0.00  0.00    +0.000 C 
ATOM      8  C   UNL     1       1.422   1.409   0.000  0.00  0.00    +0.000 C 
BRANCH   7   9
ATOM      9  C   UNL     1       2.854   0.583   0.000  0.00  0.00    +0.000 C 
ATOM     10  N   UNL     1       3.568   0.169   0.000  0.00  0.00    +0.000 NA
ATOM     11  O   UNL     1       2.856   1.409   0.000  0.00  0.00    +0.000 OA
BRANCH  10  12
ATOM     12  C   UNL     1       4.282   0.583   0.000  0.00  0.00    +0.000 C 
ATOM     13  C   UNL     1       4.996   0.169   0.000  0.00  0.00    +0.000 C 
ENDBRANCH  10  12
ENDBRANCH   7   9
ENDBRANCH   5   6
ENDBRANCH   2   4
BRANCH   1  15
ATOM     14  C   UNL     1      -2.858   0.599   0.000  0.00  0.00    +0.000 C 
ATOM     15  C   UNL     1      -2.144   0.186   0.000  0.00  0.00    +0.000 C 
BRANCH  14  20
ATOM     16  C   UNL     1      -4.996   0.190   0.000  0.00  0.00    +0.000 C 
ATOM     17  C   UNL     1      -4.996  -0.637   0.000  0.00  0.00    +0.000 C 
ATOM     18  C   UNL     1      -4.283  -1.046   0.000  0.00  0.00    +0.000 C 
ATOM     19  C   UNL     1      -3.569  -0.637   0.000  0.00  0.00    +0.000 C 
ATOM     20  C   UNL     1      -3.569   0.190   0.000  0.00  0.00    +0.000 C 
ATOM     21  C   UNL     1      -4.283   0.608   0.000  0.00  0.00    +0.000 C 
ATOM     22  C   UNL     1      -4.283   1.434   0.000  0.00  0.00    +0.000 C 
ATOM     23  C   UNL     1      -3.368  -1.434   0.000  0.00  0.00    +0.000 C 
ATOM     24  C   UNL     1      -2.750  -0.633   0.000  0.00  0.00    +0.000 C 
ENDBRANCH  14  20
ENDBRANCH   1  15
TORSDOF 6
