REMARK  Name = 
REMARK  4 active torsions:
REMARK  status: ('A' for Active; 'I' for Inactive)
REMARK    1  A    between atoms: C_3  and  C_8
REMARK    2  A    between atoms: C_11  and  C_14
REMARK    3  A    between atoms: N_16  and  CA_17
REMARK    4  A    between atoms: CA_17  and  C_18
REMARK                            x       y       z     vdW  Elec       q    Type
REMARK                         _______ _______ _______ _____ _____    ______ ____
ROOT
ATOM      1  C   UNK A   1      -1.429   1.650   0.000  0.00  0.00    +0.000 A 
ATOM      2  C   UNK A   1      -1.429   2.475   0.000  0.00  0.00    +0.000 A 
ATOM      3  C   UNK A   1      -0.715   2.888   0.000  0.00  0.00    +0.000 A 
ATOM      4  C   UNK A   1       0.000   2.475   0.000  0.00  0.00    +0.000 A 
ATOM      5  N   UNK A   1       0.000   1.650   0.000  0.00  0.00    +0.000 NA
ATOM      6  C   UNK A   1      -0.715   1.238   0.000  0.00  0.00    +0.000 A 
ATOM      7  O   UNK A   1      -0.715   3.712   0.000  0.00  0.00    +0.000 OA
ENDROOT
BRANCH   1  10
ATOM      8  C   UNK A   1      -3.572   1.238   0.000  0.00  0.00    +0.000 A 
ATOM      9  C   UNK A   1      -2.858   1.650   0.000  0.00  0.00    +0.000 A 
ATOM     10  C   UNK A   1      -2.143   1.238   0.000  0.00  0.00    +0.000 A 
ATOM     11  C   UNK A   1      -2.143   0.412   0.000  0.00  0.00    +0.000 A 
ATOM     12  C   UNK A   1      -2.858   0.000   0.000  0.00  0.00    +0.000 A 
ATOM     13  C   UNK A   1      -3.572   0.412   0.000  0.00  0.00    +0.000 A 
ATOM     14 CL   UNK A   1      -2.858  -0.825   0.000  0.00  0.00    +0.000 Cl
ENDBRANCH   1  10
BRANCH   4  15
ATOM     15  C   UNK A   1       0.715   2.888   0.000  0.00  0.00    +0.000 C 
ATOM     16  O   UNK A   1       0.715   3.712   0.000  0.00  0.00    +0.000 OA
ATOM     17  N   GLY A   2       1.429   2.475   0.000  0.00  0.00    +0.000 NA
BRANCH  17  18
ATOM     18  CA  GLY A   2       2.143   2.888   0.000  0.00  0.00    +0.000 C 
BRANCH  18  19
ATOM     19  C   GLY A   2       2.858   2.475   0.000  0.00  0.00    +0.000 C 
ATOM     20  O   GLY A   2       3.572   2.888   0.000  0.00  0.00    +0.000 OA
ATOM     21  OXT GLY A   2       2.858   1.650   0.000  0.00  0.00    +0.000 OA
ENDBRANCH  18  19
ENDBRANCH  17  18
ENDBRANCH   4  15
TORSDOF 4
