REMARK  Name = 
REMARK  6 active torsions:
REMARK  status: ('A' for Active; 'I' for Inactive)
REMARK    1  A    between atoms: C_7  and  C_8
REMARK    2  A    between atoms: C_8  and  C_9
REMARK    3  A    between atoms: C_9  and  C_10
REMARK    4  A    between atoms: C_10  and  C_11
REMARK    5  A    between atoms: C_11  and  C_12
REMARK    6  A    between atoms: C_12  and  C_13
REMARK                            x       y       z     vdW  Elec       q    Type
REMARK                         _______ _______ _______ _____ _____    ______ ____
ROOT
ATOM      1  C   UNL     1      -0.739  -0.861   0.000  0.00  0.00    +0.000 C 
ENDROOT
BRANCH   1   8
ATOM      2  C   UNL     1      -1.453   0.376   0.000  0.00  0.00    +0.000 C 
ATOM      3  N   UNL     1      -2.238  -0.704   0.000  0.00  0.00    +0.000 NA
ATOM      4  N   UNL     1      -2.238   0.631   0.000  0.00  0.00    +0.000 NA
ATOM      5  C   UNL     1      -0.786   0.861   0.000  0.00  0.00    +0.000 C 
ATOM      6  C   UNL     1      -2.723  -0.036   0.000  0.00  0.00    +0.000 C 
ATOM      7  O   UNL     1      -3.548  -0.036   0.000  0.00  0.00    +0.000 OA
ATOM      8  C   UNL     1      -1.453  -0.449   0.000  0.00  0.00    +0.000 C 
ENDBRANCH   1   8
BRANCH   1   9
ATOM      9  C   UNL     1      -0.024  -0.449   0.000  0.00  0.00    +0.000 C 
BRANCH   9  10
ATOM     10  C   UNL     1       0.690  -0.861   0.000  0.00  0.00    +0.000 C 
BRANCH  10  11
ATOM     11  C   UNL     1       1.405  -0.449   0.000  0.00  0.00    +0.000 C 
BRANCH  11  12
ATOM     12  C   UNL     1       2.119  -0.861   0.000  0.00  0.00    +0.000 C 
BRANCH  12  13
ATOM     13  C   UNL     1       2.833  -0.449   0.000  0.00  0.00    +0.000 C 
ATOM     14  O   UNL     1       2.833   0.376   0.000  0.00  0.00    +0.000 OA
ATOM     15  O   UNL     1       3.548  -0.861   0.000  0.00  0.00    +0.000 OA
ENDBRANCH  12  13
ENDBRANCH  11  12
ENDBRANCH  10  11
ENDBRANCH   9  10
ENDBRANCH   1   9
TORSDOF 6
