REMARK  Name = 
REMARK  5 active torsions:
REMARK  status: ('A' for Active; 'I' for Inactive)
REMARK    1  A    between atoms: C_4  and  N_11
REMARK    2  A    between atoms: C_7  and  O_29
REMARK    3  A    between atoms: C_8  and  O_27
REMARK    4  A    between atoms: C_13  and  O_16
REMARK    5  A    between atoms: O_16  and  C_18
REMARK                            x       y       z     vdW  Elec       q    Type
REMARK                         _______ _______ _______ _____ _____    ______ ____
ROOT
ATOM      1  N   UNL     1       1.975  -0.312   0.000  0.00  0.00    +0.000 N 
ATOM      2  C   UNL     1       1.307   0.173   0.000  0.00  0.00    +0.000 C 
ATOM      3  C   UNL     1       1.562   0.957   0.000  0.00  0.00    +0.000 C 
ATOM      4  C   UNL     1       2.387   0.957   0.000  0.00  0.00    +0.000 C 
ATOM      5  C   UNL     1       2.642   0.173   0.000  0.00  0.00    +0.000 C 
ENDROOT
BRANCH   1   9
ATOM      6  N   UNL     1       1.975  -2.787   0.000  0.00  0.00    +0.000 NA
ATOM      7  C   UNL     1       2.689  -2.375   0.000  0.00  0.00    +0.000 A 
ATOM      8  N   UNL     1       2.689  -1.550   0.000  0.00  0.00    +0.000 NA
ATOM      9  C   UNL     1       1.975  -1.137   0.000  0.00  0.00    +0.000 A 
ATOM     10  C   UNL     1       1.260  -1.550   0.000  0.00  0.00    +0.000 A 
ATOM     11  C   UNL     1       0.546  -1.137   0.000  0.00  0.00    +0.000 A 
ATOM     12  C   UNL     1      -0.169  -1.550   0.000  0.00  0.00    +0.000 A 
ATOM     13  C   UNL     1      -0.169  -2.375   0.000  0.00  0.00    +0.000 A 
ATOM     14  C   UNL     1       0.546  -2.787   0.000  0.00  0.00    +0.000 A 
ATOM     15  C   UNL     1       1.260  -2.375   0.000  0.00  0.00    +0.000 A 
BRANCH  13  16
ATOM     16  O   UNL     1      -0.883  -2.787   0.000  0.00  0.00    +0.000 OA
ATOM     17  C   UNL     1      -1.597  -2.375   0.000  0.00  0.00    +0.000 C 
ENDBRANCH  13  16
BRANCH  12  18
ATOM     18  O   UNL     1      -0.883  -1.137   0.000  0.00  0.00    +0.000 OA
ATOM     19  C   UNL     1      -1.597  -1.550   0.000  0.00  0.00    +0.000 C 
ENDBRANCH  12  18
ENDBRANCH   1   9
BRANCH   3  20
ATOM     20  O   UNL     1       1.077   1.625   0.000  0.00  0.00    +0.000 OA
BRANCH  20  22
ATOM     21  N   UNL     1      -0.228   2.206   0.000  0.00  0.00    +0.000 NA
ATOM     22  C   UNL     1       0.257   1.538   0.000  0.00  0.00    +0.000 A 
ATOM     23  C   UNL     1      -0.079   0.785   0.000  0.00  0.00    +0.000 A 
ATOM     24  N   UNL     1      -0.899   0.699   0.000  0.00  0.00    +0.000 NA
ATOM     25  C   UNL     1      -1.384   1.366   0.000  0.00  0.00    +0.000 A 
ATOM     26  C   UNL     1      -2.204   1.280   0.000  0.00  0.00    +0.000 A 
ATOM     27  C   UNL     1      -2.689   1.947   0.000  0.00  0.00    +0.000 A 
ATOM     28  C   UNL     1      -2.354   2.701   0.000  0.00  0.00    +0.000 A 
ATOM     29  C   UNL     1      -1.533   2.787   0.000  0.00  0.00    +0.000 A 
ATOM     30  C   UNL     1      -1.048   2.120   0.000  0.00  0.00    +0.000 A 
ENDBRANCH  20  22
ENDBRANCH   3  20
TORSDOF 5
