REMARK  Name = 
REMARK  5 active torsions:
REMARK  status: ('A' for Active; 'I' for Inactive)
REMARK    1  A    between atoms: C_3  and  C_29
REMARK    2  A    between atoms: C_6  and  C_7
REMARK    3  A    between atoms: C_9  and  C_25
REMARK    4  A    between atoms: C_13  and  C_16
REMARK    5  A    between atoms: C_17  and  C_18
REMARK                            x       y       z     vdW  Elec       q    Type
REMARK                         _______ _______ _______ _____ _____    ______ ____
ROOT
ATOM      1  C   UNL     1       3.352   1.935   0.000  0.00  0.00    +0.000 A 
ATOM      2  C   UNL     1       3.352   1.110   0.000  0.00  0.00    +0.000 A 
ATOM      3  C   UNL     1       2.638   0.698   0.000  0.00  0.00    +0.000 A 
ATOM      4  N   UNL     1       1.923   1.110   0.000  0.00  0.00    +0.000 N 
ATOM      5  C   UNL     1       1.923   1.935   0.000  0.00  0.00    +0.000 A 
ATOM      6  N   UNL     1       2.638   2.348   0.000  0.00  0.00    +0.000 NA
ATOM      7  C   UNL     1       1.139   2.190   0.000  0.00  0.00    +0.000 A 
ATOM      8  C   UNL     1       0.654   1.523   0.000  0.00  0.00    +0.000 A 
ATOM      9  N   UNL     1       1.139   0.856   0.000  0.00  0.00    +0.000 NA
ENDROOT
BRANCH   1  15
ATOM     10  C   UNL     1       4.067   3.173   0.000  0.00  0.00    +0.000 A 
ATOM     11  C   UNL     1       4.781   3.585   0.000  0.00  0.00    +0.000 A 
ATOM     12  C   UNL     1       5.496   3.173   0.000  0.00  0.00    +0.000 A 
ATOM     13  C   UNL     1       5.496   2.348   0.000  0.00  0.00    +0.000 A 
ATOM     14  C   UNL     1       4.781   1.935   0.000  0.00  0.00    +0.000 A 
ATOM     15  C   UNL     1       4.067   2.348   0.000  0.00  0.00    +0.000 A 
BRANCH  12  16
ATOM     16  C   UNL     1       6.210   3.585   0.000  0.00  0.00    +0.000 C 
ATOM     17  F   UNL     1       6.925   3.998   0.000  0.00  0.00    +0.000 F 
ATOM     18  F   UNL     1       6.623   2.871   0.000  0.00  0.00    +0.000 F 
ATOM     19  F   UNL     1       5.798   4.300   0.000  0.00  0.00    +0.000 F 
ENDBRANCH  12  16
ENDBRANCH   1  15
BRANCH   3  20
ATOM     20  C   UNL     1       2.638  -0.127   0.000  0.00  0.00    +0.000 C 
ATOM     21  F   UNL     1       2.638  -0.952   0.000  0.00  0.00    +0.000 F 
ATOM     22  F   UNL     1       1.813  -0.127   0.000  0.00  0.00    +0.000 F 
ATOM     23  F   UNL     1       3.463  -0.127   0.000  0.00  0.00    +0.000 F 
ENDBRANCH   3  20
BRANCH   7  24
ATOM     24  C   UNL     1       0.884   2.975   0.000  0.00  0.00    +0.000 C 
ATOM     25  C   UNL     1       0.629   3.760   0.000  0.00  0.00    +0.000 C 
BRANCH  25  26
ATOM     26  C   UNL     1       0.374   4.544   0.000  0.00  0.00    +0.000 A 
ATOM     27  C   UNL     1      -0.433   4.716   0.000  0.00  0.00    +0.000 A 
ATOM     28  C   UNL     1      -0.688   5.500   0.000  0.00  0.00    +0.000 A 
ATOM     29  C   UNL     1      -0.136   6.114   0.000  0.00  0.00    +0.000 A 
ATOM     30  N   UNL     1       0.671   5.942   0.000  0.00  0.00    +0.000 NA
ATOM     31  C   UNL     1       0.926   5.157   0.000  0.00  0.00    +0.000 A 
ATOM     32  N   UNL     1      -0.391   6.898   0.000  0.00  0.00    +0.000 NA
ENDBRANCH  25  26
ENDBRANCH   7  24
TORSDOF 5
