REMARK  Name = 
REMARK  13 active torsions:
REMARK  status: ('A' for Active; 'I' for Inactive)
REMARK    1  A    between atoms: P_1  and  O_6
REMARK    2  A    between atoms: P_1  and  O_7
REMARK    3  A    between atoms: P_2  and  O_7
REMARK    4  A    between atoms: P_2  and  O_10
REMARK    5  A    between atoms: O_6  and  C_31
REMARK    6  A    between atoms: O_10  and  C_41
REMARK    7  A    between atoms: N_18  and  C_29
REMARK    8  A    between atoms: N_21  and  C_37
REMARK    9  A    between atoms: C_30  and  C_31
REMARK   10  A    between atoms: C_35  and  C_36
REMARK   11  A    between atoms: C_35  and  C_37
REMARK   12  A    between atoms: C_36  and  C_39
REMARK   13  A    between atoms: C_39  and  C_41
REMARK                            x       y       z     vdW  Elec       q    Type
REMARK                         _______ _______ _______ _____ _____    ______ ____
ROOT
ATOM      1  O   UNL     1       0.477  -0.949   0.000  0.00  0.00    +0.000 OA
ENDROOT
BRANCH   1   2
ATOM      2  P   UNL     1       0.477  -0.124   0.000  0.00  0.00    +0.000 P 
ATOM      3  O   UNL     1      -0.348  -0.124   0.000  0.00  0.00    +0.000 OA
ATOM      4  O   UNL     1       1.302  -0.124   0.000  0.00  0.00    +0.000 OA
BRANCH   2   5
ATOM      5  O   UNL     1       0.477   0.701   0.000  0.00  0.00    +0.000 OA
BRANCH   5   6
ATOM      6  P   UNL     1      -0.237   1.113   0.000  0.00  0.00    +0.000 P 
ATOM      7  O   UNL     1       0.175   1.827   0.000  0.00  0.00    +0.000 OA
ATOM      8  O   UNL     1      -0.650   0.399   0.000  0.00  0.00    +0.000 OA
BRANCH   6   9
ATOM      9  O   UNL     1      -0.952   1.525   0.000  0.00  0.00    +0.000 OA
BRANCH   9  10
ATOM     10  C   UNL     1      -0.952   2.350   0.000  0.00  0.00    +0.000 C 
BRANCH  10  17
ATOM     11  O   UNL     1      -1.752   3.583   0.000  0.00  0.00    +0.000 OA
ATOM     12  O   UNL     1      -3.792   2.954   0.000  0.00  0.00    +0.000 OA
ATOM     13  O   UNL     1      -2.591   1.620   0.000  0.00  0.00    +0.000 OA
ATOM     14  C   UNL     1      -2.972   3.040   0.000  0.00  0.00    +0.000 C 
ATOM     15  C   UNL     1      -2.420   2.427   0.000  0.00  0.00    +0.000 C 
ATOM     16  C   UNL     1      -2.559   3.755   0.000  0.00  0.00    +0.000 C 
ATOM     17  C   UNL     1      -1.666   2.763   0.000  0.00  0.00    +0.000 C 
BRANCH  16  18
ATOM     18  N   UNL     1      -2.895   4.508   0.000  0.00  0.00    +0.000 N 
ATOM     19  N   UNL     1      -3.031   5.829   0.000  0.00  0.00    +0.000 NA
ATOM     20  N   UNL     1      -4.365   4.194   0.000  0.00  0.00    +0.000 NA
ATOM     21  N   UNL     1      -5.203   5.352   0.000  0.00  0.00    +0.000 NA
ATOM     22  N   UNL     1      -4.620   6.656   0.000  0.00  0.00    +0.000 NA
ATOM     23  C   UNL     1      -3.697   4.678   0.000  0.00  0.00    +0.000 A 
ATOM     24  C   UNL     1      -2.484   5.218   0.000  0.00  0.00    +0.000 A 
ATOM     25  C   UNL     1      -3.782   5.499   0.000  0.00  0.00    +0.000 A 
ATOM     26  C   UNL     1      -4.535   5.836   0.000  0.00  0.00    +0.000 A 
ATOM     27  C   UNL     1      -5.118   4.531   0.000  0.00  0.00    +0.000 A 
ENDBRANCH  16  18
ENDBRANCH  10  17
ENDBRANCH   9  10
ENDBRANCH   6   9
ENDBRANCH   5   6
ENDBRANCH   2   5
ENDBRANCH   1   2
BRANCH   1  28
ATOM     28  C   UNL     1       1.192  -1.362   0.000  0.00  0.00    +0.000 C 
BRANCH  28  30
ATOM     29  O   UNL     1       0.477  -2.599   0.000  0.00  0.00    +0.000 OA
ATOM     30  C   UNL     1       1.192  -2.187   0.000  0.00  0.00    +0.000 C 
BRANCH  30  32
ATOM     31  O   UNL     1       2.620  -2.187   0.000  0.00  0.00    +0.000 OA
ATOM     32  C   UNL     1       1.906  -2.599   0.000  0.00  0.00    +0.000 C 
BRANCH  32  34
ATOM     33  O   UNL     1       1.192  -3.837   0.000  0.00  0.00    +0.000 OA
ATOM     34  C   UNL     1       1.906  -3.424   0.000  0.00  0.00    +0.000 C 
BRANCH  34  35
ATOM     35  C   UNL     1       2.620  -3.837   0.000  0.00  0.00    +0.000 C 
BRANCH  35  38
ATOM     36  O   UNL     1       4.063  -7.165   0.000  0.00  0.00    +0.000 OA
ATOM     37  O   UNL     1       5.533  -4.642   0.000  0.00  0.00    +0.000 OA
ATOM     38  N   UNL     1       2.620  -4.662   0.000  0.00  0.00    +0.000 N 
ATOM     39  N   UNL     1       2.620  -6.311   0.000  0.00  0.00    +0.000 NA
ATOM     40  N   UNL     1       4.072  -4.633   0.000  0.00  0.00    +0.000 NA
ATOM     41  N   UNL     1       4.820  -5.916   0.000  0.00  0.00    +0.000 NA
ATOM     42  C   UNL     1       1.906  -5.074   0.000  0.00  0.00    +0.000 A 
ATOM     43  C   UNL     1       3.335  -5.074   0.000  0.00  0.00    +0.000 A 
ATOM     44  C   UNL     1       1.906  -5.899   0.000  0.00  0.00    +0.000 A 
ATOM     45  C   UNL     1       1.169  -4.633   0.000  0.00  0.00    +0.000 A 
ATOM     46  C   UNL     1       3.335  -5.899   0.000  0.00  0.00    +0.000 A 
ATOM     47  C   UNL     1       0.421  -5.057   0.000  0.00  0.00    +0.000 A 
ATOM     48  C   UNL     1       1.169  -6.340   0.000  0.00  0.00    +0.000 A 
ATOM     49  C   UNL     1       0.421  -5.916   0.000  0.00  0.00    +0.000 A 
ATOM     50  C   UNL     1       4.072  -6.340   0.000  0.00  0.00    +0.000 A 
ATOM     51  C   UNL     1      -0.292  -4.642   0.000  0.00  0.00    +0.000 C 
ATOM     52  C   UNL     1      -0.292  -6.331   0.000  0.00  0.00    +0.000 C 
ATOM     53  C   UNL     1       4.820  -5.057   0.000  0.00  0.00    +0.000 A 
ENDBRANCH  35  38
ENDBRANCH  34  35
ENDBRANCH  32  34
ENDBRANCH  30  32
ENDBRANCH  28  30
ENDBRANCH   1  28
TORSDOF 13
