REMARK  Name = 
REMARK  5 active torsions:
REMARK  status: ('A' for Active; 'I' for Inactive)
REMARK    1  A    between atoms: C_5  and  C_7
REMARK    2  A    between atoms: C_7  and  C_8
REMARK    3  A    between atoms: C_8  and  N_10
REMARK    4  A    between atoms: C_15  and  C_21
REMARK    5  A    between atoms: C_15  and  C_22
REMARK                            x       y       z     vdW  Elec       q    Type
REMARK                         _______ _______ _______ _____ _____    ______ ____
ROOT
ATOM      1  C   UNL     1       0.289  -1.657   0.000  0.00  0.00    +0.000 C 
ATOM      2  C   UNL     1       0.289  -2.482   0.000  0.00  0.00    +0.000 C 
ATOM      3  C   UNL     1       1.003  -2.895   0.000  0.00  0.00    +0.000 C 
ATOM      4  C   UNL     1       1.718  -2.482   0.000  0.00  0.00    +0.000 C 
ATOM      5  C   UNL     1       1.718  -1.657   0.000  0.00  0.00    +0.000 C 
ATOM      6  C   UNL     1       1.003  -1.245   0.000  0.00  0.00    +0.000 C 
ENDROOT
BRANCH   5   7
ATOM      7  C   UNL     1       2.432  -1.245   0.000  0.00  0.00    +0.000 C 
BRANCH   7   8
ATOM      8  C   UNL     1       2.432  -0.420   0.000  0.00  0.00    +0.000 C 
ATOM      9  C   UNL     1       1.718  -0.007   0.000  0.00  0.00    +0.000 C 
BRANCH   8  10
ATOM     10  N   UNL     1       3.147  -0.007   0.000  0.00  0.00    +0.000 NA
ATOM     11  C   UNL     1       3.147   0.818   0.000  0.00  0.00    +0.000 C 
ENDBRANCH   8  10
ENDBRANCH   7   8
ENDBRANCH   5   7
TORSDOF 3
REMARK  Name = 
REMARK  5 active torsions:
REMARK  status: ('A' for Active; 'I' for Inactive)
REMARK    1  A    between atoms: C_5  and  C_7
REMARK    2  A    between atoms: C_7  and  C_8
REMARK    3  A    between atoms: C_8  and  N_10
REMARK    4  A    between atoms: C_15  and  C_21
REMARK    5  A    between atoms: C_15  and  C_22
REMARK                            x       y       z     vdW  Elec       q    Type
REMARK                         _______ _______ _______ _____ _____    ______ ____
ROOT
ATOM      1  C   UNL     1      -2.432  -0.256   0.000  0.00  0.00    +0.000 C 
ATOM      2  N   UNL     1      -2.432   0.569   0.000  0.00  0.00    +0.000 NA
ATOM      3  C   UNL     1      -1.718   0.982   0.000  0.00  0.00    +0.000 C 
ATOM      4  C   UNL     1      -1.003   0.569   0.000  0.00  0.00    +0.000 C 
ATOM      5  C   UNL     1      -1.003  -0.256   0.000  0.00  0.00    +0.000 C 
ATOM      6  N   UNL     1      -1.718  -0.668   0.000  0.00  0.00    +0.000 NA
ATOM      7  O   UNL     1      -3.147  -0.668   0.000  0.00  0.00    +0.000 OA
ATOM      8  O   UNL     1      -0.289  -0.668   0.000  0.00  0.00    +0.000 OA
ATOM      9  O   UNL     1      -1.718   1.807   0.000  0.00  0.00    +0.000 OA
ENDROOT
BRANCH   4  10
ATOM     10  C   UNL     1      -0.721   1.344   0.000  0.00  0.00    +0.000 A 
ATOM     11  C   UNL     1       0.091   1.488   0.000  0.00  0.00    +0.000 A 
ATOM     12  C   UNL     1       0.373   2.263   0.000  0.00  0.00    +0.000 A 
ATOM     13  C   UNL     1      -0.157   2.895   0.000  0.00  0.00    +0.000 A 
ATOM     14  C   UNL     1      -0.969   2.752   0.000  0.00  0.00    +0.000 A 
ATOM     15  C   UNL     1      -1.251   1.976   0.000  0.00  0.00    +0.000 A 
ENDBRANCH   4  10
BRANCH   4  16
ATOM     16  C   UNL     1      -0.191   0.426   0.000  0.00  0.00    +0.000 C 
ATOM     17  C   UNL     1       0.091  -0.349   0.000  0.00  0.00    +0.000 C 
ENDBRANCH   4  16
TORSDOF 2
