REMARK  Name = 
REMARK  8 active torsions:
REMARK  status: ('A' for Active; 'I' for Inactive)
REMARK    1  A    between atoms: N_9  and  C_10
REMARK    2  A    between atoms: C_13  and  AS_16
REMARK    3  A    between atoms: AS_16  and  S_17
REMARK    4  A    between atoms: AS_16  and  S_21
REMARK    5  A    between atoms: S_17  and  C_18
REMARK    6  A    between atoms: C_18  and  C_19
REMARK    7  A    between atoms: S_21  and  C_22
REMARK    8  A    between atoms: C_22  and  C_23
REMARK                            x       y       z     vdW  Elec       q    Type
REMARK                         _______ _______ _______ _____ _____    ______ ____
ROOT
ATOM      1  C   UNL     1      -0.786   1.032   0.000  0.00  0.00    +0.000 A 
ATOM      2  C   UNL     1      -0.790   0.207   0.000  0.00  0.00    +0.000 A 
ATOM      3  C   UNL     1      -0.078  -0.206   0.000  0.00  0.00    +0.000 A 
ATOM      4  C   UNL     1       0.638   0.205   0.000  0.00  0.00    +0.000 A 
ATOM      5  C   UNL     1       0.636   1.034   0.000  0.00  0.00    +0.000 A 
ATOM      6  C   UNL     1      -0.077   1.443   0.000  0.00  0.00    +0.000 A 
ENDROOT
BRANCH   1  15
ATOM      7  C   UNL     1      -3.635   1.028   0.000  0.00  0.00    +0.000 A 
ATOM      8  N   UNL     1      -3.635   0.202   0.000  0.00  0.00    +0.000 NA
ATOM      9  C   UNL     1      -2.923  -0.206   0.000  0.00  0.00    +0.000 A 
ATOM     10  N   UNL     1      -2.210   0.202   0.000  0.00  0.00    +0.000 NA
ATOM     11  C   UNL     1      -2.210   1.028   0.000  0.00  0.00    +0.000 A 
ATOM     12  N   UNL     1      -2.923   1.445   0.000  0.00  0.00    +0.000 NA
ATOM     13  N   UNL     1      -4.353   1.441   0.000  0.00  0.00    +0.000 NA
ATOM     14  N   UNL     1      -2.930  -1.032   0.000  0.00  0.00    +0.000 NA
ATOM     15  N   UNL     1      -1.500   1.445   0.000  0.00  0.00    +0.000 NA
ENDBRANCH   1  15
BRANCH   4  16
ATOM     16 AS   UNL     1       1.349  -0.206   0.000  0.00  0.00    +0.000 As
BRANCH  16  17
ATOM     17  S   UNL     1       2.213   0.286   0.000  0.00  0.00    +0.000 S 
BRANCH  17  18
ATOM     18  C   UNL     1       2.926  -0.127   0.000  0.00  0.00    +0.000 C 
BRANCH  18  19
ATOM     19  C   UNL     1       3.640   0.290   0.000  0.00  0.00    +0.000 C 
ATOM     20  N   UNL     1       4.353  -0.123   0.000  0.00  0.00    +0.000 NA
ENDBRANCH  18  19
ENDBRANCH  17  18
ENDBRANCH  16  17
BRANCH  16  21
ATOM     21  S   UNL     1       1.345  -1.032   0.000  0.00  0.00    +0.000 S 
BRANCH  21  22
ATOM     22  C   UNL     1       2.059  -1.445   0.000  0.00  0.00    +0.000 C 
BRANCH  22  23
ATOM     23  C   UNL     1       2.772  -1.028   0.000  0.00  0.00    +0.000 C 
ATOM     24  N   UNL     1       3.485  -1.441   0.000  0.00  0.00    +0.000 NA
ENDBRANCH  22  23
ENDBRANCH  21  22
ENDBRANCH  16  21
ENDBRANCH   4  16
TORSDOF 8
