REMARK  Name = 
REMARK  36 active torsions:
REMARK  status: ('A' for Active; 'I' for Inactive)
REMARK    1  A    between atoms: C_2  and  C_3
REMARK    2  A    between atoms: C_3  and  C_4
REMARK    3  A    between atoms: C_4  and  C_5
REMARK    4  A    between atoms: C_5  and  C_6
REMARK    5  A    between atoms: C_6  and  C_7
REMARK    6  A    between atoms: N_9  and  C_10
REMARK    7  A    between atoms: C_15  and  C_101
REMARK    8  A    between atoms: C_19  and  C_20
REMARK    9  A    between atoms: CA_25  and  CB_97
REMARK   10  A    between atoms: CA_29  and  CB_30
REMARK   11  A    between atoms: CB_30  and  CG_31
REMARK   12  A    between atoms: CG_31  and  CD_32
REMARK   13  A    between atoms: CD_32  and  NE_33
REMARK   14  A    between atoms: CA_40  and  CB_41
REMARK   15  A    between atoms: CB_41  and  CG_42
REMARK   16  A    between atoms: C_48  and  C_49
REMARK   17  A    between atoms: C_49  and  C_50
REMARK   18  A    between atoms: C_50  and  C_51
REMARK   19  A    between atoms: CA_56  and  CB_57
REMARK   20  A    between atoms: CB_57  and  CG_58
REMARK   21  A    between atoms: CG_58  and  CD_59
REMARK   22  A    between atoms: CD_59  and  NE_60
REMARK   23  A    between atoms: CA_76  and  CB_77
REMARK   24  A    between atoms: CB_77  and  CG_78
REMARK   25  A    between atoms: CA_87  and  CB_88
REMARK   26  A    between atoms: CB_88  and  CG_89
REMARK   27  A    between atoms: CB_97  and  CG1_99
REMARK   28  A    between atoms: N_103  and  C_104
REMARK   29  A    between atoms: C_104  and  C_105
REMARK   30  A    between atoms: C_104  and  C_113
REMARK   31  A    between atoms: C_105  and  C_106
REMARK   32  A    between atoms: C_117  and  C_129
REMARK   33  A    between atoms: C_121  and  C_122
REMARK   34  A    between atoms: C_122  and  C_123
REMARK   35  A    between atoms: C_123  and  C_124
REMARK   36  A    between atoms: C_124  and  N_125
REMARK                            x       y       z     vdW  Elec       q    Type
REMARK                         _______ _______ _______ _____ _____    ______ ____
ROOT
ATOM      1  C   UNK A   1       3.720   0.510   0.000  0.00  0.00    +0.000 C 
ATOM      2  C   UNK A   1       3.006   0.098   0.000  0.00  0.00    +0.000 C 
ATOM      3  S   UNK A   1       2.291   0.510   0.000  0.00  0.00    +0.000 S 
ATOM      4  S   UNK A   1       2.291   1.335   0.000  0.00  0.00    +0.000 S 
ATOM      5  C   UNK A   1       3.006   1.748   0.000  0.00  0.00    +0.000 C 
ATOM      6  C   UNK A   1       3.006   2.573   0.000  0.00  0.00    +0.000 C 
ATOM      7  N   UNK A   1       3.720   2.985   0.000  0.00  0.00    +0.000 NA
ATOM      8  C   UNK A   1       3.720   3.810   0.000  0.00  0.00    +0.000 C 
ATOM      9  O   UNK A   1       3.006   4.223   0.000  0.00  0.00    +0.000 OA
ATOM     10  C   UNK A   1       4.434   4.223   0.000  0.00  0.00    +0.000 C 
ATOM     11  N   UNK A   1       4.434   5.048   0.000  0.00  0.00    +0.000 NA
ATOM     12  C   ILE A  10       5.149   5.460   0.000  0.00  0.00    +0.000 C 
ATOM     13  O   ILE A  10       5.863   5.048   0.000  0.00  0.00    +0.000 OA
ATOM     14  CA  ILE A  10       5.149   6.285   0.000  0.00  0.00    +0.000 C 
ATOM     15  N   ILE A  10       5.863   6.698   0.000  0.00  0.00    +0.000 NA
ATOM     16  C   ARG A   9       5.863   7.523   0.000  0.00  0.00    +0.000 C 
ATOM     17  O   ARG A   9       5.149   7.935   0.000  0.00  0.00    +0.000 OA
ATOM     18  CA  ARG A   9       6.578   7.935   0.000  0.00  0.00    +0.000 C 
ATOM     19  N   ARG A   9       6.578   8.760   0.000  0.00  0.00    +0.000 NA
ATOM     20  C   ASP A   8       7.292   9.173   0.000  0.00  0.00    +0.000 C 
ATOM     21  O   ASP A   8       8.007   8.760   0.000  0.00  0.00    +0.000 OA
ATOM     22  CA  ASP A   8       7.292   9.998   0.000  0.00  0.00    +0.000 C 
ATOM     23  N   ASP A   8       8.007  10.410   0.000  0.00  0.00    +0.000 NA
ATOM     24  C   UNK A   7       8.721   9.998   0.000  0.00  0.00    +0.000 C 
ATOM     25  O   UNK A   7       8.721   9.173   0.000  0.00  0.00    +0.000 OA
ATOM     26  C   UNK A   7       9.436  10.410   0.000  0.00  0.00    +0.000 C 
ATOM     27  N   UNK A   7      10.150   9.998   0.000  0.00  0.00    +0.000 NA
ATOM     28  C   ARG A   6      10.150   9.173   0.000  0.00  0.00    +0.000 C 
ATOM     29  O   ARG A   6      10.865   8.760   0.000  0.00  0.00    +0.000 OA
ATOM     30  CA  ARG A   6       9.436   8.760   0.000  0.00  0.00    +0.000 C 
ATOM     31  N   ARG A   6       9.436   7.935   0.000  0.00  0.00    +0.000 NA
ATOM     32  C   GLY A   5       8.721   7.523   0.000  0.00  0.00    +0.000 C 
ATOM     33  O   GLY A   5       8.007   7.935   0.000  0.00  0.00    +0.000 OA
ATOM     34  CA  GLY A   5       8.721   6.698   0.000  0.00  0.00    +0.000 C 
ATOM     35  N   GLY A   5       8.007   6.285   0.000  0.00  0.00    +0.000 NA
ATOM     36  C   ALA A   4       8.007   5.460   0.000  0.00  0.00    +0.000 C 
ATOM     37  O   ALA A   4       8.721   5.048   0.000  0.00  0.00    +0.000 OA
ATOM     38  CA  ALA A   4       7.292   5.048   0.000  0.00  0.00    +0.000 C 
ATOM     39  CB  ALA A   4       6.578   5.460   0.000  0.00  0.00    +0.000 C 
ATOM     40  N   ALA A   4       7.292   4.223   0.000  0.00  0.00    +0.000 NA
ATOM     41  C   PHE A   3       6.578   3.810   0.000  0.00  0.00    +0.000 C 
ATOM     42  O   PHE A   3       5.863   4.223   0.000  0.00  0.00    +0.000 OA
ATOM     43  CA  PHE A   3       6.578   2.985   0.000  0.00  0.00    +0.000 C 
ATOM     44  N   PHE A   3       5.863   2.573   0.000  0.00  0.00    +0.000 NA
ATOM     45  C   HIS A   2       5.863   1.748   0.000  0.00  0.00    +0.000 C 
ATOM     46  O   HIS A   2       6.578   1.335   0.000  0.00  0.00    +0.000 OA
ATOM     47  CA  HIS A   2       5.149   1.335   0.000  0.00  0.00    +0.000 C 
ATOM     48  N   HIS A   2       5.149   0.510   0.000  0.00  0.00    +0.000 NA
ATOM     49  C   UNK A   1       4.434   0.098   0.000  0.00  0.00    +0.000 C 
ATOM     50  O   UNK A   1       4.434  -0.727   0.000  0.00  0.00    +0.000 OA
ENDROOT
BRANCH   1  53
ATOM     51  C   UNK A   0       3.006  -0.727   0.000  0.00  0.00    +0.000 C 
ATOM     52  O   UNK A   0       3.006  -1.552   0.000  0.00  0.00    +0.000 OA
ATOM     53  N   UNK A   1       3.720  -0.315   0.000  0.00  0.00    +0.000 NA
BRANCH  51  54
ATOM     54  C   UNK A   0       2.291  -0.315   0.000  0.00  0.00    +0.000 C 
BRANCH  54  55
ATOM     55  C   UNK A   0       1.577  -0.727   0.000  0.00  0.00    +0.000 C 
BRANCH  55  56
ATOM     56  C   UNK A   0       0.862  -0.315   0.000  0.00  0.00    +0.000 C 
BRANCH  56  57
ATOM     57  C   UNK A   0       0.148  -0.727   0.000  0.00  0.00    +0.000 C 
BRANCH  57  59
ATOM     58  C   UNK A   0      -1.281  -0.727   0.000  0.00  0.00    +0.000 C 
ATOM     59  C   UNK A   0      -0.567  -0.315   0.000  0.00  0.00    +0.000 C 
ENDBRANCH  57  59
ENDBRANCH  56  57
ENDBRANCH  55  56
ENDBRANCH  54  55
ENDBRANCH  51  54
ENDBRANCH   1  53
BRANCH   6  60
ATOM     60  C   UNK A   1       2.291   2.985   0.000  0.00  0.00    +0.000 C 
ATOM     61  O   UNK A   1       1.915   2.663   0.000  0.00  0.00    +0.000 OA
ATOM     62  N   UNK A   1       2.291   3.810   0.000  0.00  0.00    +0.000 NA
BRANCH  62  63
ATOM     63  C   UNK A   1       1.577   4.223   0.000  0.00  0.00    +0.000 C 
BRANCH  63  64
ATOM     64  C   UNK A   1       1.577   5.048   0.000  0.00  0.00    +0.000 C 
ATOM     65  O   UNK A   1       2.397   4.962   0.000  0.00  0.00    +0.000 OA
ATOM     66  N   UNK A   1       1.241   5.802   0.000  0.00  0.00    +0.000 N 
ATOM     67  C   UNK A   1       1.726   6.469   0.000  0.00  0.00    +0.000 C 
ATOM     68  C   UNK A   1       1.390   7.223   0.000  0.00  0.00    +0.000 C 
ATOM     69  N   UNK A   1       0.570   7.309   0.000  0.00  0.00    +0.000 NA
ATOM     70  C   UNK A   1       0.085   6.641   0.000  0.00  0.00    +0.000 C 
ATOM     71  O   UNK A   1      -0.736   6.728   0.000  0.00  0.00    +0.000 OA
ATOM     72  C   UNK A   1       0.420   5.888   0.000  0.00  0.00    +0.000 C 
BRANCH  68  73
ATOM     73  C   UNK A   1       1.875   7.890   0.000  0.00  0.00    +0.000 C 
ATOM     74  N   UNK A   1       2.696   7.804   0.000  0.00  0.00    +0.000 NA
ATOM     75  O   UNK A   1       1.540   8.644   0.000  0.00  0.00    +0.000 OA
ENDBRANCH  68  73
BRANCH  72  76
ATOM     76  C   UNK A   1      -0.364   5.633   0.000  0.00  0.00    +0.000 C 
BRANCH  76  77
ATOM     77  C   UNK A   1      -0.536   4.826   0.000  0.00  0.00    +0.000 C 
BRANCH  77  78
ATOM     78  C   UNK A   1      -1.320   4.571   0.000  0.00  0.00    +0.000 C 
BRANCH  78  79
ATOM     79  N   UNK A   1      -1.492   3.764   0.000  0.00  0.00    +0.000 NA
ATOM     80  C   UNK A   1      -2.276   3.509   0.000  0.00  0.00    +0.000 C 
ATOM     81  N   UNK A   1      -2.889   2.957   0.000  0.00  0.00    +0.000 NA
ATOM     82  N   UNK A   1      -2.889   4.061   0.000  0.00  0.00    +0.000 NA
ENDBRANCH  78  79
ENDBRANCH  77  78
ENDBRANCH  76  77
ENDBRANCH  72  76
ENDBRANCH  63  64
BRANCH  63  83
ATOM     83  C   UNK A   1       1.461   3.741   0.000  0.00  0.00    +0.000 C 
BRANCH  83  84
ATOM     84  C   UNK A   1       0.641   3.655   0.000  0.00  0.00    +0.000 A 
ATOM     85  C   UNK A   1       0.085   2.629   0.000  0.00  0.00    +0.000 A 
ATOM     86  C   UNK A   1      -0.736   2.543   0.000  0.00  0.00    +0.000 A 
ATOM     87  C   UNK A   1      -0.948   2.990   0.000  0.00  0.00    +0.000 A 
ATOM     88  O   UNK A   1      -1.737   2.747   0.000  0.00  0.00    +0.000 OA
ATOM     89  C   UNK A   1      -0.665   4.236   0.000  0.00  0.00    +0.000 A 
ATOM     90  C   UNK A   1       0.156   4.322   0.000  0.00  0.00    +0.000 A 
ENDBRANCH  83  84
ENDBRANCH  63  83
ENDBRANCH  62  63
ENDBRANCH   6  60
BRANCH  14  91
ATOM     91  CB  ILE A  10       4.434   6.698   0.000  0.00  0.00    +0.000 C 
ATOM     92  CG2 ILE A  10       3.720   6.285   0.000  0.00  0.00    +0.000 C 
BRANCH  91  93
ATOM     93  CG1 ILE A  10       4.434   7.523   0.000  0.00  0.00    +0.000 C 
ATOM     94  CD1 ILE A  10       3.720   7.935   0.000  0.00  0.00    +0.000 C 
ENDBRANCH  91  93
ENDBRANCH  14  91
BRANCH  10  95
ATOM     95  C   UNK A   1       3.720   4.635   0.000  0.00  0.00    +0.000 C 
ATOM     96  O   ACE A  11       3.720   5.460   0.000  0.00  0.00    +0.000 OA
ENDBRANCH  10  95
BRANCH  30  97
ATOM     97  CB  ARG A   6      10.150   8.348   0.000  0.00  0.00    +0.000 C 
BRANCH  97  98
ATOM     98  CG  ARG A   6      10.150   7.523   0.000  0.00  0.00    +0.000 C 
BRANCH  98  99
ATOM     99  CD  ARG A   6      10.865   7.110   0.000  0.00  0.00    +0.000 C 
BRANCH  99 100
ATOM    100  NE  ARG A   6      10.865   6.285   0.000  0.00  0.00    +0.000 NA
ATOM    101  CZ  ARG A   6      11.579   5.873   0.000  0.00  0.00    +0.000 C 
ATOM    102  NH1 ARG A   6      11.579   5.048   0.000  0.00  0.00    +0.000 NA
ATOM    103  NH2 ARG A   6      12.294   6.285   0.000  0.00  0.00    +0.000 NA
ENDBRANCH  99 100
ENDBRANCH  98  99
ENDBRANCH  97  98
ENDBRANCH  30  97
BRANCH  22 104
ATOM    104  CB  ASP A   8       6.578  10.410   0.000  0.00  0.00    +0.000 C 
BRANCH 104 105
ATOM    105  CG  ASP A   8       6.578  11.235   0.000  0.00  0.00    +0.000 C 
ATOM    106  OD1 ASP A   8       5.863  11.648   0.000  0.00  0.00    +0.000 OA
ATOM    107  OD2 ASP A   8       7.292  11.648   0.000  0.00  0.00    +0.000 OA
ENDBRANCH 104 105
ENDBRANCH  22 104
BRANCH  43 108
ATOM    108  CB  PHE A   3       7.292   2.573   0.000  0.00  0.00    +0.000 C 
BRANCH 108 109
ATOM    109  CG  PHE A   3       8.007   2.985   0.000  0.00  0.00    +0.000 A 
ATOM    110  CD1 PHE A   3       8.007   3.810   0.000  0.00  0.00    +0.000 A 
ATOM    111  CE1 PHE A   3       8.721   4.223   0.000  0.00  0.00    +0.000 A 
ATOM    112  CZ  PHE A   3       9.436   3.810   0.000  0.00  0.00    +0.000 A 
ATOM    113  CE2 PHE A   3       9.436   2.985   0.000  0.00  0.00    +0.000 A 
ATOM    114  CD2 PHE A   3       8.721   2.573   0.000  0.00  0.00    +0.000 A 
ENDBRANCH 108 109
ENDBRANCH  43 108
BRANCH  18 115
ATOM    115  CB  ARG A   9       5.863   8.348   0.000  0.00  0.00    +0.000 C 
BRANCH 115 116
ATOM    116  CG  ARG A   9       5.863   9.173   0.000  0.00  0.00    +0.000 C 
BRANCH 116 117
ATOM    117  CD  ARG A   9       5.149   9.585   0.000  0.00  0.00    +0.000 C 
BRANCH 117 118
ATOM    118  NE  ARG A   9       5.149  10.410   0.000  0.00  0.00    +0.000 NA
ATOM    119  CZ  ARG A   9       4.434  10.823   0.000  0.00  0.00    +0.000 C 
ATOM    120  NH1 ARG A   9       3.720  10.410   0.000  0.00  0.00    +0.000 NA
ATOM    121  NH2 ARG A   9       4.434  11.648   0.000  0.00  0.00    +0.000 NA
ENDBRANCH 117 118
ENDBRANCH 116 117
ENDBRANCH 115 116
ENDBRANCH  18 115
BRANCH  47 122
ATOM    122  CB  HIS A   2       5.863   0.923   0.000  0.00  0.00    +0.000 C 
BRANCH 122 123
ATOM    123  CG  HIS A   2       5.863   0.098   0.000  0.00  0.00    +0.000 A 
ATOM    124  CD2 HIS A   2       5.196  -0.387   0.000  0.00  0.00    +0.000 A 
ATOM    125  NE2 HIS A   2       5.451  -1.172   0.000  0.00  0.00    +0.000 NA
ATOM    126  CE1 HIS A   2       6.276  -1.172   0.000  0.00  0.00    +0.000 A 
ATOM    127  ND1 HIS A   2       6.531  -0.387   0.000  0.00  0.00    +0.000 NA
ENDBRANCH 122 123
ENDBRANCH  47 122
BRANCH  26 128
ATOM    128  C   UNK A   7       9.436  11.235   0.000  0.00  0.00    +0.000 C 
BRANCH 128 129
ATOM    129  C   UNK A   7      10.150  11.648   0.000  0.00  0.00    +0.000 C 
BRANCH 129 130
ATOM    130  C   UNK A   7      10.150  12.473   0.000  0.00  0.00    +0.000 C 
ATOM    131  C   UNK A   7      10.865  12.885   0.000  0.00  0.00    +0.000 C 
ENDBRANCH 129 130
ENDBRANCH 128 129
ENDBRANCH  26 128
TORSDOF 36
