REMARK  Name = 
REMARK  3 active torsions:
REMARK  status: ('A' for Active; 'I' for Inactive)
REMARK    1  A    between atoms: C_2  and  C_4
REMARK    2  A    between atoms: C_4  and  C_5
REMARK    3  A    between atoms: C_15  and  C_34
REMARK                            x       y       z     vdW  Elec       q    Type
REMARK                         _______ _______ _______ _____ _____    ______ ____
ROOT
ATOM      1  C   UNL     1       9.427  -0.832   0.000  0.00  0.00    +0.000 C 
ATOM      2  N   UNL     1      10.246  -0.738   0.000  0.00  0.00    +0.000 NA
ATOM      3  C   UNL     1      10.738  -1.400   0.000  0.00  0.00    +0.000 C 
ATOM      4  O   UNL     1      11.558  -1.305   0.000  0.00  0.00    +0.000 OA
ATOM      5  C   UNL     1      10.410  -2.157   0.000  0.00  0.00    +0.000 C 
ATOM      6  C   UNL     1      10.902  -2.820   0.000  0.00  0.00    +0.000 C 
ATOM      7  N   UNL     1       9.591  -2.252   0.000  0.00  0.00    +0.000 N 
ATOM      8  C   UNL     1       9.099  -1.589   0.000  0.00  0.00    +0.000 C 
ATOM      9  C   UNL     1       9.263  -3.009   0.000  0.00  0.00    +0.000 C 
ATOM     10  O   UNL     1       9.755  -3.671   0.000  0.00  0.00    +0.000 OA
ATOM     11  C   UNL     1       8.443  -3.103   0.000  0.00  0.00    +0.000 C 
ATOM     12  N   UNL     1       8.116  -3.861   0.000  0.00  0.00    +0.000 NA
ATOM     13  C   UNL     1       7.296  -3.955   0.000  0.00  0.00    +0.000 C 
ATOM     14  C   UNL     1       6.804  -3.293   0.000  0.00  0.00    +0.000 C 
ATOM     15  C   UNL     1       6.476  -4.050   0.000  0.00  0.00    +0.000 C 
ATOM     16  O   UNL     1       5.985  -3.387   0.000  0.00  0.00    +0.000 OA
ATOM     17  C   UNL     1       5.493  -2.725   0.000  0.00  0.00    +0.000 A 
ATOM     18  C   UNL     1       5.821  -1.968   0.000  0.00  0.00    +0.000 A 
ATOM     19  C   UNL     1       6.640  -1.873   0.000  0.00  0.00    +0.000 C 
ATOM     20  C   UNL     1       6.968  -1.116   0.000  0.00  0.00    +0.000 C 
ATOM     21  C   UNL     1       7.788  -1.022   0.000  0.00  0.00    +0.000 C 
ATOM     22  C   UNL     1       8.280  -1.684   0.000  0.00  0.00    +0.000 C 
ATOM     23  N   UNL     1       8.116  -0.265   0.000  0.00  0.00    +0.000 NA
ATOM     24  C   UNL     1       8.935  -0.170   0.000  0.00  0.00    +0.000 C 
ATOM     25  O   UNL     1       9.263   0.587   0.000  0.00  0.00    +0.000 OA
ATOM     26  C   UNL     1       5.329  -1.305   0.000  0.00  0.00    +0.000 A 
ATOM     27  C   UNL     1       4.510  -1.400   0.000  0.00  0.00    +0.000 A 
ATOM     28  C   UNL     1       4.182  -2.157   0.000  0.00  0.00    +0.000 A 
ATOM     29  C   UNL     1       4.673  -2.820   0.000  0.00  0.00    +0.000 A 
ENDROOT
BRANCH  11  30
ATOM     30  C   UNL     1       8.935  -3.766   0.000  0.00  0.00    +0.000 C 
ATOM     31  C   UNL     1       9.692  -4.094   0.000  0.00  0.00    +0.000 C 
ATOM     32  C   UNL     1       9.030  -4.585   0.000  0.00  0.00    +0.000 C 
ENDBRANCH  11  30
BRANCH   1  33
ATOM     33  C   UNL     1       9.755  -0.075   0.000  0.00  0.00    +0.000 C 
BRANCH  33  35
ATOM     34  C   UNL     1      11.066  -0.643   0.000  0.00  0.00    +0.000 C 
ATOM     35  C   UNL     1      10.574   0.019   0.000  0.00  0.00    +0.000 C 
ATOM     36  C   UNL     1      10.902   0.776   0.000  0.00  0.00    +0.000 C 
ENDBRANCH  33  35
ENDBRANCH   1  33
TORSDOF 3
