REMARK  Name = 
REMARK  7 active torsions:
REMARK  status: ('A' for Active; 'I' for Inactive)
REMARK    1  A    between atoms: C_2  and  N_3
REMARK    2  A    between atoms: C_4  and  C_6
REMARK    3  A    between atoms: C_7  and  C_23
REMARK    4  A    between atoms: C_8  and  C_11
REMARK    5  A    between atoms: C_13  and  C_19
REMARK    6  A    between atoms: C_26  and  C_29
REMARK    7  A    between atoms: C_29  and  N_30
REMARK                            x       y       z     vdW  Elec       q    Type
REMARK                         _______ _______ _______ _____ _____    ______ ____
ROOT
ATOM      1  C   UNL     1       4.180  -2.537   0.000  0.00  0.00    +0.000 A 
ATOM      2  C   UNL     1       4.848  -3.022   0.000  0.00  0.00    +0.000 A 
ATOM      3  C   UNL     1       4.593  -3.806   0.000  0.00  0.00    +0.000 A 
ATOM      4  O   UNL     1       3.768  -3.806   0.000  0.00  0.00    +0.000 OA
ATOM      5  N   UNL     1       3.513  -3.022   0.000  0.00  0.00    +0.000 NA
ENDROOT
BRANCH   3   6
ATOM      6  C   UNL     1       5.077  -4.474   0.000  0.00  0.00    +0.000 A 
ATOM      7  C   UNL     1       5.898  -4.387   0.000  0.00  0.00    +0.000 A 
ATOM      8  C   UNL     1       6.383  -5.055   0.000  0.00  0.00    +0.000 A 
ATOM      9  C   UNL     1       6.047  -5.809   0.000  0.00  0.00    +0.000 A 
ATOM     10  C   UNL     1       5.227  -5.895   0.000  0.00  0.00    +0.000 A 
ATOM     11  C   UNL     1       4.742  -5.227   0.000  0.00  0.00    +0.000 A 
ATOM     12  O   UNL     1       3.921  -5.314   0.000  0.00  0.00    +0.000 OA
ATOM     13  O   UNL     1       6.532  -6.476   0.000  0.00  0.00    +0.000 OA
BRANCH   8  14
ATOM     14  C   UNL     1       7.203  -4.969   0.000  0.00  0.00    +0.000 C 
ATOM     15  C   UNL     1       8.024  -4.882   0.000  0.00  0.00    +0.000 C 
ATOM     16  C   UNL     1       7.290  -5.789   0.000  0.00  0.00    +0.000 C 
ATOM     17  C   UNL     1       7.117  -4.148   0.000  0.00  0.00    +0.000 C 
ENDBRANCH   8  14
ENDBRANCH   3   6
BRANCH   2  18
ATOM     18  C   UNL     1       5.632  -2.767   0.000  0.00  0.00    +0.000 A 
ATOM     19  C   UNL     1       5.804  -1.960   0.000  0.00  0.00    +0.000 A 
ATOM     20  C   UNL     1       6.588  -1.705   0.000  0.00  0.00    +0.000 A 
ATOM     21  C   UNL     1       7.201  -2.257   0.000  0.00  0.00    +0.000 A 
ATOM     22  C   UNL     1       7.030  -3.064   0.000  0.00  0.00    +0.000 A 
ATOM     23  C   UNL     1       6.245  -3.319   0.000  0.00  0.00    +0.000 A 
BRANCH  21  24
ATOM     24  C   UNL     1       7.986  -2.002   0.000  0.00  0.00    +0.000 C 
BRANCH  24  25
ATOM     25  N   UNL     1       8.599  -2.554   0.000  0.00  0.00    +0.000 NA
ATOM     26  C   UNL     1       9.384  -2.299   0.000  0.00  0.00    +0.000 C 
ATOM     27  C   UNL     1       9.997  -2.851   0.000  0.00  0.00    +0.000 C 
ATOM     28  O   UNL     1       9.825  -3.658   0.000  0.00  0.00    +0.000 OA
ATOM     29  C   UNL     1       9.041  -3.913   0.000  0.00  0.00    +0.000 C 
ATOM     30  C   UNL     1       8.428  -3.361   0.000  0.00  0.00    +0.000 C 
ENDBRANCH  24  25
ENDBRANCH  21  24
ENDBRANCH   2  18
BRANCH   1  32
ATOM     31  N   UNL     1       3.466  -1.299   0.000  0.00  0.00    +0.000 NA
ATOM     32  C   UNL     1       4.180  -1.712   0.000  0.00  0.00    +0.000 C 
ATOM     33  O   UNL     1       4.895  -1.299   0.000  0.00  0.00    +0.000 OA
BRANCH  31  35
ATOM     34  C   UNL     1       2.751  -0.062   0.000  0.00  0.00    +0.000 C 
ATOM     35  C   UNL     1       3.466  -0.474   0.000  0.00  0.00    +0.000 C 
ENDBRANCH  31  35
ENDBRANCH   1  32
TORSDOF 7
