REMARK  Name = 
REMARK  3 active torsions:
REMARK  status: ('A' for Active; 'I' for Inactive)
REMARK    1  A    between atoms: C_4  and  C_17
REMARK    2  A    between atoms: C_6  and  N_7
REMARK    3  A    between atoms: C_8  and  C_10
REMARK                            x       y       z     vdW  Elec       q    Type
REMARK                         _______ _______ _______ _____ _____    ______ ____
ROOT
ATOM      1  C   UNL     1       0.382  -3.572   0.000  0.00  0.00    +0.000 A 
ATOM      2  C   UNL     1      -0.285  -3.087   0.000  0.00  0.00    +0.000 A 
ATOM      3  C   UNL     1      -0.199  -2.267   0.000  0.00  0.00    +0.000 A 
ATOM      4  C   UNL     1       0.555  -1.931   0.000  0.00  0.00    +0.000 A 
ATOM      5  C   UNL     1       1.222  -2.416   0.000  0.00  0.00    +0.000 A 
ATOM      6  C   UNL     1       1.136  -3.236   0.000  0.00  0.00    +0.000 A 
ATOM      7  F   UNL     1      -0.866  -1.782   0.000  0.00  0.00    +0.000 F 
ENDROOT
BRANCH   4   8
ATOM      8  C   UNL     1       0.641  -1.110   0.000  0.00  0.00    +0.000 C 
ATOM      9  C   UNL     1      -0.143  -1.365   0.000  0.00  0.00    +0.000 C 
ATOM     10  O   UNL     1      -0.628  -0.698   0.000  0.00  0.00    +0.000 OA
ATOM     11  C   UNL     1      -0.143  -0.030   0.000  0.00  0.00    +0.000 C 
ATOM     12  C   UNL     1       0.641  -0.285   0.000  0.00  0.00    +0.000 C 
ATOM     13  C   UNL     1       1.356   0.127   0.000  0.00  0.00    +0.000 C 
ATOM     14  S   UNL     1       2.070  -0.285   0.000  0.00  0.00    +0.000 S 
ATOM     15  C   UNL     1       2.070  -1.110   0.000  0.00  0.00    +0.000 C 
ATOM     16  N   UNL     1       1.356  -1.523   0.000  0.00  0.00    +0.000 NA
ATOM     17  N   UNL     1       2.784  -1.523   0.000  0.00  0.00    +0.000 NA
ENDBRANCH   4   8
BRANCH   6  18
ATOM     18  N   UNL     1       1.804  -3.721   0.000  0.00  0.00    +0.000 NA
ATOM     19  C   UNL     1       1.717  -4.542   0.000  0.00  0.00    +0.000 C 
ATOM     20  O   UNL     1       0.964  -4.877   0.000  0.00  0.00    +0.000 OA
BRANCH  19  21
ATOM     21  C   UNL     1       2.385  -5.027   0.000  0.00  0.00    +0.000 A 
ATOM     22  C   UNL     1       3.138  -4.691   0.000  0.00  0.00    +0.000 A 
ATOM     23  C   UNL     1       3.806  -5.176   0.000  0.00  0.00    +0.000 A 
ATOM     24  C   UNL     1       3.720  -5.997   0.000  0.00  0.00    +0.000 A 
ATOM     25  C   UNL     1       2.966  -6.332   0.000  0.00  0.00    +0.000 A 
ATOM     26  N   UNL     1       2.299  -5.847   0.000  0.00  0.00    +0.000 NA
ATOM     27  F   UNL     1       4.387  -6.481   0.000  0.00  0.00    +0.000 F 
ENDBRANCH  19  21
ENDBRANCH   6  18
TORSDOF 3
