REMARK  Name = 
REMARK  5 active torsions:
REMARK  status: ('A' for Active; 'I' for Inactive)
REMARK    1  A    between atoms: C_1  and  C_6
REMARK    2  A    between atoms: C_4  and  C_8
REMARK    3  A    between atoms: N_14  and  C_15
REMARK    4  A    between atoms: C_15  and  C_16
REMARK    5  A    between atoms: C_15  and  C_17
REMARK                            x       y       z     vdW  Elec       q    Type
REMARK                         _______ _______ _______ _____ _____    ______ ____
ROOT
ATOM      1  C   UNL     1      -1.952   0.729   0.000  0.00  0.00    +0.000 C 
ATOM      2  C   UNL     1      -1.616  -0.024   0.000  0.00  0.00    +0.000 C 
ATOM      3  S   UNL     1      -0.809  -0.196   0.000  0.00  0.00    +0.000 S 
ATOM      4  C   UNL     1      -0.723  -1.016   0.000  0.00  0.00    +0.000 C 
ATOM      5  N   UNL     1      -1.477  -1.352   0.000  0.00  0.00    +0.000 NA
ATOM      6  C   UNL     1      -2.029  -0.739   0.000  0.00  0.00    +0.000 C 
ATOM      7  N   UNL     1      -0.009  -1.429   0.000  0.00  0.00    +0.000 NA
ATOM      8  O   UNL     1      -2.849  -0.825   0.000  0.00  0.00    +0.000 OA
ENDROOT
BRANCH   1  12
ATOM      9  C   UNL     1      -1.054   2.666   0.000  0.00  0.00    +0.000 A 
ATOM     10  C   UNL     1      -0.387   2.181   0.000  0.00  0.00    +0.000 A 
ATOM     11  C   UNL     1      -0.642   1.397   0.000  0.00  0.00    +0.000 A 
ATOM     12  C   UNL     1      -1.467   1.397   0.000  0.00  0.00    +0.000 A 
ATOM     13  O   UNL     1      -1.722   2.181   0.000  0.00  0.00    +0.000 OA
BRANCH   9  14
ATOM     14  C   UNL     1      -1.054   3.491   0.000  0.00  0.00    +0.000 C 
ATOM     15  C   UNL     1      -0.340   3.904   0.000  0.00  0.00    +0.000 C 
ENDBRANCH   9  14
ENDBRANCH   1  12
BRANCH   7  16
ATOM     16  C   UNL     1      -0.009  -2.254   0.000  0.00  0.00    +0.000 C 
BRANCH  16  17
ATOM     17  C   UNL     1       0.706  -2.666   0.000  0.00  0.00    +0.000 A 
ATOM     18  C   UNL     1       0.706  -3.491   0.000  0.00  0.00    +0.000 A 
ATOM     19  C   UNL     1       1.420  -3.904   0.000  0.00  0.00    +0.000 A 
ATOM     20  C   UNL     1       2.135  -3.491   0.000  0.00  0.00    +0.000 A 
ATOM     21  C   UNL     1       2.135  -2.666   0.000  0.00  0.00    +0.000 A 
ATOM     22  C   UNL     1       1.420  -2.254   0.000  0.00  0.00    +0.000 A 
ATOM     23  F   UNL     1       2.849  -3.904   0.000  0.00  0.00    +0.000 F 
ENDBRANCH  16  17
BRANCH  16  24
ATOM     24  C   UNL     1      -0.723  -2.666   0.000  0.00  0.00    +0.000 A 
ATOM     25  N   UNL     1      -1.477  -2.331   0.000  0.00  0.00    +0.000 NA
ATOM     26  N   UNL     1      -2.029  -2.944   0.000  0.00  0.00    +0.000 NA
ATOM     27  N   UNL     1      -1.616  -3.658   0.000  0.00  0.00    +0.000 NA
ATOM     28  N   UNL     1      -0.809  -3.487   0.000  0.00  0.00    +0.000 NA
ENDBRANCH  16  24
ENDBRANCH   7  16
TORSDOF 5
