REMARK  Name = 
REMARK  6 active torsions:
REMARK  status: ('A' for Active; 'I' for Inactive)
REMARK    1  A    between atoms: C_6  and  C_7
REMARK    2  A    between atoms: C_7  and  C_8
REMARK    3  A    between atoms: C_8  and  O_9
REMARK    4  A    between atoms: O_9  and  C_10
REMARK    5  A    between atoms: N_16  and  C1*_19
REMARK    6  A    between atoms: C4*_22  and  C5*_24
REMARK                            x       y       z     vdW  Elec       q    Type
REMARK                         _______ _______ _______ _____ _____    ______ ____
ROOT
ATOM      1  C   UNL     1       3.352   1.935   0.000  0.00  0.00    +0.000 A 
ATOM      2  N   UNL     1       3.352   1.110   0.000  0.00  0.00    +0.000 NA
ATOM      3  C   UNL     1       2.638   0.698   0.000  0.00  0.00    +0.000 A 
ATOM      4  C   UNL     1       1.923   1.110   0.000  0.00  0.00    +0.000 A 
ATOM      5  C   UNL     1       1.923   1.935   0.000  0.00  0.00    +0.000 A 
ATOM      6  N   UNL     1       2.638   2.348   0.000  0.00  0.00    +0.000 NA
ATOM      7  N   UNL     1       1.139   2.190   0.000  0.00  0.00    +0.000 N 
ATOM      8  C   UNL     1       0.654   1.523   0.000  0.00  0.00    +0.000 A 
ATOM      9  N   UNL     1       1.139   0.856   0.000  0.00  0.00    +0.000 NA
ATOM     10  N   UNL     1       2.638  -0.127   0.000  0.00  0.00    +0.000 NA
ENDROOT
BRANCH   7  11
ATOM     11  C1* UNL     1       0.884   2.975   0.000  0.00  0.00    +0.000 C 
ATOM     12  C2* UNL     1       0.099   3.230   0.000  0.00  0.00    +0.000 C 
ATOM     13  C3* UNL     1       0.099   4.055   0.000  0.00  0.00    +0.000 C 
ATOM     14  C4* UNL     1       0.884   4.310   0.000  0.00  0.00    +0.000 C 
ATOM     15  O4* UNL     1       1.369   3.642   0.000  0.00  0.00    +0.000 OA
ATOM     16  O3* UNL     1      -0.568   4.540   0.000  0.00  0.00    +0.000 OA
ATOM     17  O2* UNL     1      -0.568   2.745   0.000  0.00  0.00    +0.000 OA
BRANCH  14  18
ATOM     18  C5* UNL     1       1.139   5.095   0.000  0.00  0.00    +0.000 C 
ATOM     19  O5* UNL     1       0.587   5.708   0.000  0.00  0.00    +0.000 OA
ENDBRANCH  14  18
ENDBRANCH   7  11
BRANCH   1  20
ATOM     20  O   UNL     1       4.067   2.348   0.000  0.00  0.00    +0.000 OA
BRANCH  20  21
ATOM     21  C   UNL     1       4.781   1.935   0.000  0.00  0.00    +0.000 C 
BRANCH  21  22
ATOM     22  C   UNL     1       5.496   2.348   0.000  0.00  0.00    +0.000 C 
BRANCH  22  28
ATOM     23  C   UNL     1       6.925   2.348   0.000  0.00  0.00    +0.000 A 
ATOM     24  C   UNL     1       7.639   1.935   0.000  0.00  0.00    +0.000 A 
ATOM     25  C   UNL     1       7.639   1.110   0.000  0.00  0.00    +0.000 A 
ATOM     26  C   UNL     1       6.925   0.698   0.000  0.00  0.00    +0.000 A 
ATOM     27  C   UNL     1       6.210   1.110   0.000  0.00  0.00    +0.000 A 
ATOM     28  C   UNL     1       6.210   1.935   0.000  0.00  0.00    +0.000 A 
ATOM     29 CL   UNL     1       8.354   0.698   0.000  0.00  0.00    +0.000 Cl
ENDBRANCH  22  28
ENDBRANCH  21  22
ENDBRANCH  20  21
ENDBRANCH   1  20
TORSDOF 6
