REMARK  Name = 
REMARK  3 active torsions:
REMARK  status: ('A' for Active; 'I' for Inactive)
REMARK    1  A    between atoms: C_2  and  O_3
REMARK    2  A    between atoms: O_3  and  C_4
REMARK    3  A    between atoms: C_4  and  C_5
REMARK                            x       y       z     vdW  Elec       q    Type
REMARK                         _______ _______ _______ _____ _____    ______ ____
ROOT
ATOM      1  C   UNL     1       0.474   0.051   0.000  0.00  0.00    +0.000 C 
ATOM      2  C   UNL     1      -0.054   0.680   0.000  0.00  0.00    +0.000 C 
ATOM      3  C   UNL     1       0.757  -0.723   0.000  0.00  0.00    +0.000 C 
ENDROOT
BRANCH   1   4
ATOM      4  C   UNL     1      -0.240  -0.362   0.000  0.00  0.00    +0.000 C 
ATOM      5  C   UNL     1      -0.958   0.051   0.000  0.00  0.00    +0.000 C 
ATOM      6  C   UNL     1      -1.667  -0.362   0.000  0.00  0.00    +0.000 C 
ATOM      7  C   UNL     1      -1.667  -1.187   0.000  0.00  0.00    +0.000 C 
ATOM      8  C   UNL     1      -0.958  -1.599   0.000  0.00  0.00    +0.000 C 
ATOM      9  C   UNL     1      -0.240  -1.187   0.000  0.00  0.00    +0.000 C 
ATOM     10  C   UNL     1      -2.382  -1.598   0.000  0.00  0.00    +0.000 C 
ENDBRANCH   1   4
BRANCH   1  11
ATOM     11  O   UNL     1       1.289   0.197   0.000  0.00  0.00    +0.000 OA
BRANCH  11  13
ATOM     12  O   UNL     1       2.382   1.114   0.000  0.00  0.00    +0.000 OA
ATOM     13  C   UNL     1       1.567   0.968   0.000  0.00  0.00    +0.000 C 
ATOM     14  C   UNL     1       1.036   1.599   0.000  0.00  0.00    +0.000 C 
ENDBRANCH  11  13
ENDBRANCH   1  11
TORSDOF 3
