REMARK  Name = 
REMARK  2 active torsions:
REMARK  status: ('A' for Active; 'I' for Inactive)
REMARK    1  A    between atoms: C_9  and  C_10
REMARK    2  A    between atoms: C_11  and  C_17
REMARK                            x       y       z     vdW  Elec       q    Type
REMARK                         _______ _______ _______ _____ _____    ______ ____
ROOT
ATOM      1  C   UNL     1       1.814   2.795   0.000  0.00  0.00    +0.000 A 
ATOM      2  C   UNL     1       2.637   2.854   0.000  0.00  0.00    +0.000 A 
ATOM      3  N   UNL     1       2.948   2.090   0.000  0.00  0.00    +0.000 N 
ATOM      4  C   UNL     1       2.317   1.558   0.000  0.00  0.00    +0.000 A 
ATOM      5  C   UNL     1       1.616   1.994   0.000  0.00  0.00    +0.000 A 
ATOM      6  C   UNL     1       0.889   1.605   0.000  0.00  0.00    +0.000 A 
ATOM      7  C   UNL     1       0.862   0.780   0.000  0.00  0.00    +0.000 A 
ATOM      8  C   UNL     1       1.562   0.345   0.000  0.00  0.00    +0.000 A 
ATOM      9  C   UNL     1       2.339   0.734   0.000  0.00  0.00    +0.000 A 
ATOM     10  C   UNL     1       2.998   0.237   0.000  0.00  0.00    +0.000 C 
ATOM     11  N   UNL     1       3.797   0.442   0.000  0.00  0.00    +0.000 N 
ATOM     12  C   UNL     1       4.135   1.195   0.000  0.00  0.00    +0.000 C 
ATOM     13  C   UNL     1       3.757   1.929   0.000  0.00  0.00    +0.000 C 
ATOM     14  C   UNL     1       4.329  -0.188   0.000  0.00  0.00    +0.000 C 
ATOM     15  O   UNL     1       5.141  -0.043   0.000  0.00  0.00    +0.000 OA
ATOM     16  N   UNL     1       4.048  -0.964   0.000  0.00  0.00    +0.000 N 
ATOM     17  C   UNL     1       4.580  -1.595   0.000  0.00  0.00    +0.000 C 
ATOM     18  C   UNL     1       4.300  -2.371   0.000  0.00  0.00    +0.000 C 
ATOM     19  C   UNL     1       3.488  -2.516   0.000  0.00  0.00    +0.000 C 
ATOM     20  C   UNL     1       2.956  -1.885   0.000  0.00  0.00    +0.000 C 
ATOM     21  C   UNL     1       3.236  -1.109   0.000  0.00  0.00    +0.000 C 
ATOM     22  F   UNL     1       0.134   0.391   0.000  0.00  0.00    +0.000 F 
ENDROOT
BRANCH   1  24
ATOM     23  C   UNL     1       1.480   4.226   0.000  0.00  0.00    +0.000 C 
ATOM     24  C   UNL     1       1.282   3.426   0.000  0.00  0.00    +0.000 C 
ATOM     25  C   UNL     1       0.459   3.366   0.000  0.00  0.00    +0.000 C 
ATOM     26  O   UNL     1       0.024   2.666   0.000  0.00  0.00    +0.000 OA
ATOM     27  N   UNL     1       0.148   4.130   0.000  0.00  0.00    +0.000 NA
ATOM     28  C   UNL     1       0.779   4.662   0.000  0.00  0.00    +0.000 C 
ATOM     29  O   UNL     1       0.720   5.485   0.000  0.00  0.00    +0.000 OA
BRANCH  23  38
ATOM     30  C   UNL     1       4.497   3.541   0.000  0.00  0.00    +0.000 A 
ATOM     31  C   UNL     1       3.866   3.009   0.000  0.00  0.00    +0.000 A 
ATOM     32  C   UNL     1       3.090   3.290   0.000  0.00  0.00    +0.000 A 
ATOM     33  N   UNL     1       2.945   4.102   0.000  0.00  0.00    +0.000 N 
ATOM     34  C   UNL     1       3.575   4.633   0.000  0.00  0.00    +0.000 A 
ATOM     35  C   UNL     1       4.351   4.353   0.000  0.00  0.00    +0.000 A 
ATOM     36  N   UNL     1       3.265   5.398   0.000  0.00  0.00    +0.000 NA
ATOM     37  C   UNL     1       2.442   5.338   0.000  0.00  0.00    +0.000 A 
ATOM     38  C   UNL     1       2.244   4.537   0.000  0.00  0.00    +0.000 A 
ENDBRANCH  23  38
ENDBRANCH   1  24
TORSDOF 2
