REMARK  Name = 
REMARK  29 active torsions:
REMARK  status: ('A' for Active; 'I' for Inactive)
REMARK    1  A    between atoms: C_15  and  C_21
REMARK    2  A    between atoms: C_15  and  C_25
REMARK    3  A    between atoms: C_16  and  C_22
REMARK    4  A    between atoms: C_16  and  C_26
REMARK    5  A    between atoms: C_17  and  C_18
REMARK    6  A    between atoms: C_17  and  C_47
REMARK    7  A    between atoms: C_18  and  C_48
REMARK    8  A    between atoms: C_21  and  N_57
REMARK    9  A    between atoms: C_22  and  N_58
REMARK   10  A    between atoms: C_25  and  O_73
REMARK   11  A    between atoms: C_26  and  O_74
REMARK   12  A    between atoms: C_27  and  C_35
REMARK   13  A    between atoms: C_27  and  C_39
REMARK   14  A    between atoms: C_28  and  C_36
REMARK   15  A    between atoms: C_28  and  C_40
REMARK   16  A    between atoms: C_41  and  O_61
REMARK   17  A    between atoms: C_42  and  O_62
REMARK   18  A    between atoms: C_43  and  O_63
REMARK   19  A    between atoms: C_44  and  O_64
REMARK   20  A    between atoms: C_45  and  O_65
REMARK   21  A    between atoms: C_46  and  O_66
REMARK   22  A    between atoms: C_47  and  O_73
REMARK   23  A    between atoms: C_48  and  O_74
REMARK   24  A    between atoms: C_51  and  O_67
REMARK   25  A    between atoms: C_52  and  O_68
REMARK   26  A    between atoms: C_53  and  O_69
REMARK   27  A    between atoms: C_54  and  O_70
REMARK   28  A    between atoms: C_55  and  O_71
REMARK   29  A    between atoms: C_56  and  O_72
REMARK                            x       y       z     vdW  Elec       q    Type
REMARK                         _______ _______ _______ _____ _____    ______ ____
ROOT
ATOM      1  C   UNL     1      -2.180  -0.653   0.000  0.00  0.00    +0.000 C 
ENDROOT
BRANCH   1   2
ATOM      2  C   UNL     1      -2.942  -0.969   0.000  0.00  0.00    +0.000 C 
ATOM      3  O   UNL     1      -3.049  -1.786   0.000  0.00  0.00    +0.000 OA
BRANCH   2   4
ATOM      4  O   UNL     1      -3.596  -0.466   0.000  0.00  0.00    +0.000 OA
BRANCH   4   5
ATOM      5  C   UNL     1      -4.358  -0.782   0.000  0.00  0.00    +0.000 C 
BRANCH   5   6
ATOM      6  C   UNL     1      -5.013  -0.280   0.000  0.00  0.00    +0.000 C 
BRANCH   6   7
ATOM      7  C   UNL     1      -4.905   0.538   0.000  0.00  0.00    +0.000 C 
BRANCH   7  18
ATOM      8  C   UNL     1      -3.560   0.270   0.000  0.00  0.00    +0.000 C 
ATOM      9  C   UNL     1      -3.429   2.091   0.000  0.00  0.00    +0.000 C 
ATOM     10  C   UNL     1      -3.429   1.266   0.000  0.00  0.00    +0.000 C 
ATOM     11  C   UNL     1      -4.143   3.329   0.000  0.00  0.00    +0.000 A 
ATOM     12  C   UNL     1      -4.143   2.504   0.000  0.00  0.00    +0.000 A 
ATOM     13  C   UNL     1      -4.857   1.266   0.000  0.00  0.00    +0.000 C 
ATOM     14  C   UNL     1      -4.857   3.741   0.000  0.00  0.00    +0.000 A 
ATOM     15  C   UNL     1      -4.857   2.091   0.000  0.00  0.00    +0.000 A 
ATOM     16  C   UNL     1      -5.572   3.329   0.000  0.00  0.00    +0.000 A 
ATOM     17  C   UNL     1      -5.572   2.504   0.000  0.00  0.00    +0.000 A 
ATOM     18  N   UNL     1      -4.143   0.854   0.000  0.00  0.00    +0.000 N 
BRANCH  14  20
ATOM     19  C   UNL     1      -4.143   4.979   0.000  0.00  0.00    +0.000 C 
ATOM     20  O   UNL     1      -4.857   4.566   0.000  0.00  0.00    +0.000 OA
ENDBRANCH  14  20
BRANCH  16  22
ATOM     21  C   UNL     1      -6.286   4.566   0.000  0.00  0.00    +0.000 C 
ATOM     22  O   UNL     1      -6.286   3.741   0.000  0.00  0.00    +0.000 OA
ENDBRANCH  16  22
BRANCH  17  24
ATOM     23  C   UNL     1      -7.001   2.504   0.000  0.00  0.00    +0.000 C 
ATOM     24  O   UNL     1      -6.286   2.091   0.000  0.00  0.00    +0.000 OA
ENDBRANCH  17  24
BRANCH  13  25
ATOM     25  C   UNL     1      -5.572   0.854   0.000  0.00  0.00    +0.000 C 
BRANCH  25  28
ATOM     26  C   UNL     1      -6.286  -1.209   0.000  0.00  0.00    +0.000 A 
ATOM     27  C   UNL     1      -4.857  -1.209   0.000  0.00  0.00    +0.000 A 
ATOM     28  C   UNL     1      -5.572  -0.796   0.000  0.00  0.00    +0.000 A 
ATOM     29  C   UNL     1      -6.286  -2.034   0.000  0.00  0.00    +0.000 A 
ATOM     30  C   UNL     1      -4.857  -2.034   0.000  0.00  0.00    +0.000 A 
ATOM     31  C   UNL     1      -5.572  -2.446   0.000  0.00  0.00    +0.000 A 
BRANCH  31  33
ATOM     32  C   UNL     1      -6.286  -3.683   0.000  0.00  0.00    +0.000 C 
ATOM     33  O   UNL     1      -5.572  -3.271   0.000  0.00  0.00    +0.000 OA
ENDBRANCH  31  33
BRANCH  29  35
ATOM     34  C   UNL     1      -7.001  -3.271   0.000  0.00  0.00    +0.000 C 
ATOM     35  O   UNL     1      -7.001  -2.446   0.000  0.00  0.00    +0.000 OA
ENDBRANCH  29  35
BRANCH  30  37
ATOM     36  C   UNL     1      -4.143  -3.271   0.000  0.00  0.00    +0.000 C 
ATOM     37  O   UNL     1      -4.143  -2.446   0.000  0.00  0.00    +0.000 OA
ENDBRANCH  30  37
ENDBRANCH  25  28
ENDBRANCH  13  25
ENDBRANCH   7  18
ENDBRANCH   6   7
ENDBRANCH   5   6
ENDBRANCH   4   5
ENDBRANCH   2   4
ENDBRANCH   1   2
BRANCH   1  38
ATOM     38  C   UNL     1      -1.525  -1.155   0.000  0.00  0.00    +0.000 C 
BRANCH  38  39
ATOM     39  C   UNL     1      -0.763  -0.839   0.000  0.00  0.00    +0.000 C 
ATOM     40  O   UNL     1      -0.655  -0.021   0.000  0.00  0.00    +0.000 OA
BRANCH  39  41
ATOM     41  O   UNL     1      -0.108  -1.341   0.000  0.00  0.00    +0.000 OA
BRANCH  41  42
ATOM     42  C   UNL     1       0.654  -1.026   0.000  0.00  0.00    +0.000 C 
BRANCH  42  43
ATOM     43  C   UNL     1       1.308  -1.528   0.000  0.00  0.00    +0.000 C 
BRANCH  43  44
ATOM     44  C   UNL     1       2.070  -1.212   0.000  0.00  0.00    +0.000 C 
BRANCH  44  55
ATOM     45  C   UNL     1       2.511  -2.511   0.000  0.00  0.00    +0.000 C 
ATOM     46  C   UNL     1       3.858  -0.845   0.000  0.00  0.00    +0.000 C 
ATOM     47  C   UNL     1       3.040  -0.952   0.000  0.00  0.00    +0.000 C 
ATOM     48  C   UNL     1       5.178  -1.391   0.000  0.00  0.00    +0.000 A 
ATOM     49  C   UNL     1       4.361  -1.499   0.000  0.00  0.00    +0.000 A 
ATOM     50  C   UNL     1       3.227  -2.369   0.000  0.00  0.00    +0.000 C 
ATOM     51  C   UNL     1       5.681  -2.046   0.000  0.00  0.00    +0.000 A 
ATOM     52  C   UNL     1       4.045  -2.261   0.000  0.00  0.00    +0.000 A 
ATOM     53  C   UNL     1       5.365  -2.808   0.000  0.00  0.00    +0.000 A 
ATOM     54  C   UNL     1       4.547  -2.916   0.000  0.00  0.00    +0.000 A 
ATOM     55  N   UNL     1       2.725  -1.714   0.000  0.00  0.00    +0.000 N 
BRANCH  51  57
ATOM     56  C   UNL     1       7.001  -2.593   0.000  0.00  0.00    +0.000 C 
ATOM     57  O   UNL     1       6.499  -1.938   0.000  0.00  0.00    +0.000 OA
ENDBRANCH  51  57
BRANCH  53  59
ATOM     58  C   UNL     1       6.685  -3.355   0.000  0.00  0.00    +0.000 C 
ATOM     59  O   UNL     1       5.867  -3.463   0.000  0.00  0.00    +0.000 OA
ENDBRANCH  53  59
BRANCH  54  61
ATOM     60  C   UNL     1       4.734  -4.332   0.000  0.00  0.00    +0.000 C 
ATOM     61  O   UNL     1       4.231  -3.678   0.000  0.00  0.00    +0.000 OA
ENDBRANCH  54  61
BRANCH  50  62
ATOM     62  C   UNL     1       2.911  -3.131   0.000  0.00  0.00    +0.000 C 
BRANCH  62  65
ATOM     63  C   UNL     1       1.591  -2.584   0.000  0.00  0.00    +0.000 A 
ATOM     64  C   UNL     1       1.778  -4.001   0.000  0.00  0.00    +0.000 A 
ATOM     65  C   UNL     1       2.093  -3.239   0.000  0.00  0.00    +0.000 A 
ATOM     66  C   UNL     1       0.773  -2.692   0.000  0.00  0.00    +0.000 A 
ATOM     67  C   UNL     1       0.960  -4.109   0.000  0.00  0.00    +0.000 A 
ATOM     68  C   UNL     1       0.458  -3.454   0.000  0.00  0.00    +0.000 A 
BRANCH  66  70
ATOM     69  C   UNL     1      -0.547  -2.145   0.000  0.00  0.00    +0.000 C 
ATOM     70  O   UNL     1       0.271  -2.038   0.000  0.00  0.00    +0.000 OA
ENDBRANCH  66  70
BRANCH  67  72
ATOM     71  C   UNL     1      -0.174  -4.979   0.000  0.00  0.00    +0.000 C 
ATOM     72  O   UNL     1       0.644  -4.871   0.000  0.00  0.00    +0.000 OA
ENDBRANCH  67  72
BRANCH  68  74
ATOM     73  C   UNL     1      -0.863  -2.907   0.000  0.00  0.00    +0.000 C 
ATOM     74  O   UNL     1      -0.360  -3.562   0.000  0.00  0.00    +0.000 OA
ENDBRANCH  68  74
ENDBRANCH  62  65
ENDBRANCH  50  62
ENDBRANCH  44  55
ENDBRANCH  43  44
ENDBRANCH  42  43
ENDBRANCH  41  42
ENDBRANCH  39  41
ENDBRANCH  38  39
ENDBRANCH   1  38
TORSDOF 29
