REMARK  Name = 
REMARK  5 active torsions:
REMARK  status: ('A' for Active; 'I' for Inactive)
REMARK    1  A    between atoms: C_2  and  N_3
REMARK    2  A    between atoms: N_3  and  C_4
REMARK    3  A    between atoms: C_6  and  C_8
REMARK    4  A    between atoms: C_8  and  S_9
REMARK    5  A    between atoms: S_9  and  C_10
REMARK                            x       y       z     vdW  Elec       q    Type
REMARK                         _______ _______ _______ _____ _____    ______ ____
ROOT
ATOM      1  C   UNL     1       0.000   0.714   0.000  0.00  0.00    +0.000 C 
ENDROOT
BRANCH   1   3
ATOM      2  N   UNL     1      -1.238   1.429   0.000  0.00  0.00    +0.000 N 
ATOM      3  C   UNL     1      -0.412   1.429   0.000  0.00  0.00    +0.000 C 
ATOM      4  O   UNL     1       0.000   2.143   0.000  0.00  0.00    +0.000 OA
BRANCH   2   6
ATOM      5  C   UNL     1      -2.475   2.143   0.000  0.00  0.00    +0.000 C 
ATOM      6  C   UNL     1      -1.650   2.143   0.000  0.00  0.00    +0.000 C 
ENDBRANCH   2   6
BRANCH   2   7
ATOM      7  C   UNL     1      -1.650   0.714   0.000  0.00  0.00    +0.000 C 
ATOM      8  C   UNL     1      -2.475   0.714   0.000  0.00  0.00    +0.000 C 
ENDBRANCH   2   7
ENDBRANCH   1   3
BRANCH   1   9
ATOM      9  S   UNL     1       0.825   0.714   0.000  0.00  0.00    +0.000 S 
BRANCH   9  10
ATOM     10  C   UNL     1       1.238   0.000   0.000  0.00  0.00    +0.000 A 
ATOM     11  C   UNL     1       2.062   0.000   0.000  0.00  0.00    +0.000 A 
ATOM     12  C   UNL     1       2.475  -0.714   0.000  0.00  0.00    +0.000 A 
ATOM     13  C   UNL     1       2.062  -1.429   0.000  0.00  0.00    +0.000 A 
ATOM     14  N   UNL     1       1.238  -1.429   0.000  0.00  0.00    +0.000 NA
ATOM     15  N   UNL     1       0.825  -0.714   0.000  0.00  0.00    +0.000 NA
ATOM     16 CL   UNL     1       2.475  -2.143   0.000  0.00  0.00    +0.000 Cl
ENDBRANCH   9  10
ENDBRANCH   1   9
TORSDOF 5
