REMARK  Name = 
REMARK  6 active torsions:
REMARK  status: ('A' for Active; 'I' for Inactive)
REMARK    1  A    between atoms: O_1  and  C_2
REMARK    2  A    between atoms: O_1  and  C_23
REMARK    3  A    between atoms: C_3  and  O_11
REMARK    4  A    between atoms: O_11  and  C_12
REMARK    5  A    between atoms: C_16  and  C_18
REMARK    6  A    between atoms: C_24  and  C_30
REMARK                            x       y       z     vdW  Elec       q    Type
REMARK                         _______ _______ _______ _____ _____    ______ ____
ROOT
ATOM      1  C   UNL     1       0.423   0.516   0.000  0.00  0.00    +0.000 C 
ATOM      2  C   UNL     1      -0.288   0.934   0.000  0.00  0.00    +0.000 C 
ATOM      3  C   UNL     1       1.141   0.923   0.000  0.00  0.00    +0.000 C 
ATOM      4  C   UNL     1      -0.282   1.759   0.000  0.00  0.00    +0.000 C 
ATOM      5  C   UNL     1       1.147   1.748   0.000  0.00  0.00    +0.000 C 
ATOM      6  C   UNL     1       0.436   2.166   0.000  0.00  0.00    +0.000 C 
ATOM      7  O   UNL     1       1.852   0.505   0.000  0.00  0.00    +0.000 OA
ATOM      8  N   UNL     1       1.865   2.155   0.000  0.00  0.00    +0.000 NA
ATOM      9  N   UNL     1      -0.993   2.177   0.000  0.00  0.00    +0.000 NA
ENDROOT
BRANCH   2  10
ATOM     10  O   UNL     1      -1.004   0.523   0.000  0.00  0.00    +0.000 OA
BRANCH  10  11
ATOM     11  C   UNL     1      -1.714   0.104   0.000  0.00  0.00    +0.000 C 
ATOM     12  C   UNL     1      -1.707  -0.721   0.000  0.00  0.00    +0.000 C 
ATOM     13  O   UNL     1      -2.432   0.510   0.000  0.00  0.00    +0.000 OA
ATOM     14  C   UNL     1      -2.418  -1.139   0.000  0.00  0.00    +0.000 C 
ATOM     15  C   UNL     1      -3.143   0.092   0.000  0.00  0.00    +0.000 C 
ATOM     16  C   UNL     1      -3.136  -0.733   0.000  0.00  0.00    +0.000 C 
ATOM     17  O   UNL     1      -3.847  -1.152   0.000  0.00  0.00    +0.000 OA
ATOM     18  O   UNL     1      -2.411  -1.964   0.000  0.00  0.00    +0.000 OA
ATOM     19  N   UNL     1      -0.989  -1.127   0.000  0.00  0.00    +0.000 NA
BRANCH  15  20
ATOM     20  C   UNL     1      -3.861   0.498   0.000  0.00  0.00    +0.000 C 
ATOM     21  N   UNL     1      -3.869   1.323   0.000  0.00  0.00    +0.000 NA
ENDBRANCH  15  20
ENDBRANCH  10  11
ENDBRANCH   2  10
BRANCH   1  22
ATOM     22  O   UNL     1       0.416  -0.309   0.000  0.00  0.00    +0.000 OA
BRANCH  22  23
ATOM     23  C   UNL     1       1.136  -0.725   0.000  0.00  0.00    +0.000 C 
ATOM     24  C   UNL     1       2.471  -0.725   0.000  0.00  0.00    +0.000 C 
ATOM     25  O   UNL     1       1.803  -0.240   0.000  0.00  0.00    +0.000 OA
ATOM     26  C   UNL     1       2.216  -1.510   0.000  0.00  0.00    +0.000 C 
ATOM     27  C   UNL     1       1.391  -1.510   0.000  0.00  0.00    +0.000 C 
ATOM     28  O   UNL     1       0.906  -2.177   0.000  0.00  0.00    +0.000 OA
ATOM     29  O   UNL     1       2.701  -2.177   0.000  0.00  0.00    +0.000 OA
BRANCH  24  30
ATOM     30  C   UNL     1       3.256  -0.470   0.000  0.00  0.00    +0.000 C 
ATOM     31  O   UNL     1       3.869  -1.022   0.000  0.00  0.00    +0.000 OA
ENDBRANCH  24  30
ENDBRANCH  22  23
ENDBRANCH   1  22
TORSDOF 6
