REMARK  Name = 
REMARK  13 active torsions:
REMARK  status: ('A' for Active; 'I' for Inactive)
REMARK    1  A    between atoms: C_6  and  C_54
REMARK    2  A    between atoms: C_15  and  O_20
REMARK    3  A    between atoms: O_20  and  C_21
REMARK    4  A    between atoms: C_23  and  C_24
REMARK    5  A    between atoms: C_28  and  O_29
REMARK    6  A    between atoms: O_29  and  C_30
REMARK    7  A    between atoms: C_32  and  C_33
REMARK    8  A    between atoms: C_41  and  O_42
REMARK    9  A    between atoms: O_42  and  C_43
REMARK   10  A    between atoms: C_45  and  C_46
REMARK   11  A    between atoms: C_54  and  O_56
REMARK   12  A    between atoms: O_56  and  C_57
REMARK   13  A    between atoms: C_59  and  C_60
REMARK                            x       y       z     vdW  Elec       q    Type
REMARK                         _______ _______ _______ _____ _____    ______ ____
ROOT
ATOM      1  O   UNL     1      -1.092   0.988   0.000  0.00  0.00    +0.000 OA
ENDROOT
BRANCH   1  16
ATOM      2  C   UNL     1       1.826   0.778   0.000  0.00  0.00    +0.000 C 
ATOM      3  C   UNL     1       2.066  -0.011   0.000  0.00  0.00    +0.000 C 
ATOM      4  C   UNL     1       2.624   0.596   0.000  0.00  0.00    +0.000 C 
ATOM      5  C   UNL     1       3.429   0.416   0.000  0.00  0.00    +0.000 C 
ATOM      6  C   UNL     1       3.676  -0.371   0.000  0.00  0.00    +0.000 C 
ATOM      7  C   UNL     1       3.118  -0.978   0.000  0.00  0.00    +0.000 C 
ATOM      8  C   UNL     1       2.802  -1.740   0.000  0.00  0.00    +0.000 C 
ATOM      9  C   UNL     1       2.313  -0.799   0.000  0.00  0.00    +0.000 C 
ATOM     10  C   UNL     1       1.760  -1.423   0.000  0.00  0.00    +0.000 C 
ATOM     11  C   UNL     1       0.951  -1.254   0.000  0.00  0.00    +0.000 C 
ATOM     12  C   UNL     1       0.647  -0.467   0.000  0.00  0.00    +0.000 C 
ATOM     13  C   UNL     1      -0.164  -0.848   0.000  0.00  0.00    +0.000 C 
ATOM     14  C   UNL     1      -0.785  -0.240   0.000  0.00  0.00    +0.000 C 
ATOM     15  C   UNL     1      -1.599  -0.379   0.000  0.00  0.00    +0.000 C 
ATOM     16  C   UNL     1      -0.403   0.533   0.000  0.00  0.00    +0.000 C 
ATOM     17  C   UNL     1       0.173   0.067   0.000  0.00  0.00    +0.000 C 
ATOM     18  C   UNL     1       0.159   1.191   0.000  0.00  0.00    +0.000 C 
ATOM     19  C   UNL     1       1.004   1.031   0.000  0.00  0.00    +0.000 C 
ATOM     20  C   UNL     1       1.247   0.186   0.000  0.00  0.00    +0.000 C 
BRANCH   7  21
ATOM     21  C   UNL     1       3.814  -1.422   0.000  0.00  0.00    +0.000 C 
ATOM     22  O   UNL     1       4.546  -1.042   0.000  0.00  0.00    +0.000 OA
BRANCH  21  23
ATOM     23  O   UNL     1       3.777  -2.247   0.000  0.00  0.00    +0.000 OA
BRANCH  23  24
ATOM     24  C   UNL     1       4.472  -2.691   0.000  0.00  0.00    +0.000 C 
ATOM     25  O   UNL     1       5.204  -2.311   0.000  0.00  0.00    +0.000 OA
ATOM     26  C   UNL     1       5.899  -2.755   0.000  0.00  0.00    +0.000 C 
ATOM     27  C   UNL     1       5.862  -3.579   0.000  0.00  0.00    +0.000 C 
ATOM     28  O   UNL     1       6.558  -4.023   0.000  0.00  0.00    +0.000 OA
ATOM     29  C   UNL     1       5.130  -3.959   0.000  0.00  0.00    +0.000 C 
ATOM     30  O   UNL     1       5.093  -4.783   0.000  0.00  0.00    +0.000 OA
ATOM     31  C   UNL     1       4.435  -3.515   0.000  0.00  0.00    +0.000 C 
ATOM     32  O   UNL     1       3.703  -3.895   0.000  0.00  0.00    +0.000 OA
BRANCH  26  33
ATOM     33  C   UNL     1       6.632  -2.375   0.000  0.00  0.00    +0.000 C 
ATOM     34  O   UNL     1       7.327  -2.819   0.000  0.00  0.00    +0.000 OA
ENDBRANCH  26  33
ENDBRANCH  23  24
ENDBRANCH  21  23
ENDBRANCH   7  21
ENDBRANCH   1  16
BRANCH   1  35
ATOM     35  C   UNL     1      -1.043   1.811   0.000  0.00  0.00    +0.000 C 
ATOM     36  O   UNL     1      -0.305   2.181   0.000  0.00  0.00    +0.000 OA
ATOM     37  C   UNL     1      -0.256   3.004   0.000  0.00  0.00    +0.000 C 
ATOM     38  C   UNL     1      -0.945   3.458   0.000  0.00  0.00    +0.000 C 
ATOM     39  O   UNL     1      -0.896   4.282   0.000  0.00  0.00    +0.000 OA
ATOM     40  C   UNL     1      -1.683   3.089   0.000  0.00  0.00    +0.000 C 
ATOM     41  C   UNL     1      -1.732   2.265   0.000  0.00  0.00    +0.000 C 
BRANCH  37  42
ATOM     42  C   UNL     1       0.481   3.374   0.000  0.00  0.00    +0.000 C 
ATOM     43  O   UNL     1       0.530   4.197   0.000  0.00  0.00    +0.000 OA
ENDBRANCH  37  42
BRANCH  40  44
ATOM     44  O   UNL     1      -2.372   3.543   0.000  0.00  0.00    +0.000 OA
BRANCH  44  45
ATOM     45  C   UNL     1      -2.323   4.366   0.000  0.00  0.00    +0.000 C 
ATOM     46  O   UNL     1      -1.585   4.736   0.000  0.00  0.00    +0.000 OA
ATOM     47  C   UNL     1      -1.536   5.559   0.000  0.00  0.00    +0.000 C 
ATOM     48  C   UNL     1      -2.225   6.013   0.000  0.00  0.00    +0.000 C 
ATOM     49  O   UNL     1      -2.176   6.837   0.000  0.00  0.00    +0.000 OA
ATOM     50  C   UNL     1      -2.963   5.644   0.000  0.00  0.00    +0.000 C 
ATOM     51  O   UNL     1      -3.652   6.098   0.000  0.00  0.00    +0.000 OA
ATOM     52  C   UNL     1      -3.012   4.820   0.000  0.00  0.00    +0.000 C 
ATOM     53  O   UNL     1      -3.749   4.451   0.000  0.00  0.00    +0.000 OA
BRANCH  47  54
ATOM     54  C   UNL     1      -0.799   5.929   0.000  0.00  0.00    +0.000 C 
ATOM     55  O   UNL     1      -0.110   5.475   0.000  0.00  0.00    +0.000 OA
ENDBRANCH  47  54
ENDBRANCH  44  45
ENDBRANCH  40  44
BRANCH  41  56
ATOM     56  O   UNL     1      -2.469   1.896   0.000  0.00  0.00    +0.000 OA
BRANCH  56  57
ATOM     57  C   UNL     1      -3.158   2.350   0.000  0.00  0.00    +0.000 C 
ATOM     58  O   UNL     1      -3.896   1.980   0.000  0.00  0.00    +0.000 OA
ATOM     59  C   UNL     1      -4.584   2.434   0.000  0.00  0.00    +0.000 C 
ATOM     60  C   UNL     1      -4.536   3.258   0.000  0.00  0.00    +0.000 C 
ATOM     61  O   UNL     1      -5.224   3.712   0.000  0.00  0.00    +0.000 OA
ATOM     62  C   UNL     1      -3.798   3.627   0.000  0.00  0.00    +0.000 C 
ATOM     63  O   UNL     1      -4.243   4.322   0.000  0.00  0.00    +0.000 OA
ATOM     64  C   UNL     1      -3.109   3.173   0.000  0.00  0.00    +0.000 C 
ATOM     65  O   UNL     1      -2.730   3.906   0.000  0.00  0.00    +0.000 OA
BRANCH  59  66
ATOM     66  C   UNL     1      -5.322   2.065   0.000  0.00  0.00    +0.000 C 
ATOM     67  O   UNL     1      -5.371   1.241   0.000  0.00  0.00    +0.000 OA
ENDBRANCH  59  66
ENDBRANCH  56  57
ENDBRANCH  41  56
ENDBRANCH   1  35
TORSDOF 13
