REMARK  Name = 
REMARK  7 active torsions:
REMARK  status: ('A' for Active; 'I' for Inactive)
REMARK    1  A    between atoms: C_1  and  C_2
REMARK    2  A    between atoms: C_2  and  N_5
REMARK    3  A    between atoms: C_2  and  C_6
REMARK    4  A    between atoms: C_7  and  S_14
REMARK    5  A    between atoms: C_10  and  C_16
REMARK    6  A    between atoms: C_22  and  C_26
REMARK    7  A    between atoms: C_26  and  C_27
REMARK                            x       y       z     vdW  Elec       q    Type
REMARK                         _______ _______ _______ _____ _____    ______ ____
ROOT
ATOM      1  C   UNL     1       0.138  -1.022   0.000  0.00  0.00    +0.000 C 
ENDROOT
BRANCH   1   2
ATOM      2  C   UNL     1       0.849  -0.609   0.000  0.00  0.00    +0.000 C 
ATOM      3  O   UNL     1       1.571  -1.022   0.000  0.00  0.00    +0.000 OA
ATOM      4  C   UNL     1       0.849   0.216   0.000  0.00  0.00    +0.000 C 
ATOM      5  C   UNL     1       2.283  -0.609   0.000  0.00  0.00    +0.000 C 
ATOM      6  C   UNL     1       1.571   0.628   0.000  0.00  0.00    +0.000 C 
ATOM      7  O   UNL     1       0.138   0.632   0.000  0.00  0.00    +0.000 OA
ATOM      8  C   UNL     1       2.283   0.216   0.000  0.00  0.00    +0.000 C 
ATOM      9  O   UNL     1       1.571   1.461   0.000  0.00  0.00    +0.000 OA
ATOM     10  O   UNL     1       3.002   0.628   0.000  0.00  0.00    +0.000 OA
BRANCH   5  11
ATOM     11  S   UNL     1       3.002  -1.022   0.000  0.00  0.00    +0.000 S 
ATOM     12  C   UNL     1       3.717  -0.609   0.000  0.00  0.00    +0.000 C 
ENDBRANCH   5  11
ENDBRANCH   1   2
BRANCH   1  13
ATOM     13  N   UNL     1      -0.577  -0.609   0.000  0.00  0.00    +0.000 NA
ATOM     14  C   UNL     1      -1.296  -1.018   0.000  0.00  0.00    +0.000 C 
ATOM     15  O   UNL     1      -1.296  -1.843   0.000  0.00  0.00    +0.000 OA
BRANCH  14  16
ATOM     16  C   UNL     1      -2.016  -0.607   0.000  0.00  0.00    +0.000 C 
ATOM     17  C   UNL     1      -2.266   0.174   0.000  0.00  0.00    +0.000 C 
ATOM     18  N   UNL     1      -2.679  -1.086   0.000  0.00  0.00    +0.000 NA
ATOM     19  C   UNL     1      -3.086   0.176   0.000  0.00  0.00    +0.000 C 
ATOM     20  C   UNL     1      -3.340  -0.600   0.000  0.00  0.00    +0.000 C 
ATOM     21  C   UNL     1      -2.684  -1.908   0.000  0.00  0.00    +0.000 C 
BRANCH  19  22
ATOM     22  C   UNL     1      -3.570   0.845   0.000  0.00  0.00    +0.000 C 
BRANCH  22  23
ATOM     23  C   UNL     1      -3.233   1.598   0.000  0.00  0.00    +0.000 C 
ATOM     24  C   UNL     1      -3.717   2.266   0.000  0.00  0.00    +0.000 C 
ENDBRANCH  22  23
ENDBRANCH  19  22
ENDBRANCH  14  16
ENDBRANCH   1  13
BRANCH   1  25
ATOM     25  C   UNL     1       0.131  -1.847   0.000  0.00  0.00    +0.000 C 
ATOM     26  C   UNL     1       0.839  -2.266   0.000  0.00  0.00    +0.000 C 
ATOM     27  O   UNL     1      -0.588  -2.256   0.000  0.00  0.00    +0.000 OA
ENDBRANCH   1  25
TORSDOF 7
