REMARK  Name = 
REMARK  2 active torsions:
REMARK  status: ('A' for Active; 'I' for Inactive)
REMARK    1  A    between atoms: C_2  and  C_3
REMARK    2  A    between atoms: C_20  and  C_34
REMARK                            x       y       z     vdW  Elec       q    Type
REMARK                         _______ _______ _______ _____ _____    ______ ____
ROOT
ATOM      1  C   UNL     1      -1.734  -2.462   0.000  0.00  0.00    +0.000 C 
ATOM      2  C   UNL     1      -2.144  -1.747   0.000  0.00  0.00    +0.000 C 
ATOM      3  C   UNL     1      -2.856  -0.508   0.000  0.00  0.00    +0.000 C 
ATOM      4  C   UNL     1      -2.856  -1.337   0.000  0.00  0.00    +0.000 C 
ATOM      5  C   UNL     1      -2.140  -0.089   0.000  0.00  0.00    +0.000 C 
ATOM      6  C   UNL     1      -1.425  -0.508   0.000  0.00  0.00    +0.000 C 
ATOM      7  C   UNL     1      -1.424  -1.337   0.000  0.00  0.00    +0.000 C 
ATOM      8  C   UNL     1      -0.710  -1.748   0.000  0.00  0.00    +0.000 C 
ATOM      9  C   UNL     1       0.007  -1.335   0.000  0.00  0.00    +0.000 C 
ATOM     10  C   UNL     1      -0.712  -0.090   0.000  0.00  0.00    +0.000 C 
ATOM     11  C   UNL     1       0.002  -0.508   0.000  0.00  0.00    +0.000 C 
ATOM     12  C   UNL     1       0.010   1.144   0.000  0.00  0.00    +0.000 C 
ATOM     13  C   UNL     1      -0.712   0.735   0.000  0.00  0.00    +0.000 C 
ATOM     14  C   UNL     1       0.725   0.726   0.000  0.00  0.00    +0.000 C 
ATOM     15  C   UNL     1       0.714  -0.097   0.000  0.00  0.00    +0.000 C 
ATOM     16  C   UNL     1       1.418  -0.516   0.000  0.00  0.00    +0.000 C 
ATOM     17  C   UNL     1       2.137  -0.116   0.000  0.00  0.00    +0.000 C 
ATOM     18  C   UNL     1       1.439   1.131   0.000  0.00  0.00    +0.000 C 
ATOM     19  C   UNL     1       2.145   0.707   0.000  0.00  0.00    +0.000 C 
ATOM     20  C   UNL     1       2.861   1.104   0.000  0.00  0.00    +0.000 C 
ATOM     21  C   UNL     1       2.878   1.926   0.000  0.00  0.00    +0.000 C 
ATOM     22  C   UNL     1       2.172   2.350   0.000  0.00  0.00    +0.000 C 
ATOM     23  C   UNL     1       1.450   1.952   0.000  0.00  0.00    +0.000 C 
ATOM     24  C   UNL     1      -1.433   0.321   0.000  0.00  0.00    +0.000 C 
ATOM     25  O   UNL     1      -3.575  -0.096   0.000  0.00  0.00    +0.000 OA
ATOM     26  O   UNL     1      -3.573  -1.752   0.000  0.00  0.00    +0.000 OA
ATOM     27  O   UNL     1      -0.710  -2.576   0.000  0.00  0.00    +0.000 OA
ATOM     28  C   UNL     1      -0.006   0.321   0.000  0.00  0.00    +0.000 C 
ATOM     29  C   UNL     1       0.706  -0.922   0.000  0.00  0.00    +0.000 C 
ATOM     30  C   UNL     1       2.188   3.179   0.000  0.00  0.00    +0.000 C 
ATOM     31  C   UNL     1       0.739   2.378   0.000  0.00  0.00    +0.000 C 
ENDROOT
BRANCH  19  32
ATOM     32  C   UNL     1       2.857   0.296   0.000  0.00  0.00    +0.000 C 
ATOM     33  O   UNL     1       2.857  -0.533   0.000  0.00  0.00    +0.000 OA
ATOM     34  O   UNL     1       3.575   0.710   0.000  0.00  0.00    +0.000 OA
ENDBRANCH  19  32
BRANCH   2  35
ATOM     35  C   UNL     1      -2.559  -2.460   0.000  0.00  0.00    +0.000 C 
ATOM     36  O   UNL     1      -2.147  -3.179   0.000  0.00  0.00    +0.000 OA
ENDBRANCH   2  35
TORSDOF 2
