REMARK  Name = 
REMARK  10 active torsions:
REMARK  status: ('A' for Active; 'I' for Inactive)
REMARK    1  A    between atoms: C_8  and  C_13
REMARK    2  A    between atoms: C_13  and  C_14
REMARK    3  A    between atoms: C_14  and  C_15
REMARK    4  A    between atoms: C_15  and  C_16
REMARK    5  A    between atoms: C_16  and  C_17
REMARK    6  A    between atoms: C_17  and  C_18
REMARK    7  A    between atoms: C_18  and  C_19
REMARK    8  A    between atoms: C_19  and  C_20
REMARK    9  A    between atoms: C_20  and  C_21
REMARK   10  A    between atoms: C_21  and  C_22
REMARK                            x       y       z     vdW  Elec       q    Type
REMARK                         _______ _______ _______ _____ _____    ______ ____
ROOT
ATOM      1  N   UNL     1       2.975  -2.041   0.000  0.00  0.00    +0.000 NA
ATOM      2  S   UNL     1       2.975  -3.344   0.000  0.00  0.00    +0.000 S 
ATOM      3  C   UNL     1       3.496  -2.692   0.000  0.00  0.00    +0.000 A 
ATOM      4  C   UNL     1       2.193  -2.258   0.000  0.00  0.00    +0.000 A 
ATOM      5  C   UNL     1       2.193  -3.127   0.000  0.00  0.00    +0.000 A 
ATOM      6  C   UNL     1       1.498  -3.518   0.000  0.00  0.00    +0.000 C 
ATOM      7  C   UNL     1       0.803  -3.127   0.000  0.00  0.00    +0.000 C 
ATOM      8  C   UNL     1       0.803  -2.258   0.000  0.00  0.00    +0.000 C 
ATOM      9  C   UNL     1       1.498  -1.867   0.000  0.00  0.00    +0.000 C 
ATOM     10  O   UNL     1       1.455  -1.042   0.000  0.00  0.00    +0.000 OA
ATOM     11  O   UNL     1       1.455  -4.343   0.000  0.00  0.00    +0.000 OA
ATOM     12  O   UNL     1       0.065  -3.518   0.000  0.00  0.00    +0.000 OA
ENDROOT
BRANCH   8  13
ATOM     13  C   UNL     1       0.065  -1.867   0.000  0.00  0.00    +0.000 C 
BRANCH  13  14
ATOM     14  C   UNL     1       0.065  -1.042   0.000  0.00  0.00    +0.000 C 
BRANCH  14  15
ATOM     15  C   UNL     1      -0.630  -0.608   0.000  0.00  0.00    +0.000 C 
BRANCH  15  16
ATOM     16  C   UNL     1      -0.630   0.217   0.000  0.00  0.00    +0.000 C 
BRANCH  16  17
ATOM     17  C   UNL     1      -1.368   0.651   0.000  0.00  0.00    +0.000 C 
BRANCH  17  18
ATOM     18  C   UNL     1      -1.368   1.476   0.000  0.00  0.00    +0.000 C 
BRANCH  18  19
ATOM     19  C   UNL     1      -2.063   1.867   0.000  0.00  0.00    +0.000 C 
BRANCH  19  20
ATOM     20  C   UNL     1      -2.063   2.692   0.000  0.00  0.00    +0.000 C 
BRANCH  20  21
ATOM     21  C   UNL     1      -2.757   3.127   0.000  0.00  0.00    +0.000 C 
BRANCH  21  22
ATOM     22  C   UNL     1      -2.757   3.952   0.000  0.00  0.00    +0.000 C 
ATOM     23  C   UNL     1      -3.496   4.343   0.000  0.00  0.00    +0.000 C 
ENDBRANCH  21  22
ENDBRANCH  20  21
ENDBRANCH  19  20
ENDBRANCH  18  19
ENDBRANCH  17  18
ENDBRANCH  16  17
ENDBRANCH  15  16
ENDBRANCH  14  15
ENDBRANCH  13  14
ENDBRANCH   8  13
TORSDOF 10
