REMARK  Name = 
REMARK  20 active torsions:
REMARK  status: ('A' for Active; 'I' for Inactive)
REMARK    1  A    between atoms: O_12  and  C_45
REMARK    2  A    between atoms: O_12  and  C_57
REMARK    3  A    between atoms: O_15  and  C_52
REMARK    4  A    between atoms: O_15  and  C_71
REMARK    5  A    between atoms: O_16  and  C_55
REMARK    6  A    between atoms: O_16  and  C_66
REMARK    7  A    between atoms: O_17  and  C_51
REMARK    8  A    between atoms: O_17  and  C_76
REMARK    9  A    between atoms: O_20  and  C_64
REMARK   10  A    between atoms: O_20  and  C_67
REMARK   11  A    between atoms: O_22  and  C_62
REMARK   12  A    between atoms: O_26  and  C_68
REMARK   13  A    between atoms: O_28  and  C_77
REMARK   14  A    between atoms: O_30  and  C_78
REMARK   15  A    between atoms: O_30  and  C_87
REMARK   16  A    between atoms: O_33  and  C_90
REMARK   17  A    between atoms: C_43  and  C_59
REMARK   18  A    between atoms: C_70  and  C_77
REMARK   19  A    between atoms: C_76  and  C_80
REMARK   20  A    between atoms: C_87  and  C_88
REMARK                            x       y       z     vdW  Elec       q    Type
REMARK                         _______ _______ _______ _____ _____    ______ ____
ROOT
ATOM      1  O   UNL     1       2.968  -0.215   0.000  0.00  0.00    +0.000 OA
ATOM      2  O   UNL     1       2.254  -2.277   0.000  0.00  0.00    +0.000 OA
ATOM      3  C   UNL     1       1.539  -1.040   0.000  0.00  0.00    +0.000 C 
ATOM      4  C   UNL     1       2.254  -1.452   0.000  0.00  0.00    +0.000 C 
ATOM      5  C   UNL     1       1.539  -0.215   0.000  0.00  0.00    +0.000 C 
ATOM      6  C   UNL     1       2.968  -1.040   0.000  0.00  0.00    +0.000 C 
ATOM      7  C   UNL     1       2.254   0.198   0.000  0.00  0.00    +0.000 C 
ATOM      8  C   UNL     1       2.254   1.023   0.000  0.00  0.00    +0.000 C 
ENDROOT
BRANCH   5   9
ATOM      9  O   UNL     1       0.825   0.198   0.000  0.00  0.00    +0.000 OA
ATOM     10  C   UNL     1       0.825   1.023   0.000  0.00  0.00    +0.000 C 
ENDBRANCH   5   9
BRANCH   6  11
ATOM     11  O   UNL     1       3.682  -1.452   0.000  0.00  0.00    +0.000 OA
BRANCH  11  15
ATOM     12  O   UNL     1       5.111   0.198   0.000  0.00  0.00    +0.000 OA
ATOM     13  O   UNL     1       5.111  -2.277   0.000  0.00  0.00    +0.000 OA
ATOM     14  C   UNL     1       5.826  -0.215   0.000  0.00  0.00    +0.000 C 
ATOM     15  C   UNL     1       4.397  -1.040   0.000  0.00  0.00    +0.000 C 
ATOM     16  C   UNL     1       5.826  -1.040   0.000  0.00  0.00    +0.000 C 
ATOM     17  C   UNL     1       5.111  -1.452   0.000  0.00  0.00    +0.000 C 
ATOM     18  C   UNL     1       4.397  -0.215   0.000  0.00  0.00    +0.000 C 
BRANCH  16  19
ATOM     19  O   UNL     1       6.540  -1.452   0.000  0.00  0.00    +0.000 OA
ATOM     20  C   UNL     1       7.255  -1.040   0.000  0.00  0.00    +0.000 C 
ENDBRANCH  16  19
BRANCH  18  21
ATOM     21  C   UNL     1       3.682   0.198   0.000  0.00  0.00    +0.000 C 
BRANCH  21  22
ATOM     22  O   UNL     1       3.682   1.023   0.000  0.00  0.00    +0.000 OA
ATOM     23  C   UNL     1       2.968   1.435   0.000  0.00  0.00    +0.000 C 
ENDBRANCH  21  22
ENDBRANCH  18  21
BRANCH  14  24
ATOM     24  O   UNL     1       6.540   0.198   0.000  0.00  0.00    +0.000 OA
BRANCH  24  41
ATOM     25  O   UNL     1       7.888   2.864   0.000  0.00  0.00    +0.000 OA
ATOM     26  O   UNL     1       6.735   3.536   0.000  0.00  0.00    +0.000 OA
ATOM     27  O   UNL     1       8.381   3.616   0.000  0.00  0.00    +0.000 OA
ATOM     28  O   UNL     1       6.345   4.511   0.000  0.00  0.00    +0.000 OA
ATOM     29  O   UNL     1       7.013   5.658   0.000  0.00  0.00    +0.000 OA
ATOM     30  O   UNL     1       5.798   1.455   0.000  0.00  0.00    +0.000 OA
ATOM     31  O   UNL     1       8.389   5.870   0.000  0.00  0.00    +0.000 OA
ATOM     32  C   UNL     1       7.556   3.619   0.000  0.00  0.00    +0.000 C 
ATOM     33  C   UNL     1       7.146   4.335   0.000  0.00  0.00    +0.000 C 
ATOM     34  C   UNL     1       7.561   5.048   0.000  0.00  0.00    +0.000 C 
ATOM     35  C   UNL     1       8.386   5.045   0.000  0.00  0.00    +0.000 C 
ATOM     36  C   UNL     1       7.273   2.315   0.000  0.00  0.00    +0.000 C 
ATOM     37  C   UNL     1       6.560   2.730   0.000  0.00  0.00    +0.000 C 
ATOM     38  C   UNL     1       8.796   4.329   0.000  0.00  0.00    +0.000 C 
ATOM     39  C   UNL     1       7.283   1.455   0.000  0.00  0.00    +0.000 C 
ATOM     40  C   UNL     1       5.808   2.315   0.000  0.00  0.00    +0.000 C 
ATOM     41  C   UNL     1       6.540   1.023   0.000  0.00  0.00    +0.000 C 
ATOM     42  C   UNL     1       6.263   5.327   0.000  0.00  0.00    +0.000 C 
ATOM     43  C   UNL     1       9.621   4.326   0.000  0.00  0.00    +0.000 C 
BRANCH  35  45
ATOM     44  O   UNL     1       9.815   5.040   0.000  0.00  0.00    +0.000 OA
ATOM     45  C   UNL     1       9.102   5.455   0.000  0.00  0.00    +0.000 C 
ATOM     46  C   UNL     1       9.105   6.280   0.000  0.00  0.00    +0.000 C 
ENDBRANCH  35  45
BRANCH  39  47
ATOM     47  O   UNL     1       8.001   1.048   0.000  0.00  0.00    +0.000 OA
BRANCH  47  49
ATOM     48  O   UNL     1       8.705   2.291   0.000  0.00  0.00    +0.000 OA
ATOM     49  C   UNL     1       8.712   1.466   0.000  0.00  0.00    +0.000 C 
BRANCH  49  50
ATOM     50  C   UNL     1       9.430   1.059   0.000  0.00  0.00    +0.000 C 
ATOM     51  C   UNL     1      10.141   1.477   0.000  0.00  0.00    +0.000 C 
ATOM     52  C   UNL     1       9.436   0.234   0.000  0.00  0.00    +0.000 C 
ENDBRANCH  49  50
ENDBRANCH  47  49
ENDBRANCH  39  47
ENDBRANCH  24  41
ENDBRANCH  14  24
ENDBRANCH  11  15
ENDBRANCH   6  11
BRANCH   3  53
ATOM     53  O   UNL     1       0.825  -1.452   0.000  0.00  0.00    +0.000 OA
BRANCH  53  64
ATOM     54  O   UNL     1      -2.158  -1.286   0.000  0.00  0.00    +0.000 OA
ATOM     55  O   UNL     1      -2.164   0.049   0.000  0.00  0.00    +0.000 OA
ATOM     56  O   UNL     1       0.107  -0.180   0.000  0.00  0.00    +0.000 OA
ATOM     57  O   UNL     1      -3.056  -1.337   0.000  0.00  0.00    +0.000 OA
ATOM     58  O   UNL     1      -4.301   0.802   0.000  0.00  0.00    +0.000 OA
ATOM     59  C   UNL     1      -1.375  -1.028   0.000  0.00  0.00    +0.000 C 
ATOM     60  C   UNL     1      -1.378  -0.203   0.000  0.00  0.00    +0.000 C 
ATOM     61  C   UNL     1      -2.646  -0.621   0.000  0.00  0.00    +0.000 C 
ATOM     62  C   UNL     1      -0.636  -1.466   0.000  0.00  0.00    +0.000 C 
ATOM     63  C   UNL     1      -0.642   0.241   0.000  0.00  0.00    +0.000 C 
ATOM     64  C   UNL     1       0.110  -1.040   0.000  0.00  0.00    +0.000 C 
ATOM     65  C   UNL     1      -3.061   0.092   0.000  0.00  0.00    +0.000 C 
ATOM     66  C   UNL     1      -1.372  -1.853   0.000  0.00  0.00    +0.000 C 
ATOM     67  C   UNL     1      -3.886   0.089   0.000  0.00  0.00    +0.000 C 
ATOM     68  C   UNL     1      -4.296  -0.627   0.000  0.00  0.00    +0.000 C 
ATOM     69  C   UNL     1      -3.881  -1.340   0.000  0.00  0.00    +0.000 C 
ATOM     70  C   UNL     1      -0.655   1.066   0.000  0.00  0.00    +0.000 C 
ATOM     71  C   UNL     1      -4.290  -2.056   0.000  0.00  0.00    +0.000 C 
BRANCH  68  72
ATOM     72  O   UNL     1      -5.121  -0.630   0.000  0.00  0.00    +0.000 OA
BRANCH  72  75
ATOM     73  O   UNL     1      -6.356  -1.349   0.000  0.00  0.00    +0.000 OA
ATOM     74  O   UNL     1      -5.110  -3.488   0.000  0.00  0.00    +0.000 OA
ATOM     75  C   UNL     1      -5.531  -1.346   0.000  0.00  0.00    +0.000 C 
ATOM     76  C   UNL     1      -5.115  -2.059   0.000  0.00  0.00    +0.000 C 
ATOM     77  C   UNL     1      -5.525  -2.775   0.000  0.00  0.00    +0.000 C 
ATOM     78  C   UNL     1      -6.350  -2.778   0.000  0.00  0.00    +0.000 C 
ATOM     79  C   UNL     1      -6.765  -2.065   0.000  0.00  0.00    +0.000 C 
ATOM     80  C   UNL     1      -7.590  -2.068   0.000  0.00  0.00    +0.000 C 
BRANCH  78  81
ATOM     81  O   UNL     1      -6.760  -3.494   0.000  0.00  0.00    +0.000 OA
BRANCH  81  83
ATOM     82  O   UNL     1      -8.000  -2.785   0.000  0.00  0.00    +0.000 OA
ATOM     83  C   UNL     1      -7.585  -3.498   0.000  0.00  0.00    +0.000 C 
BRANCH  83  87
ATOM     84 CL   UNL     1      -7.574  -6.355   0.000  0.00  0.00    +0.000 Cl
ATOM     85 CL   UNL     1     -10.054  -4.936   0.000  0.00  0.00    +0.000 Cl
ATOM     86  O   UNL     1      -9.224  -6.362   0.000  0.00  0.00    +0.000 OA
ATOM     87  C   UNL     1      -7.995  -4.213   0.000  0.00  0.00    +0.000 A 
ATOM     88  C   UNL     1      -7.579  -4.926   0.000  0.00  0.00    +0.000 A 
ATOM     89  C   UNL     1      -8.820  -4.217   0.000  0.00  0.00    +0.000 A 
ATOM     90  C   UNL     1      -7.989  -5.642   0.000  0.00  0.00    +0.000 A 
ATOM     91  C   UNL     1      -9.229  -4.933   0.000  0.00  0.00    +0.000 A 
ATOM     92  C   UNL     1      -6.754  -4.923   0.000  0.00  0.00    +0.000 C 
ATOM     93  C   UNL     1      -8.814  -5.646   0.000  0.00  0.00    +0.000 A 
BRANCH  89  94
ATOM     94  O   UNL     1      -9.235  -3.504   0.000  0.00  0.00    +0.000 OA
ATOM     95  C   UNL     1     -10.060  -3.507   0.000  0.00  0.00    +0.000 C 
ENDBRANCH  89  94
ENDBRANCH  83  87
ENDBRANCH  81  83
ENDBRANCH  78  81
ENDBRANCH  72  75
ENDBRANCH  68  72
ENDBRANCH  53  64
ENDBRANCH   3  53
TORSDOF 20
