REMARK  Name = 
REMARK  10 active torsions:
REMARK  status: ('A' for Active; 'I' for Inactive)
REMARK    1  A    between atoms: C_4  and  O_32
REMARK    2  A    between atoms: C_5  and  O_33
REMARK    3  A    between atoms: C_7  and  O_35
REMARK    4  A    between atoms: C_10  and  O_35
REMARK    5  A    between atoms: C_14  and  N_31
REMARK    6  A    between atoms: C_19  and  C_20
REMARK    7  A    between atoms: C_22  and  C_26
REMARK    8  A    between atoms: C_26  and  C_27
REMARK    9  A    between atoms: O_33  and  C_47
REMARK   10  A    between atoms: C_43  and  C_47
REMARK                            x       y       z     vdW  Elec       q    Type
REMARK                         _______ _______ _______ _____ _____    ______ ____
ROOT
ATOM      1 CL   UNL     1      -0.366   1.773   0.000  0.00  0.00    +0.000 Cl
ATOM      2  C   UNL     1      -1.080   0.535   0.000  0.00  0.00    +0.000 A 
ATOM      3  C   UNL     1      -0.366   0.948   0.000  0.00  0.00    +0.000 A 
ATOM      4  C   UNL     1       0.349   0.535   0.000  0.00  0.00    +0.000 A 
ATOM      5  C   UNL     1       1.778   0.535   0.000  0.00  0.00    +0.000 A 
ATOM      6  C   UNL     1       1.778  -0.290   0.000  0.00  0.00    +0.000 A 
ATOM      7  C   UNL     1       1.063  -0.702   0.000  0.00  0.00    +0.000 A 
ATOM      8  C   UNL     1       0.349  -0.290   0.000  0.00  0.00    +0.000 A 
ATOM      9  C   UNL     1      -0.366  -0.702   0.000  0.00  0.00    +0.000 A 
ATOM     10  C   UNL     1      -1.080  -0.290   0.000  0.00  0.00    +0.000 A 
ATOM     11  O   UNL     1       1.063  -1.527   0.000  0.00  0.00    +0.000 OA
ATOM     12  O   UNL     1       1.063   0.948   0.000  0.00  0.00    +0.000 OA
ATOM     13  O   UNL     1       2.492   0.948   0.000  0.00  0.00    +0.000 OA
ENDROOT
BRANCH   6  15
ATOM     14  C   UNL     1       3.207  -0.290   0.000  0.00  0.00    +0.000 C 
ATOM     15  N   UNL     1       2.492  -0.702   0.000  0.00  0.00    +0.000 NA
ATOM     16  O   UNL     1       3.207   0.535   0.000  0.00  0.00    +0.000 OA
BRANCH  14  17
ATOM     17  C   UNL     1       3.921  -0.702   0.000  0.00  0.00    +0.000 A 
ATOM     18  C   UNL     1       4.635  -0.290   0.000  0.00  0.00    +0.000 A 
ATOM     19  C   UNL     1       5.350  -0.702   0.000  0.00  0.00    +0.000 A 
ATOM     20  C   UNL     1       5.350  -1.527   0.000  0.00  0.00    +0.000 A 
ATOM     21  C   UNL     1       4.635  -1.940   0.000  0.00  0.00    +0.000 A 
ATOM     22  C   UNL     1       3.921  -1.527   0.000  0.00  0.00    +0.000 A 
ATOM     23  O   UNL     1       6.064  -1.940   0.000  0.00  0.00    +0.000 OA
BRANCH  19  24
ATOM     24  C   UNL     1       6.064  -0.290   0.000  0.00  0.00    +0.000 C 
BRANCH  24  25
ATOM     25  C   UNL     1       6.779  -0.702   0.000  0.00  0.00    +0.000 C 
ATOM     26  C   UNL     1       7.493  -0.290   0.000  0.00  0.00    +0.000 C 
ATOM     27  C   UNL     1       8.208  -0.702   0.000  0.00  0.00    +0.000 C 
ATOM     28  C   UNL     1       7.493   0.535   0.000  0.00  0.00    +0.000 C 
ENDBRANCH  24  25
ENDBRANCH  19  24
ENDBRANCH  14  17
ENDBRANCH   6  15
BRANCH   2  29
ATOM     29  O   UNL     1      -1.795   0.948   0.000  0.00  0.00    +0.000 OA
BRANCH  29  35
ATOM     30  C   UNL     1      -3.754  -1.334   0.000  0.00  0.00    +0.000 C 
ATOM     31  C   UNL     1      -2.693  -1.334   0.000  0.00  0.00    +0.000 C 
ATOM     32  C   UNL     1      -3.938  -0.290   0.000  0.00  0.00    +0.000 C 
ATOM     33  C   UNL     1      -3.938   0.535   0.000  0.00  0.00    +0.000 C 
ATOM     34  C   UNL     1      -3.224   0.948   0.000  0.00  0.00    +0.000 C 
ATOM     35  C   UNL     1      -2.509   0.535   0.000  0.00  0.00    +0.000 C 
ATOM     36  C   UNL     1      -3.224  -0.702   0.000  0.00  0.00    +0.000 C 
ATOM     37  O   UNL     1      -2.509  -0.290   0.000  0.00  0.00    +0.000 OA
ATOM     38  O   UNL     1      -3.224   1.773   0.000  0.00  0.00    +0.000 OA
BRANCH  32  40
ATOM     39  C   UNL     1      -4.653  -1.527   0.000  0.00  0.00    +0.000 C 
ATOM     40  O   UNL     1      -4.653  -0.702   0.000  0.00  0.00    +0.000 OA
ENDBRANCH  32  40
BRANCH  33  41
ATOM     41  O   UNL     1      -4.653   0.948   0.000  0.00  0.00    +0.000 OA
BRANCH  41  42
ATOM     42  C   UNL     1      -5.367   0.535   0.000  0.00  0.00    +0.000 C 
ATOM     43  O   UNL     1      -5.367  -0.290   0.000  0.00  0.00    +0.000 OA
BRANCH  42  46
ATOM     44  C   UNL     1      -6.975   1.940   0.000  0.00  0.00    +0.000 A 
ATOM     45  C   UNL     1      -6.168   1.768   0.000  0.00  0.00    +0.000 A 
ATOM     46  C   UNL     1      -6.082   0.948   0.000  0.00  0.00    +0.000 A 
ATOM     47  N   UNL     1      -6.835   0.612   0.000  0.00  0.00    +0.000 NA
ATOM     48  C   UNL     1      -7.387   1.225   0.000  0.00  0.00    +0.000 A 
ATOM     49  C   UNL     1      -8.208   1.139   0.000  0.00  0.00    +0.000 C 
ENDBRANCH  42  46
ENDBRANCH  41  42
ENDBRANCH  33  41
ENDBRANCH  29  35
ENDBRANCH   2  29
TORSDOF 10
