REMARK  Name = 
REMARK  8 active torsions:
REMARK  status: ('A' for Active; 'I' for Inactive)
REMARK    1  A    between atoms: C_1  and  O_10
REMARK    2  A    between atoms: C_1  and  C_34
REMARK    3  A    between atoms: C_5  and  C_7
REMARK    4  A    between atoms: O_10  and  C_11
REMARK    5  A    between atoms: C_16  and  C_18
REMARK    6  A    between atoms: C_18  and  O_19
REMARK    7  A    between atoms: O_19  and  C_20
REMARK    8  A    between atoms: C_25  and  C_27
REMARK                            x       y       z     vdW  Elec       q    Type
REMARK                         _______ _______ _______ _____ _____    ______ ____
ROOT
ATOM      1  C   UNL     1       1.022  -0.692   0.000  0.00  0.00    +0.000 C 
ATOM      2  C   UNL     1       0.608  -1.406   0.000  0.00  0.00    +0.000 C 
ATOM      3  C   UNL     1      -0.220  -1.413   0.000  0.00  0.00    +0.000 C 
ATOM      4  C   UNL     1      -0.638  -0.703   0.000  0.00  0.00    +0.000 C 
ATOM      5  O   UNL     1      -1.466  -0.711   0.000  0.00  0.00    +0.000 OA
ATOM      6  C   UNL     1      -0.224   0.020   0.000  0.00  0.00    +0.000 C 
ATOM      7  O   UNL     1       0.604   0.028   0.000  0.00  0.00    +0.000 OA
ATOM      8  O   UNL     1      -0.634  -2.132   0.000  0.00  0.00    +0.000 OA
ATOM      9  O   UNL     1       1.021  -2.126   0.000  0.00  0.00    +0.000 OA
ENDROOT
BRANCH   1  10
ATOM     10  O   UNL     1       1.841  -0.685   0.000  0.00  0.00    +0.000 OA
BRANCH  10  11
ATOM     11  C   UNL     1       2.643  -0.464   0.000  0.00  0.00    +0.000 C 
ATOM     12  C   UNL     1       2.915  -1.242   0.000  0.00  0.00    +0.000 C 
ATOM     13  C   UNL     1       3.747  -1.234   0.000  0.00  0.00    +0.000 C 
ATOM     14  O   UNL     1       4.241  -1.902   0.000  0.00  0.00    +0.000 OA
ATOM     15  C   UNL     1       3.991  -0.466   0.000  0.00  0.00    +0.000 C 
ATOM     16  O   UNL     1       3.305   0.024   0.000  0.00  0.00    +0.000 OA
ATOM     17  O   UNL     1       2.448  -1.918   0.000  0.00  0.00    +0.000 OA
BRANCH  11  18
ATOM     18  C   UNL     1       2.635   0.359   0.000  0.00  0.00    +0.000 C 
ATOM     19  O   UNL     1       1.912   0.763   0.000  0.00  0.00    +0.000 OA
ENDBRANCH  11  18
BRANCH  15  20
ATOM     20  C   UNL     1       4.697  -0.043   0.000  0.00  0.00    +0.000 C 
ATOM     21  O   UNL     1       5.410  -0.448   0.000  0.00  0.00    +0.000 OA
ENDBRANCH  15  20
ENDBRANCH  10  11
ENDBRANCH   1  10
BRANCH   6  22
ATOM     22  C   UNL     1      -0.642   0.740   0.000  0.00  0.00    +0.000 C 
BRANCH  22  23
ATOM     23  O   UNL     1      -2.113   0.726   0.000  0.00  0.00    +0.000 OA
BRANCH  23  24
ATOM     24  C   UNL     1      -2.941   0.718   0.000  0.00  0.00    +0.000 C 
ATOM     25  C   UNL     1      -3.350   0.000   0.000  0.00  0.00    +0.000 C 
ATOM     26  C   UNL     1      -4.178  -0.007   0.000  0.00  0.00    +0.000 C 
ATOM     27  C   UNL     1      -4.596   0.703   0.000  0.00  0.00    +0.000 C 
ATOM     28  O   UNL     1      -5.410   0.695   0.000  0.00  0.00    +0.000 OA
ATOM     29  C   UNL     1      -4.192   1.421   0.000  0.00  0.00    +0.000 C 
ATOM     30  O   UNL     1      -3.364   1.429   0.000  0.00  0.00    +0.000 OA
ATOM     31  O   UNL     1      -4.583  -0.730   0.000  0.00  0.00    +0.000 OA
ATOM     32  O   UNL     1      -2.927  -0.715   0.000  0.00  0.00    +0.000 OA
BRANCH  29  33
ATOM     33  C   UNL     1      -4.610   2.132   0.000  0.00  0.00    +0.000 C 
ATOM     34  O   UNL     1      -5.408   1.978   0.000  0.00  0.00    +0.000 OA
ENDBRANCH  29  33
ENDBRANCH  23  24
ENDBRANCH  22  23
ENDBRANCH   6  22
TORSDOF 8
