REMARK  Name = 
REMARK  4 active torsions:
REMARK  status: ('A' for Active; 'I' for Inactive)
REMARK    1  A    between atoms: N_1  and  C_2
REMARK    2  A    between atoms: N_1  and  C_15
REMARK    3  A    between atoms: C_5  and  N_6
REMARK    4  A    between atoms: N_6  and  C_7
REMARK                            x       y       z     vdW  Elec       q    Type
REMARK                         _______ _______ _______ _____ _____    ______ ____
ROOT
ATOM      1  C   UNL     1       0.000   0.825   0.000  0.00  0.00    +0.000 A 
ATOM      2  C   UNL     1       0.714   0.412   0.000  0.00  0.00    +0.000 A 
ATOM      3  C   UNL     1       0.714  -0.412   0.000  0.00  0.00    +0.000 A 
ATOM      4  C   UNL     1       0.000  -0.825   0.000  0.00  0.00    +0.000 A 
ATOM      5  C   UNL     1      -0.714  -0.412   0.000  0.00  0.00    +0.000 A 
ATOM      6  C   UNL     1      -0.714   0.412   0.000  0.00  0.00    +0.000 A 
ENDROOT
BRANCH   1   7
ATOM      7  N   UNL     1       0.000   1.650   0.000  0.00  0.00    +0.000 NA
BRANCH   7   8
ATOM      8  C   UNL     1       0.714   2.062   0.000  0.00  0.00    +0.000 C 
ATOM      9  C   UNL     1       0.714   2.888   0.000  0.00  0.00    +0.000 C 
ATOM     10  C   UNL     1       1.429   3.300   0.000  0.00  0.00    +0.000 C 
ATOM     11  C   UNL     1       2.143   2.888   0.000  0.00  0.00    +0.000 C 
ATOM     12  C   UNL     1       2.143   2.062   0.000  0.00  0.00    +0.000 C 
ATOM     13  C   UNL     1       1.429   1.650   0.000  0.00  0.00    +0.000 C 
ENDBRANCH   7   8
ENDBRANCH   1   7
BRANCH   4  14
ATOM     14  N   UNL     1       0.000  -1.650   0.000  0.00  0.00    +0.000 NA
BRANCH  14  15
ATOM     15  C   UNL     1      -0.714  -2.062   0.000  0.00  0.00    +0.000 A 
ATOM     16  C   UNL     1      -0.714  -2.888   0.000  0.00  0.00    +0.000 A 
ATOM     17  C   UNL     1      -1.429  -3.300   0.000  0.00  0.00    +0.000 A 
ATOM     18  C   UNL     1      -2.143  -2.888   0.000  0.00  0.00    +0.000 A 
ATOM     19  C   UNL     1      -2.143  -2.062   0.000  0.00  0.00    +0.000 A 
ATOM     20  C   UNL     1      -1.429  -1.650   0.000  0.00  0.00    +0.000 A 
ENDBRANCH  14  15
ENDBRANCH   4  14
TORSDOF 4
