REMARK  Name = 
REMARK  8 active torsions:
REMARK  status: ('A' for Active; 'I' for Inactive)
REMARK    1  A    between atoms: S_1  and  N_16
REMARK    2  A    between atoms: P_2  and  O_6
REMARK    3  A    between atoms: O_6  and  C_31
REMARK    4  A    between atoms: N_15  and  C_19
REMARK    5  A    between atoms: C_19  and  C_20
REMARK    6  A    between atoms: C_20  and  C_21
REMARK    7  A    between atoms: C_21  and  C_25
REMARK    8  A    between atoms: C_25  and  C_31
REMARK                            x       y       z     vdW  Elec       q    Type
REMARK                         _______ _______ _______ _____ _____    ______ ____
ROOT
ATOM      1  O   UNL     1       1.470   3.535   0.000  0.00  0.00    +0.000 OA
ATOM      2  O   UNL     1       2.940   1.011   0.000  0.00  0.00    +0.000 OA
ATOM      3  N   UNL     1       0.028   1.031   0.000  0.00  0.00    +0.000 N 
ATOM      4  N   UNL     1       0.028   2.681   0.000  0.00  0.00    +0.000 N 
ATOM      5  N   UNL     1       1.480   1.003   0.000  0.00  0.00    +0.000 NA
ATOM      6  N   UNL     1       2.228   2.286   0.000  0.00  0.00    +0.000 N 
ATOM      7  C   UNL     1      -0.686   1.444   0.000  0.00  0.00    +0.000 A 
ATOM      8  C   UNL     1      -0.686   2.269   0.000  0.00  0.00    +0.000 A 
ATOM      9  C   UNL     1       0.743   1.444   0.000  0.00  0.00    +0.000 A 
ATOM     10  C   UNL     1       0.743   2.269   0.000  0.00  0.00    +0.000 A 
ATOM     11  C   UNL     1      -1.424   1.003   0.000  0.00  0.00    +0.000 A 
ATOM     12  C   UNL     1      -1.424   2.710   0.000  0.00  0.00    +0.000 A 
ATOM     13  C   UNL     1      -2.171   1.427   0.000  0.00  0.00    +0.000 A 
ATOM     14  C   UNL     1      -2.171   2.286   0.000  0.00  0.00    +0.000 A 
ATOM     15  C   UNL     1       1.480   2.710   0.000  0.00  0.00    +0.000 A 
ATOM     16  C   UNL     1      -2.884   1.011   0.000  0.00  0.00    +0.000 C 
ATOM     17  C   UNL     1      -2.884   2.701   0.000  0.00  0.00    +0.000 C 
ATOM     18  C   UNL     1       2.228   1.427   0.000  0.00  0.00    +0.000 A 
ATOM     19  H   UNL     1       2.669   2.543   0.000  0.00  0.00    +0.000 HD
ENDROOT
BRANCH   4  20
ATOM     20  S   UNL     1       0.028   3.506   0.000  0.00  0.00    +0.000 S 
ATOM     21  O   UNL     1       0.028   4.331   0.000  0.00  0.00    +0.000 OA
ATOM     22  O   UNL     1       0.853   3.506   0.000  0.00  0.00    +0.000 OA
ATOM     23  O   UNL     1      -0.797   3.506   0.000  0.00  0.00    +0.000 OA
ENDBRANCH   4  20
BRANCH   3  24
ATOM     24  C   UNL     1       0.028   0.206   0.000  0.00  0.00    +0.000 C 
BRANCH  24  26
ATOM     25  O   UNL     1      -1.401   0.206   0.000  0.00  0.00    +0.000 OA
ATOM     26  C   UNL     1      -0.686  -0.206   0.000  0.00  0.00    +0.000 C 
BRANCH  26  28
ATOM     27  O   UNL     1       0.028  -1.444   0.000  0.00  0.00    +0.000 OA
ATOM     28  C   UNL     1      -0.686  -1.031   0.000  0.00  0.00    +0.000 C 
BRANCH  28  30
ATOM     29  O   UNL     1      -2.115  -1.031   0.000  0.00  0.00    +0.000 OA
ATOM     30  C   UNL     1      -1.401  -1.444   0.000  0.00  0.00    +0.000 C 
BRANCH  30  31
ATOM     31  C   UNL     1      -1.401  -2.269   0.000  0.00  0.00    +0.000 C 
BRANCH  31  32
ATOM     32  O   UNL     1      -2.115  -2.681   0.000  0.00  0.00    +0.000 OA
BRANCH  32  33
ATOM     33  P   UNL     1      -2.115  -3.506   0.000  0.00  0.00    +0.000 P 
ATOM     34  O   UNL     1      -2.115  -4.331   0.000  0.00  0.00    +0.000 OA
ATOM     35  O   UNL     1      -2.940  -3.506   0.000  0.00  0.00    +0.000 OA
ATOM     36  O   UNL     1      -1.290  -3.506   0.000  0.00  0.00    +0.000 OA
ENDBRANCH  32  33
ENDBRANCH  31  32
ENDBRANCH  30  31
ENDBRANCH  28  30
ENDBRANCH  26  28
ENDBRANCH  24  26
ENDBRANCH   3  24
TORSDOF 8
