REMARK  Name = 
REMARK  5 active torsions:
REMARK  status: ('A' for Active; 'I' for Inactive)
REMARK    1  A    between atoms: C_2  and  C_4
REMARK    2  A    between atoms: C_2  and  N_6
REMARK    3  A    between atoms: N_6  and  C_8
REMARK    4  A    between atoms: C_8  and  C_10
REMARK    5  A    between atoms: C_10  and  C_11
REMARK                            x       y       z     vdW  Elec       q    Type
REMARK                         _______ _______ _______ _____ _____    ______ ____
ROOT
ATOM      1  C   UNL     1       4.287  -4.125   0.000  0.00  0.00    +0.000 C 
ATOM      2  C   UNL     1       4.287  -4.950   0.000  0.00  0.00    +0.000 C 
ENDROOT
BRANCH   1   3
ATOM      3  N   UNL     1       3.572  -3.712   0.000  0.00  0.00    +0.000 NA
ATOM      4  C   UNL     1       3.572  -2.888   0.000  0.00  0.00    +0.000 C 
BRANCH   3   6
ATOM      5  H   UNL     1       2.488  -4.862   0.000  0.00  0.00    +0.000 HD
ATOM      6  C   UNL     1       2.858  -4.125   0.000  0.00  0.00    +0.000 C 
ATOM      7  H   UNL     1       3.228  -4.862   0.000  0.00  0.00    +0.000 HD
BRANCH   6   8
ATOM      8  C   UNL     1       2.143  -3.712   0.000  0.00  0.00    +0.000 C 
ATOM      9  C   UNL     1       1.429  -3.300   0.000  0.00  0.00    +0.000 C 
ENDBRANCH   6   8
ENDBRANCH   3   6
ENDBRANCH   1   3
BRANCH   1  10
ATOM     10  C   UNL     1       5.001  -3.712   0.000  0.00  0.00    +0.000 C 
BRANCH  10  11
ATOM     11  C   UNL     1       5.716  -4.125   0.000  0.00  0.00    +0.000 A 
ATOM     12  C   UNL     1       6.430  -3.712   0.000  0.00  0.00    +0.000 A 
ATOM     13  C   UNL     1       7.145  -4.125   0.000  0.00  0.00    +0.000 A 
ATOM     14  C   UNL     1       7.145  -4.950   0.000  0.00  0.00    +0.000 A 
ATOM     15  C   UNL     1       6.430  -5.362   0.000  0.00  0.00    +0.000 A 
ATOM     16  C   UNL     1       5.716  -4.950   0.000  0.00  0.00    +0.000 A 
ENDBRANCH  10  11
ENDBRANCH   1  10
TORSDOF 5
