REMARK  Name = 
REMARK  5 active torsions:
REMARK  status: ('A' for Active; 'I' for Inactive)
REMARK    1  A    between atoms: C_8  and  N_10
REMARK    2  A    between atoms: N_10  and  C_11
REMARK    3  A    between atoms: C_11  and  C_12
REMARK    4  A    between atoms: C_15  and  C_19
REMARK    5  A    between atoms: C_23  and  C_25
REMARK                            x       y       z     vdW  Elec       q    Type
REMARK                         _______ _______ _______ _____ _____    ______ ____
ROOT
ATOM      1  C   UNL     1      -1.409   0.808   0.000  0.00  0.00    +0.000 A 
ATOM      2  C   UNL     1      -1.821   0.094   0.000  0.00  0.00    +0.000 A 
ATOM      3  C   UNL     1      -2.646   0.094   0.000  0.00  0.00    +0.000 A 
ATOM      4  C   UNL     1      -3.059   0.808   0.000  0.00  0.00    +0.000 A 
ATOM      5  C   UNL     1      -2.646   1.523   0.000  0.00  0.00    +0.000 A 
ATOM      6  C   UNL     1      -1.821   1.523   0.000  0.00  0.00    +0.000 A 
ATOM      7  F   UNL     1      -1.409   2.237   0.000  0.00  0.00    +0.000 F 
ATOM      8  F   UNL     1      -1.409  -0.621   0.000  0.00  0.00    +0.000 F 
ENDROOT
BRANCH   4   9
ATOM      9  C   UNL     1      -3.884   0.808   0.000  0.00  0.00    +0.000 A 
ATOM     10  C   UNL     1      -4.296   0.094   0.000  0.00  0.00    +0.000 A 
ATOM     11  C   UNL     1      -5.121   0.094   0.000  0.00  0.00    +0.000 A 
ATOM     12  C   UNL     1      -5.534   0.808   0.000  0.00  0.00    +0.000 A 
ATOM     13  C   UNL     1      -5.121   1.523   0.000  0.00  0.00    +0.000 A 
ATOM     14  C   UNL     1      -4.296   1.523   0.000  0.00  0.00    +0.000 A 
BRANCH  13  15
ATOM     15  C   UNL     1      -5.534   2.237   0.000  0.00  0.00    +0.000 A 
ATOM     16  N   UNL     1      -6.354   2.324   0.000  0.00  0.00    +0.000 NA
ATOM     17  C   UNL     1      -6.526   3.131   0.000  0.00  0.00    +0.000 A 
ATOM     18  N   UNL     1      -5.811   3.543   0.000  0.00  0.00    +0.000 NA
ATOM     19  N   UNL     1      -5.198   2.991   0.000  0.00  0.00    +0.000 NA
ENDBRANCH  13  15
ENDBRANCH   4   9
BRANCH   1  20
ATOM     20  C   UNL     1      -0.584   0.808   0.000  0.00  0.00    +0.000 C 
BRANCH  20  21
ATOM     21  N   UNL     1      -0.171   1.523   0.000  0.00  0.00    +0.000 NA
BRANCH  21  29
ATOM     22  C   UNL     1       3.352   1.935   0.000  0.00  0.00    +0.000 A 
ATOM     23  C   UNL     1       3.352   1.110   0.000  0.00  0.00    +0.000 A 
ATOM     24  C   UNL     1       2.638   0.698   0.000  0.00  0.00    +0.000 A 
ATOM     25  C   UNL     1       1.923   1.110   0.000  0.00  0.00    +0.000 A 
ATOM     26  C   UNL     1       1.923   1.935   0.000  0.00  0.00    +0.000 A 
ATOM     27  C   UNL     1       2.638   2.348   0.000  0.00  0.00    +0.000 A 
ATOM     28  C   UNL     1       1.139   2.190   0.000  0.00  0.00    +0.000 C 
ATOM     29  C   UNL     1       0.654   1.523   0.000  0.00  0.00    +0.000 C 
ATOM     30  C   UNL     1       1.139   0.856   0.000  0.00  0.00    +0.000 C 
ENDBRANCH  21  29
ENDBRANCH  20  21
ENDBRANCH   1  20
TORSDOF 5
