REMARK  Name = 
REMARK  13 active torsions:
REMARK  status: ('A' for Active; 'I' for Inactive)
REMARK    1  A    between atoms: C_3  and  C_4
REMARK    2  A    between atoms: C_3  and  C_5
REMARK    3  A    between atoms: C_4  and  C_23
REMARK    4  A    between atoms: C_5  and  C_31
REMARK    5  A    between atoms: C_16  and  C_18
REMARK    6  A    between atoms: C_17  and  C_19
REMARK    7  A    between atoms: C_18  and  N_38
REMARK    8  A    between atoms: C_19  and  N_38
REMARK    9  A    between atoms: C_22  and  C_30
REMARK   10  A    between atoms: C_22  and  O_44
REMARK   11  A    between atoms: C_25  and  N_38
REMARK   12  A    between atoms: C_30  and  C_35
REMARK   13  A    between atoms: C_31  and  O_44
REMARK                            x       y       z     vdW  Elec       q    Type
REMARK                         _______ _______ _______ _____ _____    ______ ____
ROOT
ATOM      1  C   UNL     1       0.816   5.502   0.000  0.00  0.00    +0.000 C 
ATOM      2  O   UNL     1       0.816   4.677   0.000  0.00  0.00    +0.000 OA
ENDROOT
BRANCH   1  21
ATOM      3  C   UNL     1       4.458   6.582   0.000  0.00  0.00    +0.000 C 
ATOM      4  C   UNL     1       2.229   5.349   0.000  0.00  0.00    +0.000 C 
ATOM      5  C   UNL     1       3.744   8.645   0.000  0.00  0.00    +0.000 C 
ATOM      6  C   UNL     1       3.029   8.232   0.000  0.00  0.00    +0.000 C 
ATOM      7  C   UNL     1       5.887   7.407   0.000  0.00  0.00    +0.000 C 
ATOM      8  C   UNL     1       1.530   7.249   0.000  0.00  0.00    +0.000 C 
ATOM      9  C   UNL     1       5.173   6.995   0.000  0.00  0.00    +0.000 C 
ATOM     10  C   UNL     1       1.045   6.582   0.000  0.00  0.00    +0.000 C 
ATOM     11  C   UNL     1       5.173   8.645   0.000  0.00  0.00    +0.000 C 
ATOM     12  C   UNL     1       3.029   5.757   0.000  0.00  0.00    +0.000 C 
ATOM     13  C   UNL     1       4.458   8.232   0.000  0.00  0.00    +0.000 C 
ATOM     14  C   UNL     1       5.887   8.232   0.000  0.00  0.00    +0.000 C 
ATOM     15  C   UNL     1       3.029   7.407   0.000  0.00  0.00    +0.000 C 
ATOM     16  C   UNL     1       2.315   6.995   0.000  0.00  0.00    +0.000 C 
ATOM     17  C   UNL     1       3.744   6.170   0.000  0.00  0.00    +0.000 C 
ATOM     18  C   UNL     1       3.744   6.995   0.000  0.00  0.00    +0.000 C 
ATOM     19  C   UNL     1       4.458   7.407   0.000  0.00  0.00    +0.000 C 
ATOM     20  C   UNL     1       2.315   6.170   0.000  0.00  0.00    +0.000 C 
ATOM     21  C   UNL     1       1.530   5.915   0.000  0.00  0.00    +0.000 C 
ATOM     22  O   UNL     1       6.602   8.645   0.000  0.00  0.00    +0.000 OA
ATOM     23  O   UNL     1       4.458   5.757   0.000  0.00  0.00    +0.000 OA
ATOM     24  O   UNL     1       1.866   5.161   0.000  0.00  0.00    +0.000 OA
ENDBRANCH   1  21
BRANCH   1  25
ATOM     25  C   UNL     1       0.101   5.915   0.000  0.00  0.00    +0.000 C 
BRANCH  25  26
ATOM     26  O   UNL     1      -0.613   5.502   0.000  0.00  0.00    +0.000 OA
BRANCH  26  27
ATOM     27  C   UNL     1      -1.328   5.915   0.000  0.00  0.00    +0.000 C 
ATOM     28  O   UNL     1      -1.328   6.739   0.000  0.00  0.00    +0.000 OA
BRANCH  27  29
ATOM     29  C   UNL     1      -2.042   5.502   0.000  0.00  0.00    +0.000 C 
BRANCH  29  30
ATOM     30  C   UNL     1      -2.756   5.915   0.000  0.00  0.00    +0.000 C 
BRANCH  30  31
ATOM     31  C   UNL     1      -3.471   5.502   0.000  0.00  0.00    +0.000 C 
BRANCH  31  36
ATOM     32  C   UNL     1      -4.185   6.739   0.000  0.00  0.00    +0.000 A 
ATOM     33  C   UNL     1      -4.900   5.502   0.000  0.00  0.00    +0.000 A 
ATOM     34  C   UNL     1      -4.900   7.152   0.000  0.00  0.00    +0.000 A 
ATOM     35  C   UNL     1      -5.614   5.915   0.000  0.00  0.00    +0.000 A 
ATOM     36  C   UNL     1      -4.185   5.915   0.000  0.00  0.00    +0.000 A 
ATOM     37  C   UNL     1      -5.614   6.739   0.000  0.00  0.00    +0.000 A 
BRANCH  37  38
ATOM     38  N   UNL     1      -6.329   7.152   0.000  0.00  0.00    +0.000 N 
BRANCH  38  39
ATOM     39  C   UNL     1      -7.043   6.739   0.000  0.00  0.00    +0.000 C 
BRANCH  39  40
ATOM     40  C   UNL     1      -7.758   7.152   0.000  0.00  0.00    +0.000 C 
ATOM     41 CL   UNL     1      -8.472   6.739   0.000  0.00  0.00    +0.000 Cl
ENDBRANCH  39  40
ENDBRANCH  38  39
BRANCH  38  42
ATOM     42  C   UNL     1      -6.329   7.977   0.000  0.00  0.00    +0.000 C 
BRANCH  42  43
ATOM     43  C   UNL     1      -7.043   8.389   0.000  0.00  0.00    +0.000 C 
ATOM     44 CL   UNL     1      -7.043   9.214   0.000  0.00  0.00    +0.000 Cl
ENDBRANCH  42  43
ENDBRANCH  38  42
ENDBRANCH  37  38
ENDBRANCH  31  36
ENDBRANCH  30  31
ENDBRANCH  29  30
ENDBRANCH  27  29
ENDBRANCH  26  27
ENDBRANCH  25  26
ENDBRANCH   1  25
TORSDOF 13
