REMARK  Name = 
REMARK  4 active torsions:
REMARK  status: ('A' for Active; 'I' for Inactive)
REMARK    1  A    between atoms: O_2  and  C_3
REMARK    2  A    between atoms: C_7  and  N_9
REMARK    3  A    between atoms: C_12  and  C_19
REMARK    4  A    between atoms: C_19  and  N_20
REMARK                            x       y       z     vdW  Elec       q    Type
REMARK                         _______ _______ _______ _____ _____    ______ ____
ROOT
ATOM      1  N   UNL     1       0.715  -1.238   0.000  0.00  0.00    +0.000 NA
ATOM      2  C   UNL     1       0.715  -0.412   0.000  0.00  0.00    +0.000 A 
ATOM      3  C   UNL     1       0.000   0.000   0.000  0.00  0.00    +0.000 A 
ATOM      4  C   UNL     1      -0.785  -0.255   0.000  0.00  0.00    +0.000 A 
ATOM      5  C   UNL     1      -1.270   0.412   0.000  0.00  0.00    +0.000 A 
ATOM      6  C   UNL     1      -0.785   1.080   0.000  0.00  0.00    +0.000 A 
ATOM      7  N   UNL     1       0.000   0.825   0.000  0.00  0.00    +0.000 N 
ATOM      8  N   UNL     1       0.715   1.238   0.000  0.00  0.00    +0.000 NA
ATOM      9  C   UNL     1       1.429   0.825   0.000  0.00  0.00    +0.000 A 
ATOM     10  N   UNL     1       1.429   0.000   0.000  0.00  0.00    +0.000 NA
ENDROOT
BRANCH   1  15
ATOM     11  C   UNL     1       2.858  -1.650   0.000  0.00  0.00    +0.000 A 
ATOM     12  C   UNL     1       2.858  -2.475   0.000  0.00  0.00    +0.000 A 
ATOM     13  C   UNL     1       2.143  -2.888   0.000  0.00  0.00    +0.000 A 
ATOM     14  C   UNL     1       1.429  -2.475   0.000  0.00  0.00    +0.000 A 
ATOM     15  C   UNL     1       1.429  -1.650   0.000  0.00  0.00    +0.000 A 
ATOM     16  C   UNL     1       2.143  -1.238   0.000  0.00  0.00    +0.000 A 
BRANCH  11  18
ATOM     17  C   UNL     1       4.287  -1.650   0.000  0.00  0.00    +0.000 C 
ATOM     18  O   UNL     1       3.572  -1.238   0.000  0.00  0.00    +0.000 OA
ENDBRANCH  11  18
ENDBRANCH   1  15
BRANCH   4  19
ATOM     19  C   UNL     1      -1.040  -1.040   0.000  0.00  0.00    +0.000 C 
BRANCH  19  20
ATOM     20  N   UNL     1      -1.847  -1.211   0.000  0.00  0.00    +0.000 NA
ATOM     21  C   UNL     1      -2.102  -1.996   0.000  0.00  0.00    +0.000 C 
ATOM     22  C   UNL     1      -2.908  -2.167   0.000  0.00  0.00    +0.000 C 
ATOM     23  C   UNL     1      -3.461  -1.554   0.000  0.00  0.00    +0.000 C 
ATOM     24  C   UNL     1      -3.205  -0.769   0.000  0.00  0.00    +0.000 C 
ATOM     25  C   UNL     1      -2.399  -0.598   0.000  0.00  0.00    +0.000 C 
ATOM     26  O   UNL     1      -3.758  -0.156   0.000  0.00  0.00    +0.000 OA
ATOM     27  N   UNL     1      -4.267  -1.726   0.000  0.00  0.00    +0.000 NA
ENDBRANCH  19  20
ENDBRANCH   4  19
TORSDOF 4
