REMARK  Name = 
REMARK  1 active torsions:
REMARK  status: ('A' for Active; 'I' for Inactive)
REMARK    1  A    between atoms: C_3  and  C_10
REMARK                            x       y       z     vdW  Elec       q    Type
REMARK                         _______ _______ _______ _____ _____    ______ ____
ROOT
ATOM      1  N   UNL     1       1.533  -0.314   0.000  0.00  0.00    +0.000 N 
ATOM      2  C   UNL     1       0.100   0.022   0.000  0.00  0.00    +0.000 A 
ATOM      3  C   UNL     1       0.743  -0.490   0.000  0.00  0.00    +0.000 C 
ATOM      4  N   UNL     1       0.743   1.367   0.000  0.00  0.00    +0.000 NA
ATOM      5  C   UNL     1       1.898   0.431   0.000  0.00  0.00    +0.000 C 
ATOM      6  C   UNL     1       0.100   0.855   0.000  0.00  0.00    +0.000 A 
ATOM      7  C   UNL     1       1.533   1.192   0.000  0.00  0.00    +0.000 C 
ATOM      8  O   UNL     1       2.049  -0.958   0.000  0.00  0.00    +0.000 OA
ATOM      9  C   UNL     1      -0.617  -0.387   0.000  0.00  0.00    +0.000 A 
ATOM     10  C   UNL     1      -0.617   1.265   0.000  0.00  0.00    +0.000 A 
ATOM     11  N   UNL     1       2.049   1.864   0.000  0.00  0.00    +0.000 NA
ATOM     12  C   UNL     1      -1.333   0.007   0.000  0.00  0.00    +0.000 A 
ATOM     13  C   UNL     1      -1.333   0.870   0.000  0.00  0.00    +0.000 A 
ATOM     14 CL   UNL     1      -2.049  -0.431   0.000  0.00  0.00    +0.000 Cl
ATOM     15  C   UNL     1       1.728   2.624   0.000  0.00  0.00    +0.000 C 
ENDROOT
BRANCH   3  16
ATOM     16  C   UNL     1       0.309  -1.192   0.000  0.00  0.00    +0.000 A 
ATOM     17  C   UNL     1      -0.524  -1.177   0.000  0.00  0.00    +0.000 A 
ATOM     18  C   UNL     1       0.704  -1.908   0.000  0.00  0.00    +0.000 A 
ATOM     19  C   UNL     1      -0.953  -1.893   0.000  0.00  0.00    +0.000 A 
ATOM     20  C   UNL     1       0.275  -2.624   0.000  0.00  0.00    +0.000 A 
ATOM     21  C   UNL     1      -0.543  -2.624   0.000  0.00  0.00    +0.000 A 
ENDBRANCH   3  16
TORSDOF 1
