REMARK  Name = 
REMARK  5 active torsions:
REMARK  status: ('A' for Active; 'I' for Inactive)
REMARK    1  A    between atoms: C_7  and  C_27
REMARK    2  A    between atoms: N_9  and  C_10
REMARK    3  A    between atoms: C_13  and  C_14
REMARK    4  A    between atoms: C_17  and  N_18
REMARK    5  A    between atoms: N_18  and  C_19
REMARK                            x       y       z     vdW  Elec       q    Type
REMARK                         _______ _______ _______ _____ _____    ______ ____
ROOT
ATOM      1  C   UNL     1      -0.398   0.071   0.000  0.00  0.00    +0.000 A 
ATOM      2  C   UNL     1       0.154  -0.542   0.000  0.00  0.00    +0.000 A 
ATOM      3  C   UNL     1      -0.101  -1.327   0.000  0.00  0.00    +0.000 A 
ATOM      4  C   UNL     1      -0.908  -1.498   0.000  0.00  0.00    +0.000 A 
ATOM      5  C   UNL     1      -1.460  -0.885   0.000  0.00  0.00    +0.000 A 
ATOM      6  C   UNL     1      -1.205  -0.101   0.000  0.00  0.00    +0.000 A 
ENDROOT
BRANCH   1  15
ATOM      7  C   UNL     1       2.352   0.335   0.000  0.00  0.00    +0.000 C 
ATOM      8  C   UNL     1       2.070   1.110   0.000  0.00  0.00    +0.000 C 
ATOM      9  C   UNL     1       2.882   1.254   0.000  0.00  0.00    +0.000 C 
ATOM     10  C   UNL     1       1.356   0.698   0.000  0.00  0.00    +0.000 C 
ATOM     11  C   UNL     1       0.641   1.110   0.000  0.00  0.00    +0.000 A 
ATOM     12  C   UNL     1       0.641   1.935   0.000  0.00  0.00    +0.000 A 
ATOM     13  C   UNL     1      -0.143   2.190   0.000  0.00  0.00    +0.000 A 
ATOM     14  N   UNL     1      -0.628   1.523   0.000  0.00  0.00    +0.000 NA
ATOM     15  N   UNL     1      -0.143   0.856   0.000  0.00  0.00    +0.000 N 
ATOM     16  C   UNL     1       1.356   2.348   0.000  0.00  0.00    +0.000 C 
ATOM     17  O   UNL     1       1.356   3.173   0.000  0.00  0.00    +0.000 OA
ATOM     18  C   UNL     1       2.070   1.935   0.000  0.00  0.00    +0.000 C 
BRANCH  13  19
ATOM     19  C   UNL     1      -0.398   2.975   0.000  0.00  0.00    +0.000 C 
ATOM     20  F   UNL     1      -0.653   3.760   0.000  0.00  0.00    +0.000 F 
ATOM     21  F   UNL     1      -1.183   2.720   0.000  0.00  0.00    +0.000 F 
ATOM     22  F   UNL     1       0.386   3.230   0.000  0.00  0.00    +0.000 F 
ENDBRANCH  13  19
ENDBRANCH   1  15
BRANCH   4  23
ATOM     23  C   UNL     1      -1.163  -2.283   0.000  0.00  0.00    +0.000 C 
ATOM     24  N   UNL     1      -1.970  -2.454   0.000  0.00  0.00    +0.000 NA
ATOM     25  O   UNL     1      -0.611  -2.896   0.000  0.00  0.00    +0.000 OA
ENDBRANCH   4  23
BRANCH   5  26
ATOM     26  N   UNL     1      -2.267  -1.057   0.000  0.00  0.00    +0.000 NA
BRANCH  26  27
ATOM     27  C   UNL     1      -2.819  -0.444   0.000  0.00  0.00    +0.000 C 
ATOM     28  C   UNL     1      -3.626  -0.615   0.000  0.00  0.00    +0.000 C 
ATOM     29  C   UNL     1      -4.178  -0.002   0.000  0.00  0.00    +0.000 C 
ATOM     30  C   UNL     1      -3.923   0.782   0.000  0.00  0.00    +0.000 C 
ATOM     31  O   UNL     1      -4.476   1.396   0.000  0.00  0.00    +0.000 OA
ATOM     32  C   UNL     1      -3.116   0.954   0.000  0.00  0.00    +0.000 C 
ATOM     33  C   UNL     1      -2.564   0.341   0.000  0.00  0.00    +0.000 C 
ENDBRANCH  26  27
ENDBRANCH   5  26
TORSDOF 5
