REMARK  Name = 
REMARK  5 active torsions:
REMARK  status: ('A' for Active; 'I' for Inactive)
REMARK    1  A    between atoms: C_14  and  C_17
REMARK    2  A    between atoms: C_14  and  C_20
REMARK    3  A    between atoms: C_17  and  N_21
REMARK    4  A    between atoms: C_18  and  C_20
REMARK    5  A    between atoms: C_19  and  C_20
REMARK                            x       y       z     vdW  Elec       q    Type
REMARK                         _______ _______ _______ _____ _____    ______ ____
ROOT
ATOM      1  C   UNL     1       2.033   5.554   0.000  0.00  0.00    +0.000 C 
ATOM      2  O   UNL     1       2.033   6.379   0.000  0.00  0.00    +0.000 OA
ENDROOT
BRANCH   1   8
ATOM      3  C   UNL     1      -0.442   5.554   0.000  0.00  0.00    +0.000 A 
ATOM      4  C   UNL     1      -0.030   4.840   0.000  0.00  0.00    +0.000 A 
ATOM      5  C   UNL     1      -0.030   6.268   0.000  0.00  0.00    +0.000 A 
ATOM      6  C   UNL     1       0.795   4.840   0.000  0.00  0.00    +0.000 A 
ATOM      7  C   UNL     1       0.795   6.268   0.000  0.00  0.00    +0.000 A 
ATOM      8  C   UNL     1       1.208   5.554   0.000  0.00  0.00    +0.000 A 
ENDBRANCH   1   8
BRANCH   1  14
ATOM      9  C   UNL     1       2.033   3.079   0.000  0.00  0.00    +0.000 A 
ATOM     10  C   UNL     1       2.747   3.491   0.000  0.00  0.00    +0.000 A 
ATOM     11  C   UNL     1       1.318   3.491   0.000  0.00  0.00    +0.000 A 
ATOM     12  C   UNL     1       2.747   4.316   0.000  0.00  0.00    +0.000 A 
ATOM     13  C   UNL     1       1.318   4.316   0.000  0.00  0.00    +0.000 A 
ATOM     14  C   UNL     1       2.033   4.729   0.000  0.00  0.00    +0.000 A 
ENDBRANCH   1  14
BRANCH   1  15
ATOM     15  C   UNL     1       2.858   5.554   0.000  0.00  0.00    +0.000 C 
BRANCH  15  16
ATOM     16  C   UNL     1       3.270   6.268   0.000  0.00  0.00    +0.000 C 
BRANCH  16  22
ATOM     17  C   UNL     1       5.745   6.268   0.000  0.00  0.00    +0.000 C 
ATOM     18  C   UNL     1       5.333   6.983   0.000  0.00  0.00    +0.000 C 
ATOM     19  C   UNL     1       5.333   5.554   0.000  0.00  0.00    +0.000 C 
ATOM     20  C   UNL     1       4.508   6.983   0.000  0.00  0.00    +0.000 C 
ATOM     21  C   UNL     1       4.508   5.554   0.000  0.00  0.00    +0.000 C 
ATOM     22  N   UNL     1       4.095   6.268   0.000  0.00  0.00    +0.000 NA
ENDBRANCH  16  22
ENDBRANCH  15  16
ENDBRANCH   1  15
TORSDOF 5
