REMARK  Name = 
REMARK  5 active torsions:
REMARK  status: ('A' for Active; 'I' for Inactive)
REMARK    1  A    between atoms: C_2  and  C_7
REMARK    2  A    between atoms: C_5  and  C_11
REMARK    3  A    between atoms: C_7  and  C_8
REMARK    4  A    between atoms: C_11  and  C_12
REMARK    5  A    between atoms: N_13  and  S_14
REMARK                            x       y       z     vdW  Elec       q    Type
REMARK                         _______ _______ _______ _____ _____    ______ ____
ROOT
ATOM      1  C   UNL     1      -1.537  -0.005   0.000  0.00  0.00    +0.000 A 
ATOM      2  C   UNL     1      -1.538  -0.832   0.000  0.00  0.00    +0.000 A 
ATOM      3  C   UNL     1      -0.823  -1.245   0.000  0.00  0.00    +0.000 A 
ATOM      4  C   UNL     1      -0.106  -0.832   0.000  0.00  0.00    +0.000 A 
ATOM      5  C   UNL     1      -0.109  -0.001   0.000  0.00  0.00    +0.000 A 
ATOM      6  C   UNL     1      -0.825   0.408   0.000  0.00  0.00    +0.000 A 
ENDROOT
BRANCH   5   7
ATOM      7  C   UNL     1       0.604   0.414   0.000  0.00  0.00    +0.000 C 
ATOM      8  C   UNL     1       0.600   1.239   0.000  0.00  0.00    +0.000 C 
BRANCH   7   9
ATOM      9  C   UNL     1       1.319   0.004   0.000  0.00  0.00    +0.000 C 
ATOM     10  N   UNL     1       2.032   0.419   0.000  0.00  0.00    +0.000 NA
ATOM     11  O   UNL     1       1.323  -0.821   0.000  0.00  0.00    +0.000 OA
BRANCH  10  12
ATOM     12  S   UNL     1       2.857   0.420   0.000  0.00  0.00    +0.000 S 
ATOM     13  C   UNL     1       3.682   0.420   0.000  0.00  0.00    +0.000 C 
ATOM     14  O   UNL     1       2.852   1.245   0.000  0.00  0.00    +0.000 OA
ATOM     15  O   UNL     1       2.852  -0.405   0.000  0.00  0.00    +0.000 OA
ENDBRANCH  10  12
ENDBRANCH   7   9
ENDBRANCH   5   7
BRANCH   2  16
ATOM     16  C   UNL     1      -2.252  -1.244   0.000  0.00  0.00    +0.000 C 
BRANCH  16  17
ATOM     17  C   UNL     1      -2.967  -0.831   0.000  0.00  0.00    +0.000 C 
ATOM     18  C   UNL     1      -3.682  -1.243   0.000  0.00  0.00    +0.000 C 
ATOM     19  C   UNL     1      -2.966  -0.006   0.000  0.00  0.00    +0.000 C 
ENDBRANCH  16  17
ENDBRANCH   2  16
TORSDOF 5
