REMARK  Name = 
REMARK  23 active torsions:
REMARK  status: ('A' for Active; 'I' for Inactive)
REMARK    1  A    between atoms: O_2  and  P_3
REMARK    2  A    between atoms: O_2  and  C_25
REMARK    3  A    between atoms: P_3  and  O_6
REMARK    4  A    between atoms: O_6  and  C_7
REMARK    5  A    between atoms: C_10  and  C_13
REMARK    6  A    between atoms: C_10  and  C_19
REMARK    7  A    between atoms: C_25  and  C_26
REMARK    8  A    between atoms: C_26  and  C_27
REMARK    9  A    between atoms: C_26  and  N_44
REMARK   10  A    between atoms: C_27  and  N_28
REMARK   11  A    between atoms: N_28  and  C_29
REMARK   12  A    between atoms: N_28  and  C_40
REMARK   13  A    between atoms: C_29  and  C_30
REMARK   14  A    between atoms: C_30  and  N_31
REMARK   15  A    between atoms: N_31  and  C_32
REMARK   16  A    between atoms: N_31  and  C_36
REMARK   17  A    between atoms: C_32  and  C_33
REMARK   18  A    between atoms: C_36  and  C_37
REMARK   19  A    between atoms: C_40  and  C_41
REMARK   20  A    between atoms: N_44  and  C_45
REMARK   21  A    between atoms: N_44  and  C_49
REMARK   22  A    between atoms: C_45  and  C_46
REMARK   23  A    between atoms: C_49  and  C_50
REMARK                            x       y       z     vdW  Elec       q    Type
REMARK                         _______ _______ _______ _____ _____    ______ ____
ROOT
ATOM      1 GD   UNL     1       1.308  -3.472   0.000  0.00  0.00    +0.000 Gd
ENDROOT
TORSDOF 0
REMARK  Name = 
REMARK  23 active torsions:
REMARK  status: ('A' for Active; 'I' for Inactive)
REMARK    1  A    between atoms: O_2  and  P_3
REMARK    2  A    between atoms: O_2  and  C_25
REMARK    3  A    between atoms: P_3  and  O_6
REMARK    4  A    between atoms: O_6  and  C_7
REMARK    5  A    between atoms: C_10  and  C_13
REMARK    6  A    between atoms: C_10  and  C_19
REMARK    7  A    between atoms: C_25  and  C_26
REMARK    8  A    between atoms: C_26  and  C_27
REMARK    9  A    between atoms: C_26  and  N_44
REMARK   10  A    between atoms: C_27  and  N_28
REMARK   11  A    between atoms: N_28  and  C_29
REMARK   12  A    between atoms: N_28  and  C_40
REMARK   13  A    between atoms: C_29  and  C_30
REMARK   14  A    between atoms: C_30  and  N_31
REMARK   15  A    between atoms: N_31  and  C_32
REMARK   16  A    between atoms: N_31  and  C_36
REMARK   17  A    between atoms: C_32  and  C_33
REMARK   18  A    between atoms: C_36  and  C_37
REMARK   19  A    between atoms: C_40  and  C_41
REMARK   20  A    between atoms: N_44  and  C_45
REMARK   21  A    between atoms: N_44  and  C_49
REMARK   22  A    between atoms: C_45  and  C_46
REMARK   23  A    between atoms: C_49  and  C_50
REMARK                            x       y       z     vdW  Elec       q    Type
REMARK                         _______ _______ _______ _____ _____    ______ ____
ROOT
ATOM      1  C   UNL     1      -0.688  -1.337   0.000  0.00  0.00    +0.000 C 
ENDROOT
BRANCH   1   2
ATOM      2  C   UNL     1       0.139  -1.337   0.000  0.00  0.00    +0.000 C 
BRANCH   2   3
ATOM      3  N   UNL     1       0.855  -1.748   0.000  0.00  0.00    +0.000 NA
BRANCH   3   4
ATOM      4  C   UNL     1       1.562  -1.332   0.000  0.00  0.00    +0.000 C 
BRANCH   4   5
ATOM      5  C   UNL     1       2.390  -1.332   0.000  0.00  0.00    +0.000 C 
BRANCH   5   6
ATOM      6  N   UNL     1       3.102  -1.744   0.000  0.00  0.00    +0.000 NA
BRANCH   6   7
ATOM      7  C   UNL     1       3.813  -1.332   0.000  0.00  0.00    +0.000 C 
BRANCH   7   8
ATOM      8  C   UNL     1       4.530  -1.739   0.000  0.00  0.00    +0.000 C 
ATOM      9  O   UNL     1       5.246  -1.328   0.000  0.00  0.00    +0.000 OA
ATOM     10  O   UNL     1       4.530  -2.566   0.000  0.00  0.00    +0.000 OA
ENDBRANCH   7   8
ENDBRANCH   6   7
BRANCH   6  11
ATOM     11  C   UNL     1       3.518  -2.455   0.000  0.00  0.00    +0.000 C 
BRANCH  11  12
ATOM     12  C   UNL     1       3.518  -3.278   0.000  0.00  0.00    +0.000 C 
ATOM     13  O   UNL     1       4.234  -3.689   0.000  0.00  0.00    +0.000 OA
ATOM     14  O   UNL     1       2.806  -3.694   0.000  0.00  0.00    +0.000 OA
ENDBRANCH  11  12
ENDBRANCH   6  11
ENDBRANCH   5   6
ENDBRANCH   4   5
ENDBRANCH   3   4
BRANCH   3  15
ATOM     15  C   UNL     1       0.855  -2.571   0.000  0.00  0.00    +0.000 C 
BRANCH  15  16
ATOM     16  C   UNL     1       0.134  -2.982   0.000  0.00  0.00    +0.000 C 
ATOM     17  O   UNL     1      -0.582  -2.571   0.000  0.00  0.00    +0.000 OA
ATOM     18  O   UNL     1       0.134  -3.805   0.000  0.00  0.00    +0.000 OA
ENDBRANCH  15  16
ENDBRANCH   3  15
ENDBRANCH   2   3
ENDBRANCH   1   2
BRANCH   1  19
ATOM     19  C   UNL     1      -1.104  -0.621   0.000  0.00  0.00    +0.000 C 
BRANCH  19  20
ATOM     20  O   UNL     1      -1.104   0.202   0.000  0.00  0.00    +0.000 OA
BRANCH  20  21
ATOM     21  P   UNL     1      -0.698   0.918   0.000  0.00  0.00    +0.000 P 
ATOM     22  O   UNL     1       0.014   0.507   0.000  0.00  0.00    +0.000 OA
ATOM     23  O   UNL     1       0.014   1.334   0.000  0.00  0.00    +0.000 OA
BRANCH  21  24
ATOM     24  O   UNL     1      -1.113   1.635   0.000  0.00  0.00    +0.000 OA
BRANCH  24  25
ATOM     25  C   UNL     1      -1.941   1.635   0.000  0.00  0.00    +0.000 C 
ATOM     26  C   UNL     1      -2.347   2.353   0.000  0.00  0.00    +0.000 C 
ATOM     27  C   UNL     1      -3.165   2.353   0.000  0.00  0.00    +0.000 C 
ATOM     28  C   UNL     1      -3.585   1.650   0.000  0.00  0.00    +0.000 C 
ATOM     29  C   UNL     1      -3.179   0.932   0.000  0.00  0.00    +0.000 C 
ATOM     30  C   UNL     1      -2.353   0.932   0.000  0.00  0.00    +0.000 C 
BRANCH  28  31
ATOM     31  C   UNL     1      -4.002   2.370   0.000  0.00  0.00    +0.000 A 
ATOM     32  C   UNL     1      -3.586   3.091   0.000  0.00  0.00    +0.000 A 
ATOM     33  C   UNL     1      -4.002   3.805   0.000  0.00  0.00    +0.000 A 
ATOM     34  C   UNL     1      -4.833   3.805   0.000  0.00  0.00    +0.000 A 
ATOM     35  C   UNL     1      -5.246   3.080   0.000  0.00  0.00    +0.000 A 
ATOM     36  C   UNL     1      -4.827   2.370   0.000  0.00  0.00    +0.000 A 
ENDBRANCH  28  31
BRANCH  28  37
ATOM     37  C   UNL     1      -4.002   0.941   0.000  0.00  0.00    +0.000 A 
ATOM     38  C   UNL     1      -4.824   0.941   0.000  0.00  0.00    +0.000 A 
ATOM     39  C   UNL     1      -5.241   0.244   0.000  0.00  0.00    +0.000 A 
ATOM     40  C   UNL     1      -4.837  -0.473   0.000  0.00  0.00    +0.000 A 
ATOM     41  C   UNL     1      -4.011  -0.473   0.000  0.00  0.00    +0.000 A 
ATOM     42  C   UNL     1      -3.599   0.231   0.000  0.00  0.00    +0.000 A 
ENDBRANCH  28  37
ENDBRANCH  24  25
ENDBRANCH  21  24
ENDBRANCH  20  21
ENDBRANCH  19  20
ENDBRANCH   1  19
BRANCH   1  43
ATOM     43  N   UNL     1      -1.400  -1.744   0.000  0.00  0.00    +0.000 NA
BRANCH  43  44
ATOM     44  C   UNL     1      -2.116  -1.332   0.000  0.00  0.00    +0.000 C 
BRANCH  44  45
ATOM     45  C   UNL     1      -2.833  -1.739   0.000  0.00  0.00    +0.000 C 
ATOM     46  O   UNL     1      -3.549  -1.328   0.000  0.00  0.00    +0.000 OA
ATOM     47  O   UNL     1      -2.833  -2.566   0.000  0.00  0.00    +0.000 OA
ENDBRANCH  44  45
ENDBRANCH  43  44
BRANCH  43  48
ATOM     48  C   UNL     1      -1.821  -2.455   0.000  0.00  0.00    +0.000 C 
BRANCH  48  49
ATOM     49  C   UNL     1      -1.821  -3.278   0.000  0.00  0.00    +0.000 C 
ATOM     50  O   UNL     1      -2.537  -3.689   0.000  0.00  0.00    +0.000 OA
ATOM     51  O   UNL     1      -1.109  -3.694   0.000  0.00  0.00    +0.000 OA
ENDBRANCH  48  49
ENDBRANCH  43  48
ENDBRANCH   1  43
TORSDOF 23
REMARK  Name = 
REMARK  23 active torsions:
REMARK  status: ('A' for Active; 'I' for Inactive)
REMARK    1  A    between atoms: O_2  and  P_3
REMARK    2  A    between atoms: O_2  and  C_25
REMARK    3  A    between atoms: P_3  and  O_6
REMARK    4  A    between atoms: O_6  and  C_7
REMARK    5  A    between atoms: C_10  and  C_13
REMARK    6  A    between atoms: C_10  and  C_19
REMARK    7  A    between atoms: C_25  and  C_26
REMARK    8  A    between atoms: C_26  and  C_27
REMARK    9  A    between atoms: C_26  and  N_44
REMARK   10  A    between atoms: C_27  and  N_28
REMARK   11  A    between atoms: N_28  and  C_29
REMARK   12  A    between atoms: N_28  and  C_40
REMARK   13  A    between atoms: C_29  and  C_30
REMARK   14  A    between atoms: C_30  and  N_31
REMARK   15  A    between atoms: N_31  and  C_32
REMARK   16  A    between atoms: N_31  and  C_36
REMARK   17  A    between atoms: C_32  and  C_33
REMARK   18  A    between atoms: C_36  and  C_37
REMARK   19  A    between atoms: C_40  and  C_41
REMARK   20  A    between atoms: N_44  and  C_45
REMARK   21  A    between atoms: N_44  and  C_49
REMARK   22  A    between atoms: C_45  and  C_46
REMARK   23  A    between atoms: C_49  and  C_50
REMARK                            x       y       z     vdW  Elec       q    Type
REMARK                         _______ _______ _______ _____ _____    ______ ____
ROOT
ATOM      1 NA   UNL     1       2.750   2.060   0.000  0.00  0.00    +0.000 Na
ENDROOT
TORSDOF 0
REMARK  Name = 
REMARK  23 active torsions:
REMARK  status: ('A' for Active; 'I' for Inactive)
REMARK    1  A    between atoms: O_2  and  P_3
REMARK    2  A    between atoms: O_2  and  C_25
REMARK    3  A    between atoms: P_3  and  O_6
REMARK    4  A    between atoms: O_6  and  C_7
REMARK    5  A    between atoms: C_10  and  C_13
REMARK    6  A    between atoms: C_10  and  C_19
REMARK    7  A    between atoms: C_25  and  C_26
REMARK    8  A    between atoms: C_26  and  C_27
REMARK    9  A    between atoms: C_26  and  N_44
REMARK   10  A    between atoms: C_27  and  N_28
REMARK   11  A    between atoms: N_28  and  C_29
REMARK   12  A    between atoms: N_28  and  C_40
REMARK   13  A    between atoms: C_29  and  C_30
REMARK   14  A    between atoms: C_30  and  N_31
REMARK   15  A    between atoms: N_31  and  C_32
REMARK   16  A    between atoms: N_31  and  C_36
REMARK   17  A    between atoms: C_32  and  C_33
REMARK   18  A    between atoms: C_36  and  C_37
REMARK   19  A    between atoms: C_40  and  C_41
REMARK   20  A    between atoms: N_44  and  C_45
REMARK   21  A    between atoms: N_44  and  C_49
REMARK   22  A    between atoms: C_45  and  C_46
REMARK   23  A    between atoms: C_49  and  C_50
REMARK                            x       y       z     vdW  Elec       q    Type
REMARK                         _______ _______ _______ _____ _____    ______ ____
ROOT
ATOM      1 NA   UNL     1       2.750   2.060   0.000  0.00  0.00    +0.000 Na
ENDROOT
TORSDOF 0
REMARK  Name = 
REMARK  23 active torsions:
REMARK  status: ('A' for Active; 'I' for Inactive)
REMARK    1  A    between atoms: O_2  and  P_3
REMARK    2  A    between atoms: O_2  and  C_25
REMARK    3  A    between atoms: P_3  and  O_6
REMARK    4  A    between atoms: O_6  and  C_7
REMARK    5  A    between atoms: C_10  and  C_13
REMARK    6  A    between atoms: C_10  and  C_19
REMARK    7  A    between atoms: C_25  and  C_26
REMARK    8  A    between atoms: C_26  and  C_27
REMARK    9  A    between atoms: C_26  and  N_44
REMARK   10  A    between atoms: C_27  and  N_28
REMARK   11  A    between atoms: N_28  and  C_29
REMARK   12  A    between atoms: N_28  and  C_40
REMARK   13  A    between atoms: C_29  and  C_30
REMARK   14  A    between atoms: C_30  and  N_31
REMARK   15  A    between atoms: N_31  and  C_32
REMARK   16  A    between atoms: N_31  and  C_36
REMARK   17  A    between atoms: C_32  and  C_33
REMARK   18  A    between atoms: C_36  and  C_37
REMARK   19  A    between atoms: C_40  and  C_41
REMARK   20  A    between atoms: N_44  and  C_45
REMARK   21  A    between atoms: N_44  and  C_49
REMARK   22  A    between atoms: C_45  and  C_46
REMARK   23  A    between atoms: C_49  and  C_50
REMARK                            x       y       z     vdW  Elec       q    Type
REMARK                         _______ _______ _______ _____ _____    ______ ____
ROOT
ATOM      1 NA   UNL     1       2.750   2.060   0.000  0.00  0.00    +0.000 Na
ENDROOT
TORSDOF 0
