REMARK  Name = 
REMARK  6 active torsions:
REMARK  status: ('A' for Active; 'I' for Inactive)
REMARK    1  A    between atoms: C_1  and  N_22
REMARK    2  A    between atoms: C_16  and  N_26
REMARK    3  A    between atoms: C_17  and  O_27
REMARK    4  A    between atoms: N_26  and  C_35
REMARK    5  A    between atoms: O_27  and  C_29
REMARK    6  A    between atoms: C_35  and  C_36
REMARK                            x       y       z     vdW  Elec       q    Type
REMARK                         _______ _______ _______ _____ _____    ______ ____
ROOT
ATOM      1  C   UNL     1      -2.413  -1.134   0.000  0.00  0.00    +0.000 C 
ATOM      2  C   UNL     1      -2.413  -1.960   0.000  0.00  0.00    +0.000 C 
ATOM      3  C   UNL     1      -1.712  -2.372   0.000  0.00  0.00    +0.000 C 
ATOM      4  C   UNL     1      -0.969  -1.960   0.000  0.00  0.00    +0.000 C 
ATOM      5  C   UNL     1      -0.969  -1.134   0.000  0.00  0.00    +0.000 C 
ATOM      6  C   UNL     1      -1.712  -0.722   0.000  0.00  0.00    +0.000 C 
ATOM      7  C   UNL     1      -0.268  -2.372   0.000  0.00  0.00    +0.000 C 
ATOM      8  C   UNL     1       0.433  -1.960   0.000  0.00  0.00    +0.000 C 
ATOM      9  C   UNL     1       0.433  -1.134   0.000  0.00  0.00    +0.000 C 
ATOM     10  C   UNL     1      -0.268  -0.722   0.000  0.00  0.00    +0.000 C 
ATOM     11  C   UNL     1       1.176  -0.722   0.000  0.00  0.00    +0.000 C 
ATOM     12  C   UNL     1       1.176   0.103   0.000  0.00  0.00    +0.000 C 
ATOM     13  C   UNL     1       0.433   0.516   0.000  0.00  0.00    +0.000 C 
ATOM     14  C   UNL     1      -0.268   0.103   0.000  0.00  0.00    +0.000 C 
ATOM     15  C   UNL     1       2.578  -0.722   0.000  0.00  0.00    +0.000 C 
ATOM     16  C   UNL     1       2.578   0.103   0.000  0.00  0.00    +0.000 C 
ATOM     17  C   UNL     1       1.877   0.516   0.000  0.00  0.00    +0.000 C 
ATOM     18  O   UNL     1      -3.115  -2.372   0.000  0.00  0.00    +0.000 OA
ATOM     19  C   UNL     1      -0.969  -0.309   0.000  0.00  0.00    +0.000 C 
ATOM     20  C   UNL     1       1.176   0.928   0.000  0.00  0.00    +0.000 C 
ENDROOT
BRANCH   1  21
ATOM     21  N   UNL     1      -3.115  -0.722   0.000  0.00  0.00    +0.000 NA
ATOM     22  C   UNL     1      -3.115   0.103   0.000  0.00  0.00    +0.000 C 
ATOM     23  C   UNL     1      -3.857   0.516   0.000  0.00  0.00    +0.000 C 
ATOM     24  O   UNL     1      -4.559   0.103   0.000  0.00  0.00    +0.000 OA
ATOM     25  C   UNL     1      -4.559  -0.722   0.000  0.00  0.00    +0.000 C 
ATOM     26  C   UNL     1      -3.857  -1.134   0.000  0.00  0.00    +0.000 C 
ENDBRANCH   1  21
BRANCH  16  27
ATOM     27  N   UNL     1       3.280   0.516   0.000  0.00  0.00    +0.000 N 
ATOM     28  C   UNL     1       3.280   1.341   0.000  0.00  0.00    +0.000 C 
ATOM     29  C   UNL     1       4.064   0.268   0.000  0.00  0.00    +0.000 C 
ATOM     30  C   UNL     1       4.559   0.928   0.000  0.00  0.00    +0.000 C 
ATOM     31  C   UNL     1       4.064   1.588   0.000  0.00  0.00    +0.000 C 
BRANCH  27  32
ATOM     32  C   UNL     1       3.280  -0.309   0.000  0.00  0.00    +0.000 C 
BRANCH  32  33
ATOM     33  C   UNL     1       3.981  -0.722   0.000  0.00  0.00    +0.000 C 
ATOM     34  C   UNL     1       3.981  -1.547   0.000  0.00  0.00    +0.000 C 
ENDBRANCH  32  33
ENDBRANCH  27  32
ENDBRANCH  16  27
BRANCH  17  35
ATOM     35  O   UNL     1       1.877   1.547   0.000  0.00  0.00    +0.000 OA
BRANCH  35  36
ATOM     36  C   UNL     1       1.176   1.960   0.000  0.00  0.00    +0.000 C 
ATOM     37  C   UNL     1       0.474   1.547   0.000  0.00  0.00    +0.000 C 
ATOM     38  O   UNL     1       1.176   2.785   0.000  0.00  0.00    +0.000 OA
ENDBRANCH  35  36
ENDBRANCH  17  35
TORSDOF 6
