REMARK  Name = 
REMARK  6 active torsions:
REMARK  status: ('A' for Active; 'I' for Inactive)
REMARK    1  A    between atoms: C_4  and  C_8
REMARK    2  A    between atoms: C_8  and  N_9
REMARK    3  A    between atoms: N_9  and  C_21
REMARK    4  A    between atoms: C_11  and  C_18
REMARK    5  A    between atoms: N_14  and  C_19
REMARK    6  A    between atoms: C_20  and  C_23
REMARK                            x       y       z     vdW  Elec       q    Type
REMARK                         _______ _______ _______ _____ _____    ______ ____
ROOT
ATOM      1  N   UNL     1      -1.068  -2.694   0.000  0.00  0.00    +0.000 NA
ATOM      2  C   UNL     1      -0.350  -2.304   0.000  0.00  0.00    +0.000 A 
ATOM      3  N   UNL     1       0.370  -2.694   0.000  0.00  0.00    +0.000 NA
ATOM      4  C   UNL     1      -1.767  -2.304   0.000  0.00  0.00    +0.000 A 
ATOM      5  C   UNL     1      -1.767  -1.479   0.000  0.00  0.00    +0.000 A 
ATOM      6  C   UNL     1      -1.068  -1.069   0.000  0.00  0.00    +0.000 A 
ATOM      7  C   UNL     1      -0.350  -1.479   0.000  0.00  0.00    +0.000 A 
ENDROOT
BRANCH   3  13
ATOM      8  C   UNL     1       1.793  -1.030   0.000  0.00  0.00    +0.000 A 
ATOM      9  N   UNL     1       1.080  -1.479   0.000  0.00  0.00    +0.000 NA
ATOM     10  C   UNL     1       1.793  -2.694   0.000  0.00  0.00    +0.000 A 
ATOM     11  N   UNL     1       2.505  -2.254   0.000  0.00  0.00    +0.000 NA
ATOM     12  C   UNL     1       2.505  -1.432   0.000  0.00  0.00    +0.000 A 
ATOM     13  C   UNL     1       1.080  -2.304   0.000  0.00  0.00    +0.000 A 
BRANCH  12  14
ATOM     14  C   UNL     1       3.188  -1.069   0.000  0.00  0.00    +0.000 C 
ATOM     15  N   UNL     1       4.185  -0.516   0.000  0.00  0.00    +0.000 NA
ENDBRANCH  12  14
ENDBRANCH   3  13
BRANCH   5  16
ATOM     16  C   UNL     1      -3.111  -1.069   0.000  0.00  0.00    +0.000 C 
ATOM     17  F   UNL     1      -3.910  -1.845   0.000  0.00  0.00    +0.000 F 
ATOM     18  F   UNL     1      -3.385   0.015   0.000  0.00  0.00    +0.000 F 
ATOM     19  F   UNL     1      -4.185  -0.763   0.000  0.00  0.00    +0.000 F 
ENDBRANCH   5  16
BRANCH   6  20
ATOM     20  N   UNL     1      -1.068  -0.247   0.000  0.00  0.00    +0.000 NA
BRANCH  20  21
ATOM     21  C   UNL     1      -0.350   0.285   0.000  0.00  0.00    +0.000 C 
BRANCH  21  23
ATOM     22  C   UNL     1      -0.350   2.694   0.000  0.00  0.00    +0.000 C 
ATOM     23  C   UNL     1      -0.350   1.044   0.000  0.00  0.00    +0.000 C 
ATOM     24  O   UNL     1       0.370   1.427   0.000  0.00  0.00    +0.000 OA
ATOM     25  N   UNL     1      -1.068   2.243   0.000  0.00  0.00    +0.000 NA
ATOM     26  C   UNL     1      -1.068   1.483   0.000  0.00  0.00    +0.000 C 
ATOM     27  C   UNL     1       0.370   2.243   0.000  0.00  0.00    +0.000 C 
ENDBRANCH  21  23
ENDBRANCH  20  21
ENDBRANCH   6  20
TORSDOF 6
