REMARK  Name = 
REMARK  5 active torsions:
REMARK  status: ('A' for Active; 'I' for Inactive)
REMARK    1  A    between atoms: C_2  and  O_19
REMARK    2  A    between atoms: C_9  and  C_11
REMARK    3  A    between atoms: C_11  and  C_12
REMARK    4  A    between atoms: O_19  and  C_20
REMARK    5  A    between atoms: C_20  and  C_21
REMARK                            x       y       z     vdW  Elec       q    Type
REMARK                         _______ _______ _______ _____ _____    ______ ____
ROOT
ATOM      1  C   UNL     1      -1.408   1.030   0.000  0.00  0.00    +0.000 A 
ATOM      2  C   UNL     1      -1.408   0.205   0.000  0.00  0.00    +0.000 A 
ATOM      3  C   UNL     1      -0.694  -0.208   0.000  0.00  0.00    +0.000 A 
ATOM      4  C   UNL     1       0.021   0.205   0.000  0.00  0.00    +0.000 A 
ATOM      5  C   UNL     1       0.021   1.030   0.000  0.00  0.00    +0.000 A 
ATOM      6  C   UNL     1      -0.694   1.442   0.000  0.00  0.00    +0.000 A 
ATOM      7  C   UNL     1       0.735  -0.208   0.000  0.00  0.00    +0.000 A 
ATOM      8  C   UNL     1       1.450   0.205   0.000  0.00  0.00    +0.000 A 
ATOM      9  C   UNL     1       1.450   1.030   0.000  0.00  0.00    +0.000 A 
ATOM     10  C   UNL     1       0.735   1.442   0.000  0.00  0.00    +0.000 A 
ENDROOT
BRANCH   9  11
ATOM     11  C   UNL     1       2.155   1.437   0.000  0.00  0.00    +0.000 C 
BRANCH  11  12
ATOM     12  C   UNL     1       2.856   1.033   0.000  0.00  0.00    +0.000 C 
ATOM     13  C   UNL     1       2.842   0.205   0.000  0.00  0.00    +0.000 C 
ATOM     14  N   UNL     1       3.624  -0.063   0.000  0.00  0.00    +0.000 NA
ATOM     15  C   UNL     1       4.121   0.598   0.000  0.00  0.00    +0.000 C 
ATOM     16  S   UNL     1       3.646   1.274   0.000  0.00  0.00    +0.000 S 
ATOM     17  O   UNL     1       4.944   0.626   0.000  0.00  0.00    +0.000 OA
ATOM     18  O   UNL     1       2.166  -0.271   0.000  0.00  0.00    +0.000 OA
ENDBRANCH  11  12
ENDBRANCH   9  11
BRANCH   2  19
ATOM     19  O   UNL     1      -2.123  -0.208   0.000  0.00  0.00    +0.000 OA
BRANCH  19  20
ATOM     20  C   UNL     1      -2.827   0.199   0.000  0.00  0.00    +0.000 C 
BRANCH  20  21
ATOM     21  C   UNL     1      -3.527  -0.205   0.000  0.00  0.00    +0.000 A 
ATOM     22  C   UNL     1      -4.229   0.201   0.000  0.00  0.00    +0.000 A 
ATOM     23  C   UNL     1      -4.943  -0.212   0.000  0.00  0.00    +0.000 A 
ATOM     24  C   UNL     1      -4.944  -1.037   0.000  0.00  0.00    +0.000 A 
ATOM     25  C   UNL     1      -4.242  -1.442   0.000  0.00  0.00    +0.000 A 
ATOM     26  C   UNL     1      -3.527  -1.030   0.000  0.00  0.00    +0.000 A 
ATOM     27  F   UNL     1      -4.229   1.030   0.000  0.00  0.00    +0.000 F 
ENDBRANCH  20  21
ENDBRANCH  19  20
ENDBRANCH   2  19
TORSDOF 5
