REMARK  Name = 
REMARK  1 active torsions:
REMARK  status: ('A' for Active; 'I' for Inactive)
REMARK    1  A    between atoms: C_18  and  C_22
REMARK                            x       y       z     vdW  Elec       q    Type
REMARK                         _______ _______ _______ _____ _____    ______ ____
ROOT
ATOM      1  C   UNL     1       0.679  -1.571   0.000  0.00  0.00    +0.000 C 
ATOM      2  C   UNL     1      -0.035  -1.984   0.000  0.00  0.00    +0.000 C 
ATOM      3  C   UNL     1      -0.750  -1.571   0.000  0.00  0.00    +0.000 C 
ATOM      4  C   UNL     1      -1.464  -1.984   0.000  0.00  0.00    +0.000 C 
ATOM      5  C   UNL     1      -2.179  -0.746   0.000  0.00  0.00    +0.000 C 
ATOM      6  C   UNL     1      -1.464  -0.334   0.000  0.00  0.00    +0.000 C 
ATOM      7  C   UNL     1      -0.750  -0.746   0.000  0.00  0.00    +0.000 C 
ATOM      8  C   UNL     1       0.679   0.904   0.000  0.00  0.00    +0.000 C 
ATOM      9  C   UNL     1       2.663   0.079   0.000  0.00  0.00    +0.000 C 
ATOM     10  C   UNL     1       2.179  -0.589   0.000  0.00  0.00    +0.000 C 
ATOM     11  C   UNL     1      -0.035  -0.334   0.000  0.00  0.00    +0.000 C 
ATOM     12  C   UNL     1       1.394  -0.334   0.000  0.00  0.00    +0.000 C 
ATOM     13  C   UNL     1       0.679  -0.746   0.000  0.00  0.00    +0.000 C 
ATOM     14  C   UNL     1       1.394   0.491   0.000  0.00  0.00    +0.000 C 
ATOM     15  C   UNL     1       2.179   0.746   0.000  0.00  0.00    +0.000 C 
ATOM     16  C   UNL     1      -2.179  -1.571   0.000  0.00  0.00    +0.000 C 
ATOM     17  O   UNL     1      -2.893  -1.984   0.000  0.00  0.00    +0.000 OA
ATOM     18  C   UNL     1      -0.035   0.491   0.000  0.00  0.00    +0.000 C 
ATOM     19  O   UNL     1       2.893   1.159   0.000  0.00  0.00    +0.000 OA
ATOM     20  C   UNL     1      -0.750   0.079   0.000  0.00  0.00    +0.000 C 
ATOM     21  C   UNL     1       1.394   1.316   0.000  0.00  0.00    +0.000 C 
ENDROOT
BRANCH  15  22
ATOM     22  C   UNL     1       2.179   1.571   0.000  0.00  0.00    +0.000 C 
ATOM     23  O   UNL     1       1.464   1.984   0.000  0.00  0.00    +0.000 OA
ATOM     24  C   UNL     1       2.893   1.984   0.000  0.00  0.00    +0.000 C 
ENDBRANCH  15  22
TORSDOF 1
