REMARK  Name = 
REMARK  6 active torsions:
REMARK  status: ('A' for Active; 'I' for Inactive)
REMARK    1  A    between atoms: C_7  and  O_22
REMARK    2  A    between atoms: C_8  and  O_23
REMARK    3  A    between atoms: C_10  and  O_14
REMARK    4  A    between atoms: C_13  and  O_25
REMARK    5  A    between atoms: O_14  and  C_24
REMARK    6  A    between atoms: C_21  and  C_24
REMARK                            x       y       z     vdW  Elec       q    Type
REMARK                         _______ _______ _______ _____ _____    ______ ____
ROOT
ATOM      1  C   UNL     1      -0.796  -0.230   0.000  0.00  0.00    +0.000 A 
ATOM      2  N   UNL     1      -0.796  -1.048   0.000  0.00  0.00    +0.000 NA
ATOM      3  C   UNL     1      -2.234  -0.230   0.000  0.00  0.00    +0.000 A 
ATOM      4  C   UNL     1      -2.234  -1.048   0.000  0.00  0.00    +0.000 A 
ATOM      5  N   UNL     1      -1.517   0.186   0.000  0.00  0.00    +0.000 NA
ATOM      6  C   UNL     1      -1.517  -1.450   0.000  0.00  0.00    +0.000 A 
ATOM      7  C   UNL     1      -2.960   0.186   0.000  0.00  0.00    +0.000 A 
ATOM      8  C   UNL     1      -3.681  -0.230   0.000  0.00  0.00    +0.000 A 
ATOM      9  N   UNL     1      -0.080   0.201   0.000  0.00  0.00    +0.000 N 
ATOM     10  C   UNL     1       2.040   1.464   0.000  0.00  0.00    +0.000 C 
ATOM     11  N   UNL     1       1.329   1.043   0.000  0.00  0.00    +0.000 N 
ATOM     12  C   UNL     1      -2.960  -1.450   0.000  0.00  0.00    +0.000 A 
ATOM     13  C   UNL     1      -3.681  -1.048   0.000  0.00  0.00    +0.000 A 
ATOM     14  C   UNL     1       0.646  -0.201   0.000  0.00  0.00    +0.000 C 
ATOM     15  C   UNL     1      -0.094   1.028   0.000  0.00  0.00    +0.000 C 
ATOM     16  C   UNL     1       1.343   0.206   0.000  0.00  0.00    +0.000 C 
ATOM     17  C   UNL     1       0.612   1.440   0.000  0.00  0.00    +0.000 C 
ATOM     18  O   UNL     1       2.050   2.267   0.000  0.00  0.00    +0.000 OA
ATOM     19  N   UNL     1      -1.517  -2.267   0.000  0.00  0.00    +0.000 NA
ENDROOT
BRANCH   7  20
ATOM     20  O   UNL     1      -2.960   1.014   0.000  0.00  0.00    +0.000 OA
ATOM     21  C   UNL     1      -3.666   1.440   0.000  0.00  0.00    +0.000 C 
ENDBRANCH   7  20
BRANCH   8  22
ATOM     22  O   UNL     1      -4.412   0.220   0.000  0.00  0.00    +0.000 OA
ATOM     23  C   UNL     1      -5.104  -0.206   0.000  0.00  0.00    +0.000 C 
ENDBRANCH   8  22
BRANCH  13  24
ATOM     24  O   UNL     1      -4.397  -1.450   0.000  0.00  0.00    +0.000 OA
ATOM     25  C   UNL     1      -5.104  -1.048   0.000  0.00  0.00    +0.000 C 
ENDBRANCH  13  24
BRANCH  10  26
ATOM     26  O   UNL     1       2.761   1.077   0.000  0.00  0.00    +0.000 OA
BRANCH  26  27
ATOM     27  C   UNL     1       3.463   1.493   0.000  0.00  0.00    +0.000 C 
BRANCH  27  28
ATOM     28  C   UNL     1       4.203   1.091   0.000  0.00  0.00    +0.000 C 
ATOM     29  O   UNL     1       4.203   0.288   0.000  0.00  0.00    +0.000 OA
ATOM     30  C   UNL     1       5.104   0.898   0.000  0.00  0.00    +0.000 C 
ATOM     31  C   UNL     1       4.915   1.508   0.000  0.00  0.00    +0.000 C 
ENDBRANCH  27  28
ENDBRANCH  26  27
ENDBRANCH  10  26
TORSDOF 6
