REMARK  Name = 
REMARK  3 active torsions:
REMARK  status: ('A' for Active; 'I' for Inactive)
REMARK    1  A    between atoms: C_2  and  C_9
REMARK    2  A    between atoms: C_6  and  C_7
REMARK    3  A    between atoms: C_7  and  C_8
REMARK                            x       y       z     vdW  Elec       q    Type
REMARK                         _______ _______ _______ _____ _____    ______ ____
ROOT
ATOM      1  C   UNL     1      -0.553  -0.209   0.000  0.00  0.00    +0.000 A 
ATOM      2  C   UNL     1       0.476   0.566   0.000  0.00  0.00    +0.000 A 
ATOM      3  O   UNL     1       0.088  -0.683   0.000  0.00  0.00    +0.000 OA
ATOM      4  C   UNL     1      -0.311   0.566   0.000  0.00  0.00    +0.000 A 
ATOM      5  C   UNL     1       0.718  -0.197   0.000  0.00  0.00    +0.000 A 
ATOM      6  C   UNL     1      -1.344  -0.405   0.000  0.00  0.00    +0.000 A 
ATOM      7  C   UNL     1      -0.870   1.158   0.000  0.00  0.00    +0.000 A 
ATOM      8  C   UNL     1      -1.948   0.218   0.000  0.00  0.00    +0.000 A 
ATOM      9  C   UNL     1      -1.679   1.009   0.000  0.00  0.00    +0.000 A 
ENDROOT
BRANCH   2  10
ATOM     10  C   UNL     1       1.043   1.176   0.000  0.00  0.00    +0.000 A 
ATOM     11  C   UNL     1       0.786   1.979   0.000  0.00  0.00    +0.000 A 
ATOM     12  C   UNL     1       1.874   1.018   0.000  0.00  0.00    +0.000 A 
ATOM     13  C   UNL     1       1.353   2.571   0.000  0.00  0.00    +0.000 A 
ATOM     14  C   UNL     1       2.432   1.607   0.000  0.00  0.00    +0.000 A 
ATOM     15  C   UNL     1       2.178   2.422   0.000  0.00  0.00    +0.000 A 
ENDBRANCH   2  10
BRANCH   6  16
ATOM     16  C   UNL     1      -1.623  -1.183   0.000  0.00  0.00    +0.000 C 
ATOM     17  C   UNL     1      -2.432  -1.344   0.000  0.00  0.00    +0.000 C 
BRANCH  16  18
ATOM     18  C   UNL     1      -1.055  -1.799   0.000  0.00  0.00    +0.000 C 
ATOM     19  O   UNL     1      -0.265  -1.647   0.000  0.00  0.00    +0.000 OA
ATOM     20  O   UNL     1      -1.325  -2.571   0.000  0.00  0.00    +0.000 OA
ENDBRANCH  16  18
ENDBRANCH   6  16
TORSDOF 3
