REMARK  Name = 
REMARK  6 active torsions:
REMARK  status: ('A' for Active; 'I' for Inactive)
REMARK    1  A    between atoms: C_2  and  C_3
REMARK    2  A    between atoms: C_7  and  C_8
REMARK    3  A    between atoms: N_10  and  C_11
REMARK    4  A    between atoms: C_11  and  C_17
REMARK    5  A    between atoms: N_22  and  C_23
REMARK    6  A    between atoms: C_23  and  C_24
REMARK                            x       y       z     vdW  Elec       q    Type
REMARK                         _______ _______ _______ _____ _____    ______ ____
ROOT
ATOM      1  C   UNL     1       2.143  -1.238   0.000  0.00  0.00    +0.000 A 
ATOM      2  C   UNL     1       2.858  -1.650   0.000  0.00  0.00    +0.000 A 
ATOM      3  C   UNL     1       3.572  -1.238   0.000  0.00  0.00    +0.000 C 
ATOM      4  C   UNL     1       2.858  -2.475   0.000  0.00  0.00    +0.000 A 
ATOM      5  C   UNL     1       2.143  -2.888   0.000  0.00  0.00    +0.000 A 
ATOM      6  C   UNL     1       1.429  -2.475   0.000  0.00  0.00    +0.000 A 
ATOM      7  O   UNL     1       0.715  -2.888   0.000  0.00  0.00    +0.000 OA
ATOM      8  N   UNL     1       1.429  -1.650   0.000  0.00  0.00    +0.000 N 
ENDROOT
BRANCH   5   9
ATOM      9  C   UNL     1       2.143  -3.712   0.000  0.00  0.00    +0.000 C 
ATOM     10  O   UNL     1       1.429  -4.125   0.000  0.00  0.00    +0.000 OA
ATOM     11  N   UNL     1       2.858  -4.125   0.000  0.00  0.00    +0.000 NA
BRANCH  11  12
ATOM     12  C   UNL     1       2.858  -4.950   0.000  0.00  0.00    +0.000 C 
ATOM     13  C   UNL     1       3.140  -5.725   0.000  0.00  0.00    +0.000 C 
ATOM     14  C   UNL     1       2.610  -6.357   0.000  0.00  0.00    +0.000 C 
ATOM     15  C   UNL     1       1.797  -6.214   0.000  0.00  0.00    +0.000 C 
ATOM     16  C   UNL     1       1.515  -5.439   0.000  0.00  0.00    +0.000 C 
ATOM     17  C   UNL     1       2.045  -4.807   0.000  0.00  0.00    +0.000 C 
BRANCH  12  18
ATOM     18  C   UNL     1       3.670  -4.807   0.000  0.00  0.00    +0.000 C 
ATOM     19  O   UNL     1       4.201  -5.439   0.000  0.00  0.00    +0.000 OA
ATOM     20  O   UNL     1       3.953  -4.032   0.000  0.00  0.00    +0.000 OA
ENDBRANCH  12  18
ENDBRANCH  11  12
ENDBRANCH   5   9
BRANCH   1  22
ATOM     21  C   UNL     1       2.858   0.000   0.000  0.00  0.00    +0.000 C 
ATOM     22  C   UNL     1       2.143  -0.412   0.000  0.00  0.00    +0.000 C 
ENDBRANCH   1  22
BRANCH   8  23
ATOM     23  C   UNL     1       0.715  -1.238   0.000  0.00  0.00    +0.000 C 
BRANCH  23  24
ATOM     24  C   UNL     1       0.715  -0.412   0.000  0.00  0.00    +0.000 A 
ATOM     25  C   UNL     1       0.000   0.000   0.000  0.00  0.00    +0.000 A 
ATOM     26  C   UNL     1       0.000   0.825   0.000  0.00  0.00    +0.000 A 
ATOM     27  C   UNL     1       0.715   1.238   0.000  0.00  0.00    +0.000 A 
ATOM     28  F   UNL     1       0.715   2.062   0.000  0.00  0.00    +0.000 F 
ATOM     29  C   UNL     1       1.429   0.825   0.000  0.00  0.00    +0.000 A 
ATOM     30  C   UNL     1       1.429   0.000   0.000  0.00  0.00    +0.000 A 
ENDBRANCH  23  24
ENDBRANCH   8  23
TORSDOF 6
