REMARK  Name = 
REMARK  6 active torsions:
REMARK  status: ('A' for Active; 'I' for Inactive)
REMARK    1  A    between atoms: C_2  and  C_8
REMARK    2  A    between atoms: C_5  and  C_6
REMARK    3  A    between atoms: C_6  and  N_7
REMARK    4  A    between atoms: C_8  and  C_13
REMARK    5  A    between atoms: C_17  and  C_18
REMARK    6  A    between atoms: C_18  and  C_19
REMARK                            x       y       z     vdW  Elec       q    Type
REMARK                         _______ _______ _______ _____ _____    ______ ____
ROOT
ATOM      1  C   UNL     1      -0.715  -0.385   0.000  0.00  0.00    +0.000 A 
ATOM      2  C   UNL     1      -0.715  -1.210   0.000  0.00  0.00    +0.000 A 
ATOM      3  C   UNL     1       0.000  -1.622   0.000  0.00  0.00    +0.000 A 
ATOM      4  C   UNL     1       0.715  -0.385   0.000  0.00  0.00    +0.000 A 
ATOM      5  C   UNL     1       0.000   0.028   0.000  0.00  0.00    +0.000 A 
ATOM      6  C   UNL     1       0.715  -1.210   0.000  0.00  0.00    +0.000 A 
ENDROOT
BRANCH   2   7
ATOM      7  C   UNL     1      -1.429  -1.622   0.000  0.00  0.00    +0.000 C 
ATOM      8  C   UNL     1      -1.841  -2.337   0.000  0.00  0.00    +0.000 C 
ATOM      9  C   UNL     1      -1.017  -2.337   0.000  0.00  0.00    +0.000 C 
BRANCH   7  10
ATOM     10  C   UNL     1      -2.143  -1.210   0.000  0.00  0.00    +0.000 C 
ATOM     11  N   UNL     1      -2.858  -0.797   0.000  0.00  0.00    +0.000 NA
ENDBRANCH   7  10
ENDBRANCH   2   7
BRANCH   6  12
ATOM     12  C   UNL     1       1.429  -1.606   0.000  0.00  0.00    +0.000 C 
ATOM     13  C   UNL     1       1.841  -2.337   0.000  0.00  0.00    +0.000 C 
ATOM     14  C   UNL     1       1.017  -2.337   0.000  0.00  0.00    +0.000 C 
BRANCH  12  15
ATOM     15  C   UNL     1       2.143  -1.210   0.000  0.00  0.00    +0.000 C 
ATOM     16  N   UNL     1       2.858  -0.797   0.000  0.00  0.00    +0.000 NA
ENDBRANCH  12  15
ENDBRANCH   6  12
BRANCH   5  17
ATOM     17  C   UNL     1       0.000   0.853   0.000  0.00  0.00    +0.000 C 
BRANCH  17  18
ATOM     18  N   UNL     1       0.705   1.260   0.000  0.00  0.00    +0.000 N 
ATOM     19  N   UNL     1       1.488   1.002   0.000  0.00  0.00    +0.000 NA
ATOM     20  C   UNL     1       1.975   1.668   0.000  0.00  0.00    +0.000 A 
ATOM     21  N   UNL     1       1.492   2.337   0.000  0.00  0.00    +0.000 NA
ATOM     22  C   UNL     1       0.706   2.084   0.000  0.00  0.00    +0.000 A 
ENDBRANCH  17  18
ENDBRANCH   5  17
TORSDOF 6
