REMARK  Name = 
REMARK  9 active torsions:
REMARK  status: ('A' for Active; 'I' for Inactive)
REMARK    1  A    between atoms: C_16  and  C_25
REMARK    2  A    between atoms: C_16  and  C_31
REMARK    3  A    between atoms: C_19  and  C_24
REMARK    4  A    between atoms: C_19  and  C_36
REMARK    5  A    between atoms: C_20  and  C_26
REMARK    6  A    between atoms: C_20  and  O_43
REMARK    7  A    between atoms: C_21  and  C_35
REMARK    8  A    between atoms: C_29  and  O_42
REMARK    9  A    between atoms: C_31  and  O_43
REMARK                            x       y       z     vdW  Elec       q    Type
REMARK                         _______ _______ _______ _____ _____    ______ ____
ROOT
ATOM      1  C   UNL     1       3.708   2.309   0.000  0.00  0.00    +0.000 C 
ATOM      2  C   UNL     1       1.268   3.063   0.000  0.00  0.00    +0.000 C 
ATOM      3  C   UNL     1       2.238   2.267   0.000  0.00  0.00    +0.000 C 
ATOM      4  C   UNL     1       0.284   0.438   0.000  0.00  0.00    +0.000 C 
ATOM      5  C   UNL     1      -0.143   2.880   0.000  0.00  0.00    +0.000 C 
ATOM      6  C   UNL     1       1.748   0.182   0.000  0.00  0.00    +0.000 C 
ATOM      7  C   UNL     1       2.984   1.913   0.000  0.00  0.00    +0.000 C 
ATOM      8  C   UNL     1       0.646   2.521   0.000  0.00  0.00    +0.000 C 
ATOM      9  C   UNL     1       0.954  -0.042   0.000  0.00  0.00    +0.000 C 
ATOM     10  C   UNL     1       0.241   1.262   0.000  0.00  0.00    +0.000 C 
ATOM     11  C   UNL     1       1.672   1.667   0.000  0.00  0.00    +0.000 C 
ATOM     12  C   UNL     1       2.878   1.095   0.000  0.00  0.00    +0.000 C 
ATOM     13  C   UNL     1      -0.565   1.720   0.000  0.00  0.00    +0.000 C 
ATOM     14  C   UNL     1       2.067   0.943   0.000  0.00  0.00    +0.000 C 
ATOM     15  C   UNL     1      -0.866   2.379   0.000  0.00  0.00    +0.000 C 
ATOM     16  C   UNL     1      -0.810   0.869   0.000  0.00  0.00    +0.000 C 
ATOM     17  C   UNL     1       0.859   1.809   0.000  0.00  0.00    +0.000 C 
ATOM     18  O   UNL     1       3.478   0.529   0.000  0.00  0.00    +0.000 OA
ATOM     19  O   UNL     1       2.586   0.301   0.000  0.00  0.00    +0.000 OA
ATOM     20  O   UNL     1      -1.329   1.173   0.000  0.00  0.00    +0.000 OA
ATOM     21  O   UNL     1      -1.489   1.743   0.000  0.00  0.00    +0.000 OA
ATOM     22  O   UNL     1       0.161   0.707   0.000  0.00  0.00    +0.000 OA
ENDROOT
BRANCH  15  25
ATOM     23  C   UNL     1      -2.209   2.865   0.000  0.00  0.00    +0.000 C 
ATOM     24  C   UNL     1      -1.117   3.786   0.000  0.00  0.00    +0.000 C 
ATOM     25  C   UNL     1      -1.397   3.010   0.000  0.00  0.00    +0.000 C 
ENDBRANCH  15  25
BRANCH  16  26
ATOM     26  C   UNL     1      -1.233   0.161   0.000  0.00  0.00    +0.000 C 
BRANCH  26  32
ATOM     27  C   UNL     1      -3.708   0.196   0.000  0.00  0.00    +0.000 A 
ATOM     28  C   UNL     1      -3.306  -0.524   0.000  0.00  0.00    +0.000 A 
ATOM     29  C   UNL     1      -3.285   0.905   0.000  0.00  0.00    +0.000 A 
ATOM     30  C   UNL     1      -2.481  -0.536   0.000  0.00  0.00    +0.000 A 
ATOM     31  C   UNL     1      -2.460   0.893   0.000  0.00  0.00    +0.000 A 
ATOM     32  C   UNL     1      -2.058   0.173   0.000  0.00  0.00    +0.000 A 
ENDBRANCH  26  32
ENDBRANCH  16  26
BRANCH   9  33
ATOM     33  C   UNL     1       0.812  -0.855   0.000  0.00  0.00    +0.000 C 
BRANCH  33  34
ATOM     34  O   UNL     1       0.037  -1.138   0.000  0.00  0.00    +0.000 OA
BRANCH  34  35
ATOM     35  C   UNL     1      -0.105  -1.951   0.000  0.00  0.00    +0.000 C 
ATOM     36  O   UNL     1      -0.880  -2.234   0.000  0.00  0.00    +0.000 OA
BRANCH  35  37
ATOM     37  C   UNL     1       0.527  -2.480   0.000  0.00  0.00    +0.000 C 
BRANCH  37  41
ATOM     38  C   UNL     1       1.444  -1.385   0.000  0.00  0.00    +0.000 A 
ATOM     39  C   UNL     1       2.219  -1.101   0.000  0.00  0.00    +0.000 A 
ATOM     40  C   UNL     1       1.935  -2.727   0.000  0.00  0.00    +0.000 A 
ATOM     41  C   UNL     1       1.302  -2.197   0.000  0.00  0.00    +0.000 A 
ATOM     42  C   UNL     1       2.852  -1.631   0.000  0.00  0.00    +0.000 A 
ATOM     43  C   UNL     1       2.710  -2.443   0.000  0.00  0.00    +0.000 A 
ATOM     44  O   UNL     1       3.627  -1.348   0.000  0.00  0.00    +0.000 OA
BRANCH  43  46
ATOM     45  C   UNL     1       3.200  -3.786   0.000  0.00  0.00    +0.000 C 
ATOM     46  O   UNL     1       3.342  -2.973   0.000  0.00  0.00    +0.000 OA
ENDBRANCH  43  46
ENDBRANCH  37  41
ENDBRANCH  35  37
ENDBRANCH  34  35
ENDBRANCH  33  34
ENDBRANCH   9  33
TORSDOF 9
