REMARK  Name = 
REMARK  4 active torsions:
REMARK  status: ('A' for Active; 'I' for Inactive)
REMARK    1  A    between atoms: C_3  and  C_21
REMARK    2  A    between atoms: C_4  and  C_20
REMARK    3  A    between atoms: C_6  and  S_13
REMARK    4  A    between atoms: S_13  and  N_14
REMARK                            x       y       z     vdW  Elec       q    Type
REMARK                         _______ _______ _______ _____ _____    ______ ____
ROOT
ATOM      1  N   UNL     1      -1.105  -0.400   0.000  0.00  0.00    +0.000 N 
ATOM      2  C   UNL     1      -0.428   0.071   0.000  0.00  0.00    +0.000 C 
ATOM      3  C   UNL     1      -0.667   0.861   0.000  0.00  0.00    +0.000 C 
ATOM      4  C   UNL     1      -1.492   0.877   0.000  0.00  0.00    +0.000 C 
ATOM      5  N   UNL     1      -1.762   0.098   0.000  0.00  0.00    +0.000 NA
ATOM      6  N   UNL     1      -0.388  -1.640   0.000  0.00  0.00    +0.000 NA
ATOM      7  C   UNL     1      -1.105  -1.228   0.000  0.00  0.00    +0.000 C 
ATOM      8  N   UNL     1      -1.818  -1.641   0.000  0.00  0.00    +0.000 NA
ATOM      9  C   UNL     1      -2.533  -1.230   0.000  0.00  0.00    +0.000 C 
ENDROOT
BRANCH   4  10
ATOM     10  C   UNL     1      -1.964   1.553   0.000  0.00  0.00    +0.000 A 
ATOM     11  C   UNL     1      -1.542   2.263   0.000  0.00  0.00    +0.000 A 
ATOM     12  C   UNL     1      -1.946   2.981   0.000  0.00  0.00    +0.000 A 
ATOM     13  C   UNL     1      -2.771   2.990   0.000  0.00  0.00    +0.000 A 
ATOM     14  C   UNL     1      -3.192   2.276   0.000  0.00  0.00    +0.000 A 
ATOM     15  C   UNL     1      -2.785   1.560   0.000  0.00  0.00    +0.000 A 
ATOM     16 CL   UNL     1      -3.177   3.708   0.000  0.00  0.00    +0.000 Cl
ENDBRANCH   4  10
BRANCH   3  17
ATOM     17  C   UNL     1      -0.169   1.519   0.000  0.00  0.00    +0.000 A 
ATOM     18  C   UNL     1       0.654   1.530   0.000  0.00  0.00    +0.000 A 
ATOM     19  C   UNL     1       1.052   2.251   0.000  0.00  0.00    +0.000 A 
ATOM     20  C   UNL     1       0.626   2.958   0.000  0.00  0.00    +0.000 A 
ATOM     21  C   UNL     1      -0.203   2.939   0.000  0.00  0.00    +0.000 A 
ATOM     22  C   UNL     1      -0.597   2.218   0.000  0.00  0.00    +0.000 A 
ENDBRANCH   3  17
BRANCH   6  23
ATOM     23  S   UNL     1       0.328  -2.052   0.000  0.00  0.00    +0.000 S 
ATOM     24  O   UNL     1       0.736  -1.336   0.000  0.00  0.00    +0.000 OA
ATOM     25  O   UNL     1      -0.088  -2.764   0.000  0.00  0.00    +0.000 OA
BRANCH  23  26
ATOM     26  C   UNL     1       1.047  -2.469   0.000  0.00  0.00    +0.000 A 
ATOM     27  C   UNL     1       1.046  -3.296   0.000  0.00  0.00    +0.000 A 
ATOM     28  C   UNL     1       1.761  -3.708   0.000  0.00  0.00    +0.000 A 
ATOM     29  C   UNL     1       2.477  -3.295   0.000  0.00  0.00    +0.000 A 
ATOM     30  C   UNL     1       2.474  -2.465   0.000  0.00  0.00    +0.000 A 
ATOM     31  C   UNL     1       1.759  -2.056   0.000  0.00  0.00    +0.000 A 
ATOM     32 CL   UNL     1       3.192  -3.707   0.000  0.00  0.00    +0.000 Cl
ENDBRANCH  23  26
ENDBRANCH   6  23
TORSDOF 4
