REMARK  Name = 
REMARK  9 active torsions:
REMARK  status: ('A' for Active; 'I' for Inactive)
REMARK    1  A    between atoms: C_7  and  C_13
REMARK    2  A    between atoms: C_14  and  C_16
REMARK    3  A    between atoms: C_15  and  C_17
REMARK    4  A    between atoms: C_16  and  C_18
REMARK    5  A    between atoms: C_17  and  C_19
REMARK    6  A    between atoms: C_18  and  C_20
REMARK    7  A    between atoms: C_19  and  C_21
REMARK    8  A    between atoms: C_20  and  C_23
REMARK    9  A    between atoms: C_21  and  C_24
REMARK                            x       y       z     vdW  Elec       q    Type
REMARK                         _______ _______ _______ _____ _____    ______ ____
ROOT
ATOM      1  O   UNL     1      -1.800  -0.868   0.000  0.00  0.00    +0.000 OA
ATOM      2  C   UNL     1       0.307  -0.455   0.000  0.00  0.00    +0.000 C 
ATOM      3  C   UNL     1       0.307  -1.282   0.000  0.00  0.00    +0.000 C 
ATOM      4  C   UNL     1      -0.477  -0.201   0.000  0.00  0.00    +0.000 C 
ATOM      5  C   UNL     1      -0.477  -1.536   0.000  0.00  0.00    +0.000 C 
ATOM      6  C   UNL     1      -0.964  -0.868   0.000  0.00  0.00    +0.000 C 
ATOM      7  C   UNL     1       1.091  -0.201   0.000  0.00  0.00    +0.000 C 
ATOM      8  C   UNL     1       1.091  -1.536   0.000  0.00  0.00    +0.000 C 
ATOM      9  C   UNL     1       1.567  -0.868   0.000  0.00  0.00    +0.000 C 
ATOM     10  C   UNL     1       2.404  -0.868   0.000  0.00  0.00    +0.000 C 
ENDROOT
BRANCH   4  11
ATOM     11  C   UNL     1      -0.741   0.593   0.000  0.00  0.00    +0.000 C 
ATOM     12  C   UNL     1      -1.546   0.763   0.000  0.00  0.00    +0.000 C 
BRANCH  12  14
ATOM     13  O   UNL     1      -1.250   2.161   0.000  0.00  0.00    +0.000 OA
ATOM     14  C   UNL     1      -1.800   1.546   0.000  0.00  0.00    +0.000 C 
BRANCH  14  15
ATOM     15  C   UNL     1      -2.616   1.716   0.000  0.00  0.00    +0.000 C 
ATOM     16  C   UNL     1      -3.167   1.101   0.000  0.00  0.00    +0.000 C 
BRANCH  15  17
ATOM     17  C   UNL     1      -2.870   2.510   0.000  0.00  0.00    +0.000 C 
BRANCH  17  18
ATOM     18  C   UNL     1      -3.675   2.680   0.000  0.00  0.00    +0.000 C 
ATOM     19  C   UNL     1      -4.491   2.849   0.000  0.00  0.00    +0.000 C 
ATOM     20  C   UNL     1      -5.296   3.018   0.000  0.00  0.00    +0.000 C 
ENDBRANCH  17  18
ENDBRANCH  15  17
ENDBRANCH  14  15
ENDBRANCH  12  14
ENDBRANCH   4  11
BRANCH  10  21
ATOM     21  C   UNL     1       2.817  -1.589   0.000  0.00  0.00    +0.000 C 
BRANCH  21  22
ATOM     22  C   UNL     1       3.643  -1.589   0.000  0.00  0.00    +0.000 C 
BRANCH  22  23
ATOM     23  C   UNL     1       4.056  -2.298   0.000  0.00  0.00    +0.000 C 
BRANCH  23  26
ATOM     24  O   UNL     1       5.296  -3.018   0.000  0.00  0.00    +0.000 OA
ATOM     25  O   UNL     1       5.296  -1.589   0.000  0.00  0.00    +0.000 OA
ATOM     26  C   UNL     1       4.883  -2.298   0.000  0.00  0.00    +0.000 C 
ENDBRANCH  23  26
ENDBRANCH  22  23
ENDBRANCH  21  22
ENDBRANCH  10  21
TORSDOF 9
