REMARK  Name = 
REMARK  16 active torsions:
REMARK  status: ('A' for Active; 'I' for Inactive)
REMARK    1  A    between atoms: C_6  and  C_84
REMARK    2  A    between atoms: C_14  and  C_15
REMARK    3  A    between atoms: C_15  and  C_16
REMARK    4  A    between atoms: C_16  and  C_17
REMARK    5  A    between atoms: C_31  and  C_32
REMARK    6  A    between atoms: C_32  and  C_33
REMARK    7  A    between atoms: C_33  and  C_34
REMARK    8  A    between atoms: C_37  and  C_38
REMARK    9  A    between atoms: C_37  and  C_41
REMARK   10  A    between atoms: C_42  and  C_43
REMARK   11  A    between atoms: C_42  and  C_80
REMARK   12  A    between atoms: C_46  and  C_47
REMARK   13  A    between atoms: C_47  and  C_48
REMARK   14  A    between atoms: C_58  and  C_59
REMARK   15  A    between atoms: C_84  and  C_85
REMARK   16  A    between atoms: C_85  and  C_86
REMARK                            x       y       z     vdW  Elec       q    Type
REMARK                         _______ _______ _______ _____ _____    ______ ____
ROOT
ATOM      1 CO   UNL     1      -0.322   2.243   0.000  0.00  0.00    +0.000 Co
ATOM      2  C   UNL     1      -1.029   0.541   0.000  0.00  0.00    +0.000 C 
ATOM      3  N   UNL     1      -1.141   1.345   0.000  0.00  0.00    +0.000 N 
ATOM      4  N   UNL     1      -1.141   3.043   0.000  0.00  0.00    +0.000 N 
ATOM      5  C   UNL     1      -1.029   3.846   0.000  0.00  0.00    +0.000 C 
ATOM      6  C   UNL     1      -1.742   4.223   0.000  0.00  0.00    +0.000 C 
ATOM      7  C   UNL     1       0.412   3.846   0.000  0.00  0.00    +0.000 C 
ATOM      8  N   UNL     1       0.536   3.043   0.000  0.00  0.00    +0.000 N 
ATOM      9  C   UNL     1       1.361   2.894   0.000  0.00  0.00    +0.000 C 
ATOM     10  C   UNL     1       1.775   2.194   0.000  0.00  0.00    +0.000 C 
ATOM     11  C   UNL     1       1.361   1.490   0.000  0.00  0.00    +0.000 C 
ATOM     12  N   UNL     1       0.536   1.345   0.000  0.00  0.00    +0.000 N 
ATOM     13  C   UNL     1       0.412   0.541   0.000  0.00  0.00    +0.000 C 
ATOM     14  C   UNL     1       1.149   0.160   0.000  0.00  0.00    +0.000 C 
ATOM     15  C   UNL     1       1.742   0.740   0.000  0.00  0.00    +0.000 C 
ATOM     16  C   UNL     1       2.380   0.217   0.000  0.00  0.00    +0.000 C 
ATOM     17  C   UNL     1       2.513   1.031   0.000  0.00  0.00    +0.000 C 
ATOM     18  C   UNL     1       1.900   4.565   0.000  0.00  0.00    +0.000 C 
ATOM     19  C   UNL     1      -0.292   4.256   0.000  0.00  0.00    +0.000 C 
ATOM     20  C   UNL     1      -0.292   5.081   0.000  0.00  0.00    +0.000 C 
ATOM     21  C   UNL     1      -0.292   0.127   0.000  0.00  0.00    +0.000 C 
ATOM     22  C   UNL     1      -0.292  -0.698   0.000  0.00  0.00    +0.000 C 
ATOM     23  C   UNL     1      -1.953   1.490   0.000  0.00  0.00    +0.000 C 
ATOM     24  C   UNL     1      -1.953   2.919   0.000  0.00  0.00    +0.000 C 
ATOM     25  C   UNL     1      -2.750   2.705   0.000  0.00  0.00    +0.000 C 
ATOM     26  C   UNL     1      -1.742  -0.665   0.000  0.00  0.00    +0.000 C 
ATOM     27  C   UNL     1       1.742   3.643   0.000  0.00  0.00    +0.000 C 
ATOM     28  C   UNL     1       1.149   4.223   0.000  0.00  0.00    +0.000 C 
ATOM     29  C   UNL     1      -2.334   0.740   0.000  0.00  0.00    +0.000 C 
ATOM     30  C   UNL     1       1.321  -3.280   0.000  0.00  0.00    +0.000 A 
ATOM     31  C   UNL     1       0.000  -3.088   0.000  0.00  0.00    +0.000 A 
ATOM     32  C   UNL     1       0.955  -4.020   0.000  0.00  0.00    +0.000 A 
ATOM     33  N   UNL     1       0.730  -2.704   0.000  0.00  0.00    +0.000 N 
ATOM     34  N   UNL     1       0.139  -3.901   0.000  0.00  0.00    +0.000 N 
ATOM     35  C   UNL     1      -0.438  -4.492   0.000  0.00  0.00    +0.000 C 
ATOM     36  O   UNL     1      -0.693  -5.277   0.000  0.00  0.00    +0.000 OA
ATOM     37  C   UNL     1      -1.518  -5.277   0.000  0.00  0.00    +0.000 C 
ATOM     38  C   UNL     1      -1.105  -4.008   0.000  0.00  0.00    +0.000 C 
ATOM     39  O   UNL     1      -1.105  -3.183   0.000  0.00  0.00    +0.000 OA
ATOM     40  C   UNL     1      -1.773  -4.492   0.000  0.00  0.00    +0.000 C 
ATOM     41  O   UNL     1      -2.557  -4.238   0.000  0.00  0.00    +0.000 OA
ATOM     42  C   UNL     1      -2.456  -1.077   0.000  0.00  0.00    +0.000 C 
ATOM     43  C   UNL     1      -3.170  -1.490   0.000  0.00  0.00    +0.000 C 
ATOM     44  O   UNL     1      -3.885  -1.077   0.000  0.00  0.00    +0.000 OA
ATOM     45  N   UNL     1      -3.170  -2.315   0.000  0.00  0.00    +0.000 NA
ATOM     46  C   UNL     1      -3.885  -2.727   0.000  0.00  0.00    +0.000 C 
ATOM     47  C   UNL     1      -2.456  -0.252   0.000  0.00  0.00    +0.000 C 
ATOM     48  C   UNL     1      -1.742   0.160   0.000  0.00  0.00    +0.000 C 
ATOM     49  C   UNL     1      -3.885  -3.552   0.000  0.00  0.00    +0.000 C 
ATOM     50  O   UNL     1      -3.171  -3.965   0.000  0.00  0.00    +0.000 OA
ATOM     51  C   UNL     1      -4.599  -3.965   0.000  0.00  0.00    +0.000 C 
ATOM     52  O   UNL     1      -3.995  -4.790   0.000  0.00  0.00    +0.000 OA
ATOM     53  P   UNL     1      -3.171  -4.790   0.000  0.00  0.00    +0.000 P 
ATOM     54  O   UNL     1      -2.758  -5.504   0.000  0.00  0.00    +0.000 OA
ATOM     55  C   UNL     1      -2.334   3.643   0.000  0.00  0.00    +0.000 C 
ATOM     56  C   UNL     1      -2.985   4.137   0.000  0.00  0.00    +0.000 C 
ATOM     57  C   UNL     1       1.413  -4.706   0.000  0.00  0.00    +0.000 A 
ATOM     58  C   UNL     1       2.602  -3.913   0.000  0.00  0.00    +0.000 A 
ATOM     59  C   UNL     1       2.236  -4.653   0.000  0.00  0.00    +0.000 A 
ATOM     60  C   UNL     1       2.144  -3.227   0.000  0.00  0.00    +0.000 A 
ATOM     61  C   UNL     1       2.694  -5.340   0.000  0.00  0.00    +0.000 C 
ATOM     62  C   UNL     1       3.425  -3.860   0.000  0.00  0.00    +0.000 C 
ATOM     63  C   UNL     1      -0.321   3.312   0.000  0.00  0.00    +0.000 C 
ENDROOT
BRANCH  37  64
ATOM     64  C   UNL     1      -2.003  -5.945   0.000  0.00  0.00    +0.000 C 
ATOM     65  O   UNL     1      -1.667  -6.698   0.000  0.00  0.00    +0.000 OA
ENDBRANCH  37  64
BRANCH  14  66
ATOM     66  C   UNL     1       1.272  -0.655   0.000  0.00  0.00    +0.000 C 
BRANCH  66  67
ATOM     67  C   UNL     1       2.039  -0.957   0.000  0.00  0.00    +0.000 C 
BRANCH  67  68
ATOM     68  C   UNL     1       2.162  -1.773   0.000  0.00  0.00    +0.000 C 
ATOM     69  O   UNL     1       1.516  -2.287   0.000  0.00  0.00    +0.000 OA
ATOM     70  N   UNL     1       2.929  -2.075   0.000  0.00  0.00    +0.000 NA
ENDBRANCH  67  68
ENDBRANCH  66  67
ENDBRANCH  14  66
BRANCH  28  71
ATOM     71  C   UNL     1       1.149   5.048   0.000  0.00  0.00    +0.000 C 
BRANCH  71  72
ATOM     72  C   UNL     1       1.864   5.461   0.000  0.00  0.00    +0.000 C 
ATOM     73  O   UNL     1       1.864   6.286   0.000  0.00  0.00    +0.000 OA
ATOM     74  N   UNL     1       2.578   5.048   0.000  0.00  0.00    +0.000 NA
ENDBRANCH  71  72
ENDBRANCH  28  71
BRANCH  29  75
ATOM     75  C   UNL     1      -3.048   0.328   0.000  0.00  0.00    +0.000 C 
BRANCH  75  76
ATOM     76  C   UNL     1      -3.763   0.740   0.000  0.00  0.00    +0.000 C 
ATOM     77  O   UNL     1      -3.763   1.565   0.000  0.00  0.00    +0.000 OA
ATOM     78  N   UNL     1      -4.477   0.328   0.000  0.00  0.00    +0.000 NA
ENDBRANCH  75  76
ENDBRANCH  29  75
BRANCH  27  79
ATOM     79  C   UNL     1       2.456   4.056   0.000  0.00  0.00    +0.000 C 
BRANCH  79  80
ATOM     80  C   UNL     1       3.171   3.643   0.000  0.00  0.00    +0.000 C 
BRANCH  80  81
ATOM     81  C   UNL     1       3.885   4.056   0.000  0.00  0.00    +0.000 C 
ATOM     82  O   UNL     1       3.885   4.881   0.000  0.00  0.00    +0.000 OA
ATOM     83  N   UNL     1       4.599   3.643   0.000  0.00  0.00    +0.000 NA
ENDBRANCH  80  81
ENDBRANCH  79  80
ENDBRANCH  27  79
BRANCH   6  84
ATOM     84  C   UNL     1      -1.748   5.048   0.000  0.00  0.00    +0.000 C 
BRANCH  84  85
ATOM     85  C   UNL     1      -2.466   5.455   0.000  0.00  0.00    +0.000 C 
BRANCH  85  86
ATOM     86  C   UNL     1      -2.472   6.280   0.000  0.00  0.00    +0.000 C 
ATOM     87  O   UNL     1      -3.190   6.687   0.000  0.00  0.00    +0.000 OA
ATOM     88  N   UNL     1      -1.761   6.698   0.000  0.00  0.00    +0.000 NA
ENDBRANCH  85  86
ENDBRANCH  84  85
ENDBRANCH   6  84
BRANCH  55  89
ATOM     89  C   UNL     1      -3.048   3.231   0.000  0.00  0.00    +0.000 C 
BRANCH  89  90
ATOM     90  C   UNL     1      -3.763   3.643   0.000  0.00  0.00    +0.000 C 
ATOM     91  O   UNL     1      -3.763   4.468   0.000  0.00  0.00    +0.000 OA
ATOM     92  N   UNL     1      -4.477   3.231   0.000  0.00  0.00    +0.000 NA
ENDBRANCH  89  90
ENDBRANCH  55  89
TORSDOF 16
