REMARK  Name = 
REMARK  6 active torsions:
REMARK  status: ('A' for Active; 'I' for Inactive)
REMARK    1  A    between atoms: C_1  and  O_10
REMARK    2  A    between atoms: C_4  and  O_11
REMARK    3  A    between atoms: C_7  and  O_12
REMARK    4  A    between atoms: O_10  and  P_15
REMARK    5  A    between atoms: O_11  and  P_19
REMARK    6  A    between atoms: O_12  and  P_23
REMARK                            x       y       z     vdW  Elec       q    Type
REMARK                         _______ _______ _______ _____ _____    ______ ____
ROOT
ATOM      1  C   UNL     1       0.770   0.825   0.000  0.00  0.00    +0.000 C 
ATOM      2  C   UNL     1       0.055   0.412   0.000  0.00  0.00    +0.000 C 
ATOM      3  O   UNL     1      -0.659   0.825   0.000  0.00  0.00    +0.000 OA
ATOM      4  C   UNL     1       0.055  -0.412   0.000  0.00  0.00    +0.000 C 
ATOM      5  C   UNL     1       1.484  -0.412   0.000  0.00  0.00    +0.000 C 
ATOM      6  O   UNL     1       2.199  -0.825   0.000  0.00  0.00    +0.000 OA
ATOM      7  C   UNL     1       0.770  -0.825   0.000  0.00  0.00    +0.000 C 
ATOM      8  C   UNL     1       1.484   0.412   0.000  0.00  0.00    +0.000 C 
ATOM      9  O   UNL     1       2.199   0.825   0.000  0.00  0.00    +0.000 OA
ENDROOT
BRANCH   4  10
ATOM     10  O   UNL     1      -0.659  -0.825   0.000  0.00  0.00    +0.000 OA
BRANCH  10  13
ATOM     11  O   UNL     1      -1.374   0.412   0.000  0.00  0.00    +0.000 OA
ATOM     12  O   UNL     1      -2.199  -0.412   0.000  0.00  0.00    +0.000 OA
ATOM     13  P   UNL     1      -1.374  -0.412   0.000  0.00  0.00    +0.000 P 
ATOM     14  O   UNL     1      -1.374  -1.238   0.000  0.00  0.00    +0.000 OA
ENDBRANCH  10  13
ENDBRANCH   4  10
BRANCH   1  15
ATOM     15  O   UNL     1       0.770   1.650   0.000  0.00  0.00    +0.000 OA
BRANCH  15  18
ATOM     16  O   UNL     1       0.055   2.887   0.000  0.00  0.00    +0.000 OA
ATOM     17  O   UNL     1      -0.770   2.062   0.000  0.00  0.00    +0.000 OA
ATOM     18  P   UNL     1       0.055   2.062   0.000  0.00  0.00    +0.000 P 
ATOM     19  O   UNL     1       0.055   1.237   0.000  0.00  0.00    +0.000 OA
ENDBRANCH  15  18
ENDBRANCH   1  15
BRANCH   7  20
ATOM     20  O   UNL     1       0.770  -1.650   0.000  0.00  0.00    +0.000 OA
BRANCH  20  23
ATOM     21  O   UNL     1      -0.770  -2.062   0.000  0.00  0.00    +0.000 OA
ATOM     22  O   UNL     1       0.055  -1.238   0.000  0.00  0.00    +0.000 OA
ATOM     23  P   UNL     1       0.055  -2.062   0.000  0.00  0.00    +0.000 P 
ATOM     24  O   UNL     1       0.055  -2.888   0.000  0.00  0.00    +0.000 OA
ENDBRANCH  20  23
ENDBRANCH   7  20
TORSDOF 6
