REMARK  Name = 
REMARK  11 active torsions:
REMARK  status: ('A' for Active; 'I' for Inactive)
REMARK    1  A    between atoms: C_5  and  C_6
REMARK    2  A    between atoms: C_5  and  C_7
REMARK    3  A    between atoms: C_6  and  C_8
REMARK    4  A    between atoms: C_7  and  C_15
REMARK    5  A    between atoms: C_8  and  C_16
REMARK    6  A    between atoms: C_15  and  N_25
REMARK    7  A    between atoms: C_16  and  N_26
REMARK    8  A    between atoms: C_19  and  O_29
REMARK    9  A    between atoms: C_20  and  O_30
REMARK   10  A    between atoms: C_21  and  O_29
REMARK   11  A    between atoms: C_22  and  O_30
REMARK                            x       y       z     vdW  Elec       q    Type
REMARK                         _______ _______ _______ _____ _____    ______ ____
ROOT
ATOM      1  C   UNL     1       5.716  -0.825   0.000  0.00  0.00    +0.000 C 
ENDROOT
BRANCH   1   2
ATOM      2  C   UNL     1       5.001  -1.238   0.000  0.00  0.00    +0.000 C 
BRANCH   2   3
ATOM      3  C   UNL     1       4.287  -0.825   0.000  0.00  0.00    +0.000 C 
BRANCH   3   4
ATOM      4  C   UNL     1       3.572  -1.238   0.000  0.00  0.00    +0.000 C 
BRANCH   4   7
ATOM      5  C   UNL     1       2.858   0.000   0.000  0.00  0.00    +0.000 C 
ATOM      6  C   UNL     1       2.143  -1.238   0.000  0.00  0.00    +0.000 C 
ATOM      7  N   UNL     1       2.858  -0.825   0.000  0.00  0.00    +0.000 N 
ATOM      8  O   UNL     1       2.143  -2.062   0.000  0.00  0.00    +0.000 OA
BRANCH   6   9
ATOM      9  O   UNL     1       1.429  -0.825   0.000  0.00  0.00    +0.000 OA
BRANCH   9  15
ATOM     10  C   UNL     1      -1.429  -0.825   0.000  0.00  0.00    +0.000 C 
ATOM     11  C   UNL     1       0.000  -2.475   0.000  0.00  0.00    +0.000 A 
ATOM     12  C   UNL     1       0.715  -2.062   0.000  0.00  0.00    +0.000 A 
ATOM     13  C   UNL     1      -0.715  -2.062   0.000  0.00  0.00    +0.000 A 
ATOM     14  C   UNL     1       0.000  -0.825   0.000  0.00  0.00    +0.000 A 
ATOM     15  C   UNL     1       0.715  -1.238   0.000  0.00  0.00    +0.000 A 
ATOM     16  N   UNL     1      -0.715  -1.238   0.000  0.00  0.00    +0.000 N 
ENDBRANCH   9  15
ENDBRANCH   6   9
ENDBRANCH   4   7
ENDBRANCH   3   4
ENDBRANCH   2   3
ENDBRANCH   1   2
BRANCH   1  17
ATOM     17  C   UNL     1       6.430  -1.238   0.000  0.00  0.00    +0.000 C 
BRANCH  17  18
ATOM     18  C   UNL     1       7.145  -0.825   0.000  0.00  0.00    +0.000 C 
BRANCH  18  21
ATOM     19  C   UNL     1       7.859  -2.062   0.000  0.00  0.00    +0.000 C 
ATOM     20  C   UNL     1       8.574  -0.825   0.000  0.00  0.00    +0.000 C 
ATOM     21  N   UNL     1       7.859  -1.238   0.000  0.00  0.00    +0.000 N 
ATOM     22  O   UNL     1       8.574   0.000   0.000  0.00  0.00    +0.000 OA
BRANCH  20  23
ATOM     23  O   UNL     1       9.288  -1.238   0.000  0.00  0.00    +0.000 OA
BRANCH  23  29
ATOM     24  C   UNL     1      12.146  -1.238   0.000  0.00  0.00    +0.000 C 
ATOM     25  C   UNL     1      10.717   0.412   0.000  0.00  0.00    +0.000 A 
ATOM     26  C   UNL     1      10.003   0.000   0.000  0.00  0.00    +0.000 A 
ATOM     27  C   UNL     1      11.431   0.000   0.000  0.00  0.00    +0.000 A 
ATOM     28  C   UNL     1      10.717  -1.238   0.000  0.00  0.00    +0.000 A 
ATOM     29  C   UNL     1      10.003  -0.825   0.000  0.00  0.00    +0.000 A 
ATOM     30  N   UNL     1      11.431  -0.825   0.000  0.00  0.00    +0.000 N 
ENDBRANCH  23  29
ENDBRANCH  20  23
ENDBRANCH  18  21
ENDBRANCH  17  18
ENDBRANCH   1  17
TORSDOF 11
