REMARK  Name = 
REMARK  5 active torsions:
REMARK  status: ('A' for Active; 'I' for Inactive)
REMARK    1  A    between atoms: N_8  and  C_12
REMARK    2  A    between atoms: C_12  and  C_14
REMARK    3  A    between atoms: C_14  and  C_15
REMARK    4  A    between atoms: C_15  and  C_16
REMARK    5  A    between atoms: C_16  and  C_17
REMARK                            x       y       z     vdW  Elec       q    Type
REMARK                         _______ _______ _______ _____ _____    ______ ____
ROOT
ATOM      1  N   UNL     1       0.706   1.241   0.000  0.00  0.00    +0.000 N 
ATOM      2  C   UNL     1      -0.005   1.654   0.000  0.00  0.00    +0.000 A 
ATOM      3  C   UNL     1       1.424   1.656   0.000  0.00  0.00    +0.000 A 
ATOM      4  C   UNL     1       0.716   0.409   0.000  0.00  0.00    +0.000 C 
ATOM      5  N   UNL     1      -0.010   2.477   0.000  0.00  0.00    +0.000 NA
ATOM      6  O   UNL     1      -0.721   1.239   0.000  0.00  0.00    +0.000 OA
ATOM      7  C   UNL     1       1.423   2.482   0.000  0.00  0.00    +0.000 A 
ATOM      8  N   UNL     1       0.005  -0.003   0.000  0.00  0.00    +0.000 NA
ATOM      9  O   UNL     1       1.442   0.001   0.000  0.00  0.00    +0.000 OA
ATOM     10  C   UNL     1       0.707   2.892   0.000  0.00  0.00    +0.000 A 
ATOM     11  F   UNL     1       2.135   2.894   0.000  0.00  0.00    +0.000 F 
ATOM     12  O   UNL     1       0.712   3.725   0.000  0.00  0.00    +0.000 OA
ENDROOT
BRANCH   8  13
ATOM     13  C   UNL     1       0.004  -0.829   0.000  0.00  0.00    +0.000 C 
BRANCH  13  14
ATOM     14  C   UNL     1      -0.709  -1.245   0.000  0.00  0.00    +0.000 C 
BRANCH  14  15
ATOM     15  C   UNL     1      -0.710  -2.070   0.000  0.00  0.00    +0.000 C 
BRANCH  15  16
ATOM     16  C   UNL     1      -1.423  -2.487   0.000  0.00  0.00    +0.000 C 
BRANCH  16  17
ATOM     17  C   UNL     1      -1.424  -3.312   0.000  0.00  0.00    +0.000 C 
ATOM     18  C   UNL     1      -2.135  -3.725   0.000  0.00  0.00    +0.000 C 
ENDBRANCH  16  17
ENDBRANCH  15  16
ENDBRANCH  14  15
ENDBRANCH  13  14
ENDBRANCH   8  13
TORSDOF 5
