REMARK  Name = 
REMARK  7 active torsions:
REMARK  status: ('A' for Active; 'I' for Inactive)
REMARK    1  A    between atoms: C_2  and  O_14
REMARK    2  A    between atoms: C_4  and  C_8
REMARK    3  A    between atoms: C_8  and  O_10
REMARK    4  A    between atoms: O_10  and  P_12
REMARK    5  A    between atoms: O_14  and  P_15
REMARK    6  A    between atoms: P_15  and  O_18
REMARK    7  A    between atoms: O_18  and  P_21
REMARK                            x       y       z     vdW  Elec       q    Type
REMARK                         _______ _______ _______ _____ _____    ______ ____
ROOT
ATOM      1  O   UNL     1      -0.357   0.671   0.000  0.00  0.00    +0.000 OA
ATOM      2  C   UNL     1       0.310   0.186   0.000  0.00  0.00    +0.000 C 
ATOM      3  C   UNL     1       0.048  -0.620   0.000  0.00  0.00    +0.000 C 
ATOM      4  C   UNL     1      -1.024   0.186   0.000  0.00  0.00    +0.000 C 
ATOM      5  C   UNL     1      -0.776  -0.620   0.000  0.00  0.00    +0.000 C 
ATOM      6  O   UNL     1       0.540  -1.266   0.000  0.00  0.00    +0.000 OA
ATOM      7  O   UNL     1      -1.254  -1.266   0.000  0.00  0.00    +0.000 OA
ENDROOT
BRANCH   4   8
ATOM      8  C   UNL     1      -1.809   0.441   0.000  0.00  0.00    +0.000 C 
BRANCH   8   9
ATOM      9  O   UNL     1      -2.524   0.029   0.000  0.00  0.00    +0.000 OA
BRANCH   9  12
ATOM     10  O   UNL     1      -3.238   1.266   0.000  0.00  0.00    +0.000 OA
ATOM     11  O   UNL     1      -3.953   0.029   0.000  0.00  0.00    +0.000 OA
ATOM     12  P   UNL     1      -3.238   0.441   0.000  0.00  0.00    +0.000 P 
ATOM     13  O   UNL     1      -3.238  -0.384   0.000  0.00  0.00    +0.000 OA
ENDBRANCH   9  12
ENDBRANCH   8   9
ENDBRANCH   4   8
BRANCH   2  14
ATOM     14  O   UNL     1       1.095   0.441   0.000  0.00  0.00    +0.000 OA
BRANCH  14  15
ATOM     15  P   UNL     1       1.809   0.029   0.000  0.00  0.00    +0.000 P 
ATOM     16  O   UNL     1       1.809  -0.796   0.000  0.00  0.00    +0.000 OA
ATOM     17  O   UNL     1       1.809   0.854   0.000  0.00  0.00    +0.000 OA
BRANCH  15  18
ATOM     18  O   UNL     1       2.524   0.441   0.000  0.00  0.00    +0.000 OA
BRANCH  18  21
ATOM     19  O   UNL     1       3.238  -0.796   0.000  0.00  0.00    +0.000 OA
ATOM     20  O   UNL     1       3.953   0.441   0.000  0.00  0.00    +0.000 OA
ATOM     21  P   UNL     1       3.238   0.029   0.000  0.00  0.00    +0.000 P 
ATOM     22  O   UNL     1       3.238   0.854   0.000  0.00  0.00    +0.000 OA
ENDBRANCH  18  21
ENDBRANCH  15  18
ENDBRANCH  14  15
ENDBRANCH   2  14
TORSDOF 7
