REMARK  Name = 
REMARK  15 active torsions:
REMARK  status: ('A' for Active; 'I' for Inactive)
REMARK    1  A    between atoms: C_3  and  N_50
REMARK    2  A    between atoms: C_6  and  C_7
REMARK    3  A    between atoms: N_9  and  C_10
REMARK    4  A    between atoms: N_9  and  C_41
REMARK    5  A    between atoms: C_10  and  C_11
REMARK    6  A    between atoms: C_11  and  N_12
REMARK    7  A    between atoms: N_12  and  C_13
REMARK    8  A    between atoms: C_13  and  N_15
REMARK    9  A    between atoms: N_15  and  C_16
REMARK   10  A    between atoms: C_41  and  C_42
REMARK   11  A    between atoms: C_41  and  C_47
REMARK   12  A    between atoms: C_42  and  C_43
REMARK   13  A    between atoms: C_43  and  C_44
REMARK   14  A    between atoms: N_50  and  C_51
REMARK   15  A    between atoms: C_51  and  C_52
REMARK                            x       y       z     vdW  Elec       q    Type
REMARK                         _______ _______ _______ _____ _____    ______ ____
ROOT
ATOM      1  C   UNL     1      -1.554   1.494   0.000  0.00  0.00    +0.000 C 
ATOM      2  O   UNL     1      -1.966   2.208   0.000  0.00  0.00    +0.000 OA
ATOM      3  N   UNL     1      -1.966   0.779   0.000  0.00  0.00    +0.000 N 
ENDROOT
BRANCH   1   9
ATOM      4  C   UNL     1      -0.316   2.208   0.000  0.00  0.00    +0.000 A 
ATOM      5  C   UNL     1       0.509   2.208   0.000  0.00  0.00    +0.000 A 
ATOM      6  C   UNL     1       0.921   1.494   0.000  0.00  0.00    +0.000 A 
ATOM      7  C   UNL     1       0.509   0.779   0.000  0.00  0.00    +0.000 A 
ATOM      8  C   UNL     1      -0.316   0.779   0.000  0.00  0.00    +0.000 A 
ATOM      9  C   UNL     1      -0.729   1.494   0.000  0.00  0.00    +0.000 A 
BRANCH   6  10
ATOM     10  N   UNL     1       1.746   1.494   0.000  0.00  0.00    +0.000 NA
BRANCH  10  11
ATOM     11  C   UNL     1       2.159   2.208   0.000  0.00  0.00    +0.000 C 
BRANCH  11  12
ATOM     12  C   UNL     1       2.984   2.208   0.000  0.00  0.00    +0.000 A 
ATOM     13  C   UNL     1       3.396   1.494   0.000  0.00  0.00    +0.000 A 
ATOM     14  N   UNL     1       4.221   1.494   0.000  0.00  0.00    +0.000 NA
ATOM     15  C   UNL     1       4.634   2.208   0.000  0.00  0.00    +0.000 A 
ATOM     16  C   UNL     1       4.221   2.923   0.000  0.00  0.00    +0.000 A 
ATOM     17  N   UNL     1       3.396   2.923   0.000  0.00  0.00    +0.000 NA
ATOM     18  C   UNL     1       4.634   3.637   0.000  0.00  0.00    +0.000 A 
ATOM     19  O   UNL     1       4.221   4.352   0.000  0.00  0.00    +0.000 OA
ATOM     20  N   UNL     1       5.459   3.637   0.000  0.00  0.00    +0.000 NA
ATOM     21  C   UNL     1       5.871   2.923   0.000  0.00  0.00    +0.000 A 
ATOM     22  N   UNL     1       5.459   2.208   0.000  0.00  0.00    +0.000 NA
ATOM     23  N   UNL     1       6.696   2.923   0.000  0.00  0.00    +0.000 NA
ENDBRANCH  11  12
ENDBRANCH  10  11
ENDBRANCH   6  10
ENDBRANCH   1   9
BRANCH   3  24
ATOM     24  C   UNL     1      -2.791   0.779   0.000  0.00  0.00    +0.000 C 
BRANCH  24  25
ATOM     25  C   UNL     1      -3.204   0.065   0.000  0.00  0.00    +0.000 C 
BRANCH  25  26
ATOM     26  N   UNL     1      -4.029   0.065   0.000  0.00  0.00    +0.000 NA
BRANCH  26  27
ATOM     27  C   UNL     1      -4.441  -0.649   0.000  0.00  0.00    +0.000 C 
ATOM     28  S   UNL     1      -4.029  -1.364   0.000  0.00  0.00    +0.000 S 
BRANCH  27  29
ATOM     29  N   UNL     1      -5.266  -0.649   0.000  0.00  0.00    +0.000 NA
BRANCH  29  30
ATOM     30  C   UNL     1      -5.679  -1.364   0.000  0.00  0.00    +0.000 A 
ATOM     31  C   UNL     1      -6.504  -1.364   0.000  0.00  0.00    +0.000 A 
ATOM     32  C   UNL     1      -6.916  -2.079   0.000  0.00  0.00    +0.000 A 
ATOM     33  C   UNL     1      -6.504  -2.793   0.000  0.00  0.00    +0.000 A 
ATOM     34  C   UNL     1      -5.679  -2.793   0.000  0.00  0.00    +0.000 A 
ATOM     35  C   UNL     1      -5.266  -2.079   0.000  0.00  0.00    +0.000 A 
ATOM     36  C   UNL     1      -5.424  -3.578   0.000  0.00  0.00    +0.000 C 
ATOM     37  O   UNL     1      -4.639  -3.833   0.000  0.00  0.00    +0.000 OA
ATOM     38  O   UNL     1      -6.091  -4.062   0.000  0.00  0.00    +0.000 OA
ATOM     39  C   UNL     1      -6.758  -3.578   0.000  0.00  0.00    +0.000 C 
ATOM     40  C   UNL     1      -7.372  -3.026   0.000  0.00  0.00    +0.000 A 
ATOM     41  C   UNL     1      -7.200  -2.219   0.000  0.00  0.00    +0.000 A 
ATOM     42  C   UNL     1      -7.813  -1.667   0.000  0.00  0.00    +0.000 A 
ATOM     43  C   UNL     1      -8.598  -1.921   0.000  0.00  0.00    +0.000 A 
ATOM     44  C   UNL     1      -8.769  -2.728   0.000  0.00  0.00    +0.000 A 
ATOM     45  C   UNL     1      -8.156  -3.280   0.000  0.00  0.00    +0.000 A 
ATOM     46  O   UNL     1      -8.328  -4.088   0.000  0.00  0.00    +0.000 OA
ATOM     47  C   UNL     1      -7.715  -4.639   0.000  0.00  0.00    +0.000 A 
ATOM     48  C   UNL     1      -6.930  -4.385   0.000  0.00  0.00    +0.000 A 
ATOM     49  C   UNL     1      -6.317  -4.937   0.000  0.00  0.00    +0.000 A 
ATOM     50  C   UNL     1      -6.489  -5.744   0.000  0.00  0.00    +0.000 A 
ATOM     51  C   UNL     1      -7.273  -5.998   0.000  0.00  0.00    +0.000 A 
ATOM     52  C   UNL     1      -7.886  -5.447   0.000  0.00  0.00    +0.000 A 
ATOM     53  O   UNL     1      -7.445  -6.806   0.000  0.00  0.00    +0.000 OA
ATOM     54  O   UNL     1      -9.211  -1.369   0.000  0.00  0.00    +0.000 OA
ENDBRANCH  29  30
ENDBRANCH  27  29
ENDBRANCH  26  27
ENDBRANCH  25  26
ENDBRANCH  24  25
ENDBRANCH   3  24
BRANCH   3  55
ATOM     55  C   UNL     1      -1.554   0.065   0.000  0.00  0.00    +0.000 C 
BRANCH  55  56
ATOM     56  C   UNL     1      -1.966  -0.649   0.000  0.00  0.00    +0.000 C 
ATOM     57  O   UNL     1      -1.554  -1.364   0.000  0.00  0.00    +0.000 OA
ATOM     58  O   UNL     1      -2.791  -0.649   0.000  0.00  0.00    +0.000 OA
ENDBRANCH  55  56
BRANCH  55  59
ATOM     59  C   UNL     1      -0.729   0.065   0.000  0.00  0.00    +0.000 C 
BRANCH  59  60
ATOM     60  C   UNL     1      -0.316  -0.649   0.000  0.00  0.00    +0.000 C 
BRANCH  60  61
ATOM     61  C   UNL     1       0.509  -0.649   0.000  0.00  0.00    +0.000 C 
ATOM     62  O   UNL     1       0.921   0.065   0.000  0.00  0.00    +0.000 OA
ATOM     63  N   UNL     1       0.921  -1.364   0.000  0.00  0.00    +0.000 NA
ENDBRANCH  60  61
ENDBRANCH  59  60
ENDBRANCH  55  59
ENDBRANCH   3  55
TORSDOF 15
