REMARK  Name = 
REMARK  0 active torsions:
REMARK  status: ('A' for Active; 'I' for Inactive)
REMARK                            x       y       z     vdW  Elec       q    Type
REMARK                         _______ _______ _______ _____ _____    ______ ____
ROOT
ATOM      1 FE   UNL     1      -0.033   0.192   0.000  0.00  0.00    +0.000 Fe
ATOM      2 CL   UNL     1       0.380   0.907   0.000  0.00  0.00    +0.000 Cl
ATOM      3 CL   UNL     1       0.380  -0.522   0.000  0.00  0.00    +0.000 Cl
ATOM      4 CL   UNL     1      -0.858   0.192   0.000  0.00  0.00    +0.000 Cl
ENDROOT
TORSDOF 0
