REMARK  Name = 
REMARK  17 active torsions:
REMARK  status: ('A' for Active; 'I' for Inactive)
REMARK    1  A    between atoms: P_2  and  O_5
REMARK    2  A    between atoms: O_5  and  C_13
REMARK    3  A    between atoms: O_6  and  P_7
REMARK    4  A    between atoms: O_6  and  P_19
REMARK    5  A    between atoms: P_7  and  O_8
REMARK    6  A    between atoms: O_8  and  C_32
REMARK    7  A    between atoms: C_14  and  N_26
REMARK    8  A    between atoms: C_16  and  C_17
REMARK    9  A    between atoms: C_17  and  O_18
REMARK   10  A    between atoms: O_18  and  P_19
REMARK   11  A    between atoms: C_32  and  C_33
REMARK   12  A    between atoms: C_33  and  C_36
REMARK   13  A    between atoms: C_36  and  C_37
REMARK   14  A    between atoms: N_38  and  C_39
REMARK   15  A    between atoms: C_39  and  C_40
REMARK   16  A    between atoms: C_40  and  C_41
REMARK   17  A    between atoms: N_42  and  C_43
REMARK                            x       y       z     vdW  Elec       q    Type
REMARK                         _______ _______ _______ _____ _____    ______ ____
ROOT
ATOM      1  P   UNL     1       1.559   0.647   0.000  0.00  0.00    +0.000 P 
ATOM      2  O   UNL     1       1.137   1.331   0.000  0.00  0.00    +0.000 OA
ATOM      3  O   UNL     1       2.147   1.214   0.000  0.00  0.00    +0.000 OA
ENDROOT
BRANCH   1   4
ATOM      4  O   UNL     1       2.255   0.209   0.000  0.00  0.00    +0.000 OA
BRANCH   4   5
ATOM      5  C   UNL     1       2.960   0.647   0.000  0.00  0.00    +0.000 C 
BRANCH   5  11
ATOM      6  C   UNL     1       4.772  -0.578   0.000  0.00  0.00    +0.000 C 
ATOM      7  O   UNL     1       5.295  -1.183   0.000  0.00  0.00    +0.000 OA
ATOM      8  C   UNL     1       3.934  -0.578   0.000  0.00  0.00    +0.000 C 
ATOM      9  C   UNL     1       5.012   0.209   0.000  0.00  0.00    +0.000 C 
ATOM     10  O   UNL     1       4.349   0.698   0.000  0.00  0.00    +0.000 OA
ATOM     11  C   UNL     1       3.686   0.209   0.000  0.00  0.00    +0.000 C 
BRANCH   9  18
ATOM     12  N   UNL     1       7.761   0.208   0.000  0.00  0.00    +0.000 NA
ATOM     13  C   UNL     1       7.762   1.804   0.000  0.00  0.00    +0.000 A 
ATOM     14  N   UNL     1       8.431   1.388   0.000  0.00  0.00    +0.000 NA
ATOM     15  C   UNL     1       8.433   0.602   0.000  0.00  0.00    +0.000 A 
ATOM     16  C   UNL     1       7.055   1.389   0.000  0.00  0.00    +0.000 A 
ATOM     17  C   UNL     1       7.059   0.601   0.000  0.00  0.00    +0.000 A 
ATOM     18  N   UNL     1       5.712   0.602   0.000  0.00  0.00    +0.000 N 
ATOM     19  C   UNL     1       5.712   1.385   0.000  0.00  0.00    +0.000 A 
ATOM     20  N   UNL     1       6.398   1.794   0.000  0.00  0.00    +0.000 NA
ATOM     21  N   UNL     1       7.764   2.603   0.000  0.00  0.00    +0.000 NA
ENDBRANCH   9  18
BRANCH   8  22
ATOM     22  O   UNL     1       3.337  -1.163   0.000  0.00  0.00    +0.000 OA
BRANCH  22  24
ATOM     23  O   UNL     1       4.487  -1.470   0.000  0.00  0.00    +0.000 OA
ATOM     24  P   UNL     1       3.813  -1.884   0.000  0.00  0.00    +0.000 P 
ATOM     25  O   UNL     1       4.232  -2.603   0.000  0.00  0.00    +0.000 OA
ATOM     26  O   UNL     1       3.074  -2.321   0.000  0.00  0.00    +0.000 OA
ENDBRANCH  22  24
ENDBRANCH   8  22
ENDBRANCH   5  11
ENDBRANCH   4   5
ENDBRANCH   1   4
BRANCH   1  27
ATOM     27  O   UNL     1       0.854   0.209   0.000  0.00  0.00    +0.000 OA
BRANCH  27  28
ATOM     28  P   UNL     1       0.153   0.647   0.000  0.00  0.00    +0.000 P 
ATOM     29  O   UNL     1      -0.475   1.182   0.000  0.00  0.00    +0.000 OA
ATOM     30  O   UNL     1       0.430   1.399   0.000  0.00  0.00    +0.000 OA
BRANCH  28  31
ATOM     31  O   UNL     1      -0.568   0.209   0.000  0.00  0.00    +0.000 OA
BRANCH  31  32
ATOM     32  C   UNL     1      -1.252   0.647   0.000  0.00  0.00    +0.000 C 
BRANCH  32  33
ATOM     33  C   UNL     1      -1.974   0.209   0.000  0.00  0.00    +0.000 C 
ATOM     34  C   UNL     1      -2.395  -0.512   0.000  0.00  0.00    +0.000 C 
ATOM     35  C   UNL     1      -1.598  -0.512   0.000  0.00  0.00    +0.000 C 
BRANCH  33  36
ATOM     36  C   UNL     1      -2.712   0.647   0.000  0.00  0.00    +0.000 C 
ATOM     37  O   UNL     1      -2.712   1.469   0.000  0.00  0.00    +0.000 OA
BRANCH  36  38
ATOM     38  C   UNL     1      -3.433   0.209   0.000  0.00  0.00    +0.000 C 
ATOM     39  N   UNL     1      -4.117   0.647   0.000  0.00  0.00    +0.000 NA
ATOM     40  O   UNL     1      -3.416  -0.591   0.000  0.00  0.00    +0.000 OA
BRANCH  39  41
ATOM     41  C   UNL     1      -4.843   0.209   0.000  0.00  0.00    +0.000 C 
BRANCH  41  42
ATOM     42  C   UNL     1      -5.564   0.647   0.000  0.00  0.00    +0.000 C 
BRANCH  42  43
ATOM     43  C   UNL     1      -6.302   0.226   0.000  0.00  0.00    +0.000 C 
ATOM     44  N   UNL     1      -7.003   0.647   0.000  0.00  0.00    +0.000 NA
ATOM     45  O   UNL     1      -6.269  -0.591   0.000  0.00  0.00    +0.000 OA
BRANCH  44  46
ATOM     46  C   UNL     1      -7.734   0.285   0.000  0.00  0.00    +0.000 C 
ATOM     47  C   UNL     1      -8.433   0.699   0.000  0.00  0.00    +0.000 C 
ENDBRANCH  44  46
ENDBRANCH  42  43
ENDBRANCH  41  42
ENDBRANCH  39  41
ENDBRANCH  36  38
ENDBRANCH  33  36
ENDBRANCH  32  33
ENDBRANCH  31  32
ENDBRANCH  28  31
ENDBRANCH  27  28
ENDBRANCH   1  27
TORSDOF 17
