REMARK  Name = 
REMARK  2 active torsions:
REMARK  status: ('A' for Active; 'I' for Inactive)
REMARK    1  A    between atoms: CA_5  and  C_7
REMARK    2  A    between atoms: CA_14  and  C_16
REMARK                            x       y       z     vdW  Elec       q    Type
REMARK                         _______ _______ _______ _____ _____    ______ ____
ROOT
ATOM      1  CG  LYS A   1       0.857  -1.237   0.000  0.00  0.00    +0.000 A 
ATOM      2  CD  LYS A   1       0.143  -1.650   0.000  0.00  0.00    +0.000 A 
ATOM      3  CE  LYS A   1      -0.572  -1.237   0.000  0.00  0.00    +0.000 A 
ATOM      4  N   LYS A   1      -0.572  -0.412   0.000  0.00  0.00    +0.000 NA
ATOM      5  CA  LYS A   1       0.143   0.000   0.000  0.00  0.00    +0.000 A 
ATOM      6  CB  LYS A   1       0.857  -0.412   0.000  0.00  0.00    +0.000 A 
ENDROOT
BRANCH   5   7
ATOM      7  C   LYS A   1       0.143   0.825   0.000  0.00  0.00    +0.000 C 
ATOM      8  O   LYS A   1       0.857   1.237   0.000  0.00  0.00    +0.000 OA
ATOM      9  OXT LYS A   1      -0.572   1.237   0.000  0.00  0.00    +0.000 OA
ENDBRANCH   5   7
TORSDOF 1
REMARK  Name = 
REMARK  2 active torsions:
REMARK  status: ('A' for Active; 'I' for Inactive)
REMARK    1  A    between atoms: CA_5  and  C_7
REMARK    2  A    between atoms: CA_14  and  C_16
REMARK                            x       y       z     vdW  Elec       q    Type
REMARK                         _______ _______ _______ _____ _____    ______ ____
ROOT
ATOM      1  CG  LYS A   1       3.949  -1.255   0.000  0.00  0.00    +0.000 A 
ATOM      2  CD  LYS A   1       3.234  -1.667   0.000  0.00  0.00    +0.000 A 
ATOM      3  CE  LYS A   1       2.520  -1.255   0.000  0.00  0.00    +0.000 A 
ATOM      4  N   LYS A   1       2.520  -0.430   0.000  0.00  0.00    +0.000 NA
ATOM      5  CA  LYS A   1       3.234  -0.018   0.000  0.00  0.00    +0.000 A 
ATOM      6  CB  LYS A   1       3.949  -0.430   0.000  0.00  0.00    +0.000 A 
ENDROOT
BRANCH   5   7
ATOM      7  C   LYS A   1       3.234   0.807   0.000  0.00  0.00    +0.000 C 
ATOM      8  O   LYS A   1       2.520   1.220   0.000  0.00  0.00    +0.000 OA
ATOM      9  OXT LYS A   1       3.949   1.220   0.000  0.00  0.00    +0.000 OA
ENDBRANCH   5   7
TORSDOF 1
REMARK  Name = 
REMARK  2 active torsions:
REMARK  status: ('A' for Active; 'I' for Inactive)
REMARK    1  A    between atoms: CA_5  and  C_7
REMARK    2  A    between atoms: CA_14  and  C_16
REMARK                            x       y       z     vdW  Elec       q    Type
REMARK                         _______ _______ _______ _____ _____    ______ ____
ROOT
ATOM      1 ZN   UNL     1      -1.308   2.052   0.000  0.00  0.00    +0.000 Zn
ENDROOT
TORSDOF 0
