REMARK  Name = 
REMARK  7 active torsions:
REMARK  status: ('A' for Active; 'I' for Inactive)
REMARK    1  A    between atoms: C_6  and  C_8
REMARK    2  A    between atoms: N_9  and  N_10
REMARK    3  A    between atoms: N_10  and  C_11
REMARK    4  A    between atoms: C_15  and  O_17
REMARK    5  A    between atoms: O_17  and  C_18
REMARK    6  A    between atoms: C_18  and  C_19
REMARK    7  A    between atoms: C_19  and  C_20
REMARK                            x       y       z     vdW  Elec       q    Type
REMARK                         _______ _______ _______ _____ _____    ______ ____
ROOT
ATOM      1  C   UNL     1      -5.716  -2.475   0.000  0.00  0.00    +0.000 A 
ATOM      2  C   UNL     1      -5.001  -2.888   0.000  0.00  0.00    +0.000 A 
ATOM      3  C   UNL     1      -5.001  -3.712   0.000  0.00  0.00    +0.000 A 
ATOM      4  N   UNL     1      -5.716  -4.125   0.000  0.00  0.00    +0.000 NA
ATOM      5  C   UNL     1      -6.430  -3.712   0.000  0.00  0.00    +0.000 A 
ATOM      6  N   UNL     1      -6.430  -2.888   0.000  0.00  0.00    +0.000 NA
ATOM      7  N   UNL     1      -4.287  -4.125   0.000  0.00  0.00    +0.000 N 
ATOM      8  C   UNL     1      -3.572  -3.712   0.000  0.00  0.00    +0.000 C 
ATOM      9  C   UNL     1      -2.858  -4.125   0.000  0.00  0.00    +0.000 C 
ATOM     10  O   UNL     1      -2.858  -4.950   0.000  0.00  0.00    +0.000 OA
ATOM     11  C   UNL     1      -3.572  -5.362   0.000  0.00  0.00    +0.000 C 
ATOM     12  C   UNL     1      -4.287  -4.950   0.000  0.00  0.00    +0.000 C 
ENDROOT
BRANCH   1  13
ATOM     13  N   UNL     1      -5.716  -1.650   0.000  0.00  0.00    +0.000 NA
BRANCH  13  15
ATOM     14  C   UNL     1      -4.287  -1.650   0.000  0.00  0.00    +0.000 C 
ATOM     15  N   UNL     1      -5.001  -1.238   0.000  0.00  0.00    +0.000 NA
BRANCH  14  21
ATOM     16  C   UNL     1      -2.858   0.825   0.000  0.00  0.00    +0.000 C 
ATOM     17  C   UNL     1      -2.858   0.000   0.000  0.00  0.00    +0.000 A 
ATOM     18  C   UNL     1      -2.143  -0.412   0.000  0.00  0.00    +0.000 A 
ATOM     19  C   UNL     1      -2.143  -1.238   0.000  0.00  0.00    +0.000 A 
ATOM     20  C   UNL     1      -2.858  -1.650   0.000  0.00  0.00    +0.000 A 
ATOM     21  C   UNL     1      -3.572  -1.238   0.000  0.00  0.00    +0.000 A 
ATOM     22  C   UNL     1      -3.572  -0.412   0.000  0.00  0.00    +0.000 A 
ENDBRANCH  14  21
ENDBRANCH  13  15
ENDBRANCH   1  13
BRANCH   5  23
ATOM     23  O   UNL     1      -7.145  -4.125   0.000  0.00  0.00    +0.000 OA
BRANCH  23  24
ATOM     24  C   UNL     1      -7.859  -3.712   0.000  0.00  0.00    +0.000 C 
BRANCH  24  25
ATOM     25  C   UNL     1      -8.574  -4.125   0.000  0.00  0.00    +0.000 C 
BRANCH  25  26
ATOM     26  C   UNL     1      -9.288  -3.712   0.000  0.00  0.00    +0.000 A 
ATOM     27  C   UNL     1     -10.003  -4.125   0.000  0.00  0.00    +0.000 A 
ATOM     28  C   UNL     1     -10.717  -3.712   0.000  0.00  0.00    +0.000 A 
ATOM     29  C   UNL     1     -10.717  -2.888   0.000  0.00  0.00    +0.000 A 
ATOM     30  C   UNL     1     -10.003  -2.475   0.000  0.00  0.00    +0.000 A 
ATOM     31  N   UNL     1      -9.288  -2.888   0.000  0.00  0.00    +0.000 NA
ENDBRANCH  25  26
ENDBRANCH  24  25
ENDBRANCH  23  24
ENDBRANCH   5  23
TORSDOF 7
