REMARK  Name = 
REMARK  2 active torsions:
REMARK  status: ('A' for Active; 'I' for Inactive)
REMARK    1  A    between atoms: N_1  and  C_2
REMARK    2  A    between atoms: C_2  and  C_3
REMARK                            x       y       z     vdW  Elec       q    Type
REMARK                         _______ _______ _______ _____ _____    ______ ____
ROOT
ATOM      1  N   UNL     1      -0.714   0.000   0.000  0.00  0.00    +0.000 N 
ATOM      2  C   UNL     1      -1.088  -0.735   0.000  0.00  0.00    +0.000 C 
ATOM      3  C   UNL     1      -0.339   0.735   0.000  0.00  0.00    +0.000 C 
ATOM      4  C   UNL     1      -1.449   0.374   0.000  0.00  0.00    +0.000 C 
ENDROOT
BRANCH   1   5
ATOM      5  C   UNL     1       0.022  -0.374   0.000  0.00  0.00    +0.000 C 
BRANCH   5   6
ATOM      6  C   UNL     1       0.714   0.075   0.000  0.00  0.00    +0.000 C 
ATOM      7  F   UNL     1       1.449  -0.300   0.000  0.00  0.00    +0.000 F 
ENDBRANCH   5   6
ENDBRANCH   1   5
TORSDOF 2
