REMARK  Name = 
REMARK  4 active torsions:
REMARK  status: ('A' for Active; 'I' for Inactive)
REMARK    1  A    between atoms: C_4  and  C_7
REMARK    2  A    between atoms: C_15  and  S_16
REMARK    3  A    between atoms: S_16  and  N_19
REMARK    4  A    between atoms: C_25  and  C_28
REMARK                            x       y       z     vdW  Elec       q    Type
REMARK                         _______ _______ _______ _____ _____    ______ ____
ROOT
ATOM      1  S   UNL     1       0.884  -2.150   0.000  0.00  0.00    +0.000 S 
ATOM      2  O   UNL     1       1.668  -2.405   0.000  0.00  0.00    +0.000 OA
ATOM      3  O   UNL     1       0.099  -1.895   0.000  0.00  0.00    +0.000 OA
ENDROOT
BRANCH   1  12
ATOM      4  C   UNL     1      -1.585  -3.190   0.000  0.00  0.00    +0.000 A 
ATOM      5  C   UNL     1      -0.870  -2.777   0.000  0.00  0.00    +0.000 A 
ATOM      6  N   UNL     1      -0.156  -3.190   0.000  0.00  0.00    +0.000 N 
ATOM      7  C   UNL     1      -0.156  -4.015   0.000  0.00  0.00    +0.000 A 
ATOM      8  C   UNL     1      -0.870  -4.427   0.000  0.00  0.00    +0.000 A 
ATOM      9  C   UNL     1      -1.585  -4.015   0.000  0.00  0.00    +0.000 A 
ATOM     10  N   UNL     1       0.629  -4.269   0.000  0.00  0.00    +0.000 NA
ATOM     11  C   UNL     1       1.114  -3.602   0.000  0.00  0.00    +0.000 A 
ATOM     12  C   UNL     1       0.629  -2.935   0.000  0.00  0.00    +0.000 A 
BRANCH   4  16
ATOM     13  C   UNL     1      -3.528  -1.031   0.000  0.00  0.00    +0.000 C 
ATOM     14  N   UNL     1      -3.192  -1.785   0.000  0.00  0.00    +0.000 N 
ATOM     15  C   UNL     1      -2.385  -1.957   0.000  0.00  0.00    +0.000 A 
ATOM     16  C   UNL     1      -2.299  -2.777   0.000  0.00  0.00    +0.000 A 
ATOM     17  C   UNL     1      -3.053  -3.113   0.000  0.00  0.00    +0.000 A 
ATOM     18  N   UNL     1      -3.605  -2.499   0.000  0.00  0.00    +0.000 NA
ENDBRANCH   4  16
ENDBRANCH   1  12
BRANCH   1  19
ATOM     19  N   UNL     1       1.139  -1.365   0.000  0.00  0.00    +0.000 N 
ATOM     20  N   UNL     1       0.654  -0.698   0.000  0.00  0.00    +0.000 NA
ATOM     21  C   UNL     1       1.139  -0.030   0.000  0.00  0.00    +0.000 A 
ATOM     22  C   UNL     1       1.923  -0.285   0.000  0.00  0.00    +0.000 A 
ATOM     23  N   UNL     1       2.638   0.127   0.000  0.00  0.00    +0.000 NA
ATOM     24  C   UNL     1       3.352  -0.285   0.000  0.00  0.00    +0.000 A 
ATOM     25  C   UNL     1       3.352  -1.110   0.000  0.00  0.00    +0.000 A 
ATOM     26  C   UNL     1       2.638  -1.523   0.000  0.00  0.00    +0.000 A 
ATOM     27  C   UNL     1       1.923  -1.110   0.000  0.00  0.00    +0.000 A 
BRANCH  25  28
ATOM     28  C   UNL     1       4.067  -1.523   0.000  0.00  0.00    +0.000 A 
ATOM     29  C   UNL     1       4.820  -1.187   0.000  0.00  0.00    +0.000 A 
ATOM     30  N   UNL     1       5.372  -1.800   0.000  0.00  0.00    +0.000 N 
ATOM     31  C   UNL     1       6.193  -1.714   0.000  0.00  0.00    +0.000 C 
ATOM     32  N   UNL     1       4.960  -2.515   0.000  0.00  0.00    +0.000 NA
ATOM     33  C   UNL     1       4.153  -2.343   0.000  0.00  0.00    +0.000 A 
ENDBRANCH  25  28
ENDBRANCH   1  19
TORSDOF 4
