REMARK  Name = 
REMARK  5 active torsions:
REMARK  status: ('A' for Active; 'I' for Inactive)
REMARK    1  A    between atoms: C_1  and  C_2
REMARK    2  A    between atoms: C_1  and  C_4
REMARK    3  A    between atoms: C_1  and  C_5
REMARK    4  A    between atoms: C_2  and  C_3
REMARK    5  A    between atoms: C_5  and  C_6
REMARK                            x       y       z     vdW  Elec       q    Type
REMARK                         _______ _______ _______ _____ _____    ______ ____
ROOT
ATOM      1  C   UNL     1      -0.048  -0.546   0.000  0.00  0.00    +0.000 C 
ATOM      2  O   UNL     1      -0.048  -1.371   0.000  0.00  0.00    +0.000 OA
ENDROOT
BRANCH   1   3
ATOM      3  C   UNL     1      -0.048   0.279   0.000  0.00  0.00    +0.000 C 
ATOM      4  O   UNL     1      -0.763   0.691   0.000  0.00  0.00    +0.000 OA
ATOM      5  O   UNL     1       0.666   0.691   0.000  0.00  0.00    +0.000 OA
ENDBRANCH   1   3
BRANCH   1   6
ATOM      6  C   UNL     1      -0.763  -0.959   0.000  0.00  0.00    +0.000 C 
BRANCH   6   7
ATOM      7  C   UNL     1      -1.477  -0.546   0.000  0.00  0.00    +0.000 C 
ATOM      8  O   UNL     1      -1.477   0.279   0.000  0.00  0.00    +0.000 OA
ATOM      9  O   UNL     1      -2.192  -0.959   0.000  0.00  0.00    +0.000 OA
ENDBRANCH   6   7
ENDBRANCH   1   6
BRANCH   1  10
ATOM     10  C   UNL     1       0.666  -0.959   0.000  0.00  0.00    +0.000 C 
BRANCH  10  11
ATOM     11  C   UNL     1       1.381  -0.546   0.000  0.00  0.00    +0.000 C 
ATOM     12  O   UNL     1       1.381   0.279   0.000  0.00  0.00    +0.000 OA
ATOM     13  O   UNL     1       2.095  -0.959   0.000  0.00  0.00    +0.000 OA
ENDBRANCH  10  11
ENDBRANCH   1  10
TORSDOF 5
REMARK  Name = 
REMARK  5 active torsions:
REMARK  status: ('A' for Active; 'I' for Inactive)
REMARK    1  A    between atoms: C_1  and  C_2
REMARK    2  A    between atoms: C_1  and  C_4
REMARK    3  A    between atoms: C_1  and  C_5
REMARK    4  A    between atoms: C_2  and  C_3
REMARK    5  A    between atoms: C_5  and  C_6
REMARK                            x       y       z     vdW  Elec       q    Type
REMARK                         _______ _______ _______ _____ _____    ______ ____
ROOT
ATOM      1 LI   UNL     1       2.624   0.141   0.000  0.00  0.00    +0.000 Li
ENDROOT
TORSDOF 0
REMARK  Name = 
REMARK  5 active torsions:
REMARK  status: ('A' for Active; 'I' for Inactive)
REMARK    1  A    between atoms: C_1  and  C_2
REMARK    2  A    between atoms: C_1  and  C_4
REMARK    3  A    between atoms: C_1  and  C_5
REMARK    4  A    between atoms: C_2  and  C_3
REMARK    5  A    between atoms: C_5  and  C_6
REMARK                            x       y       z     vdW  Elec       q    Type
REMARK                         _______ _______ _______ _____ _____    ______ ____
ROOT
ATOM      1 LI   UNL     1       0.009   1.371   0.000  0.00  0.00    +0.000 Li
ENDROOT
TORSDOF 0
REMARK  Name = 
REMARK  5 active torsions:
REMARK  status: ('A' for Active; 'I' for Inactive)
REMARK    1  A    between atoms: C_1  and  C_2
REMARK    2  A    between atoms: C_1  and  C_4
REMARK    3  A    between atoms: C_1  and  C_5
REMARK    4  A    between atoms: C_2  and  C_3
REMARK    5  A    between atoms: C_5  and  C_6
REMARK                            x       y       z     vdW  Elec       q    Type
REMARK                         _______ _______ _______ _____ _____    ______ ____
ROOT
ATOM      1 LI   UNL     1      -2.624   0.145   0.000  0.00  0.00    +0.000 Li
ENDROOT
TORSDOF 0
