REMARK  Name = 
REMARK  6 active torsions:
REMARK  status: ('A' for Active; 'I' for Inactive)
REMARK    1  A    between atoms: C_1  and  C_7
REMARK    2  A    between atoms: C_2  and  C_10
REMARK    3  A    between atoms: C_3  and  C_11
REMARK    4  A    between atoms: C_8  and  C_9
REMARK    5  A    between atoms: C_12  and  C_14
REMARK    6  A    between atoms: C_13  and  C_15
REMARK                            x       y       z     vdW  Elec       q    Type
REMARK                         _______ _______ _______ _____ _____    ______ ____
ROOT
ATOM      1  C   UNL     1      -0.354  -1.036   0.000  0.00  0.00    +0.000 A 
ATOM      2  C   UNL     1      -1.786  -0.996   0.000  0.00  0.00    +0.000 A 
ATOM      3  C   UNL     1      -1.073  -2.236   0.000  0.00  0.00    +0.000 A 
ATOM      4  C   UNL     1      -0.354  -1.833   0.000  0.00  0.00    +0.000 A 
ATOM      5  C   UNL     1      -1.073  -0.630   0.000  0.00  0.00    +0.000 A 
ATOM      6  C   UNL     1      -1.786  -1.833   0.000  0.00  0.00    +0.000 A 
ENDROOT
BRANCH   3   7
ATOM      7  C   UNL     1      -1.073  -3.049   0.000  0.00  0.00    +0.000 C 
ATOM      8  C   UNL     1      -1.073  -3.886   0.000  0.00  0.00    +0.000 C 
ATOM      9  C   UNL     1      -0.246  -3.049   0.000  0.00  0.00    +0.000 C 
ATOM     10  C   UNL     1      -1.870  -3.049   0.000  0.00  0.00    +0.000 C 
ENDBRANCH   3   7
BRANCH   2  11
ATOM     11  C   UNL     1      -2.486  -0.607   0.000  0.00  0.00    +0.000 C 
ATOM     12  C   UNL     1      -2.920  -1.288   0.000  0.00  0.00    +0.000 C 
ATOM     13  C   UNL     1      -3.199  -0.172   0.000  0.00  0.00    +0.000 C 
ATOM     14  C   UNL     1      -2.067   0.125   0.000  0.00  0.00    +0.000 C 
ENDBRANCH   2  11
BRANCH   1  15
ATOM     15  C   UNL     1       0.354  -0.607   0.000  0.00  0.00    +0.000 C 
ATOM     16  C   UNL     1       0.354   0.236   0.000  0.00  0.00    +0.000 C 
ATOM     17  C   UNL     1       1.230  -0.973   0.000  0.00  0.00    +0.000 C 
BRANCH  16  18
ATOM     18  C   UNL     1       1.044   0.638   0.000  0.00  0.00    +0.000 C 
ATOM     19  C   UNL     1       1.044   1.454   0.000  0.00  0.00    +0.000 C 
BRANCH  19  21
ATOM     20  C   UNL     1       1.699   2.770   0.000  0.00  0.00    +0.000 C 
ATOM     21  C   UNL     1       1.744   1.846   0.000  0.00  0.00    +0.000 C 
ATOM     22  C   UNL     1       2.631   1.367   0.000  0.00  0.00    +0.000 C 
BRANCH  20  23
ATOM     23  C   UNL     1       2.544   3.149   0.000  0.00  0.00    +0.000 C 
ATOM     24  O   UNL     1       3.199   2.557   0.000  0.00  0.00    +0.000 OA
ATOM     25  O   UNL     1       2.678   3.886   0.000  0.00  0.00    +0.000 OA
ENDBRANCH  20  23
ENDBRANCH  19  21
ENDBRANCH  16  18
ENDBRANCH   1  15
TORSDOF 6
