REMARK  Name = 
REMARK  12 active torsions:
REMARK  status: ('A' for Active; 'I' for Inactive)
REMARK    1  A    between atoms: C_1  and  C_55
REMARK    2  A    between atoms: C_7  and  C_50
REMARK    3  A    between atoms: C_14  and  C_19
REMARK    4  A    between atoms: C_19  and  C_20
REMARK    5  A    between atoms: C_20  and  C_21
REMARK    6  A    between atoms: C_24  and  C_25
REMARK    7  A    between atoms: C_25  and  C_26
REMARK    8  A    between atoms: C_26  and  O_27
REMARK    9  A    between atoms: C_38  and  C_39
REMARK   10  A    between atoms: N_40  and  C_41
REMARK   11  A    between atoms: C_41  and  C_42
REMARK   12  A    between atoms: C_42  and  S_43
REMARK                            x       y       z     vdW  Elec       q    Type
REMARK                         _______ _______ _______ _____ _____    ______ ____
ROOT
ATOM      1  C   UNL     1      -3.004  -2.064   0.000  0.00  0.00    +0.000 C 
ATOM      2  C   UNL     1      -3.543  -1.451   0.000  0.00  0.00    +0.000 C 
ATOM      3  C   UNL     1      -3.124  -0.745   0.000  0.00  0.00    +0.000 C 
ATOM      4  C   UNL     1      -3.490   0.000   0.000  0.00  0.00    +0.000 C 
ATOM      5  C   UNL     1      -3.136   0.742   0.000  0.00  0.00    +0.000 A 
ATOM      6  C   UNL     1      -3.468   1.629   0.000  0.00  0.00    +0.000 A 
ATOM      7  C   UNL     1      -2.830   2.110   0.000  0.00  0.00    +0.000 A 
ATOM      8  C   UNL     1      -2.142   1.673   0.000  0.00  0.00    +0.000 A 
ATOM      9  C   UNL     1      -1.395   2.082   0.000  0.00  0.00    +0.000 C 
ATOM     10  C   UNL     1      -0.651   1.714   0.000  0.00  0.00    +0.000 C 
ATOM     11  N   UNL     1      -0.472   0.914   0.000  0.00  0.00    +0.000 NA
ATOM     12  C   UNL     1       0.278   0.699   0.000  0.00  0.00    +0.000 C 
ATOM     13  C   UNL     1       0.670   1.578   0.000  0.00  0.00    +0.000 C 
ATOM     14  C   UNL     1       0.060   2.128   0.000  0.00  0.00    +0.000 C 
ATOM     15  C   UNL     1       0.540   2.799   0.000  0.00  0.00    +0.000 C 
ATOM     16  C   UNL     1       0.685  -0.020   0.000  0.00  0.00    +0.000 C 
ATOM     17  C   UNL     1       0.324  -0.767   0.000  0.00  0.00    +0.000 A 
ATOM     18  N   UNL     1      -0.482  -0.948   0.000  0.00  0.00    +0.000 NA
ATOM     19  C   UNL     1      -0.553  -1.773   0.000  0.00  0.00    +0.000 A 
ATOM     20  C   UNL     1      -1.385  -2.075   0.000  0.00  0.00    +0.000 C 
ATOM     21  C   UNL     1      -2.383  -1.767   0.000  0.00  0.00    +0.000 C 
ATOM     22  N   UNL     1      -2.383  -0.926   0.000  0.00  0.00    +0.000 NA
ATOM     23  C   UNL     1       0.207  -2.098   0.000  0.00  0.00    +0.000 A 
ATOM     24  C   UNL     1       0.392  -2.908   0.000  0.00  0.00    +0.000 C 
ATOM     25  C   UNL     1       0.746  -1.475   0.000  0.00  0.00    +0.000 A 
ATOM     26  N   UNL     1      -2.335   0.932   0.000  0.00  0.00    +0.000 NA
ATOM     27  C   UNL     1      -2.900   2.981   0.000  0.00  0.00    +0.000 C 
ATOM     28  C   UNL     1      -4.292  -1.103   0.000  0.00  0.00    +0.000 C 
ENDROOT
BRANCH   6  29
ATOM     29  C   UNL     1      -4.259   1.860   0.000  0.00  0.00    +0.000 C 
ATOM     30  C   UNL     1      -4.457   2.662   0.000  0.00  0.00    +0.000 C 
ATOM     31  O   UNL     1      -4.857   1.286   0.000  0.00  0.00    +0.000 OA
ENDBRANCH   6  29
BRANCH  25  32
ATOM     32  C   UNL     1       1.575  -1.546   0.000  0.00  0.00    +0.000 C 
ATOM     33  N   UNL     1       1.922  -2.299   0.000  0.00  0.00    +0.000 NA
ATOM     34  O   UNL     1       2.048  -0.871   0.000  0.00  0.00    +0.000 OA
BRANCH  33  35
ATOM     35  C   UNL     1       2.746  -2.370   0.000  0.00  0.00    +0.000 C 
BRANCH  35  36
ATOM     36  C   UNL     1       3.219  -1.694   0.000  0.00  0.00    +0.000 C 
BRANCH  36  37
ATOM     37  S   UNL     1       4.043  -1.765   0.000  0.00  0.00    +0.000 S 
ATOM     38  O   UNL     1       4.515  -1.089   0.000  0.00  0.00    +0.000 OA
ATOM     39  O   UNL     1       4.390  -2.517   0.000  0.00  0.00    +0.000 OA
ATOM     40  O   UNL     1       4.857  -1.622   0.000  0.00  0.00    +0.000 OA
ENDBRANCH  36  37
ENDBRANCH  35  36
ENDBRANCH  33  35
ENDBRANCH  25  32
BRANCH   1  41
ATOM     41  C   UNL     1      -2.774  -2.861   0.000  0.00  0.00    +0.000 C 
ATOM     42  C   UNL     1      -1.968  -3.051   0.000  0.00  0.00    +0.000 C 
ENDBRANCH   1  41
BRANCH  16  43
ATOM     43  C   UNL     1       1.508  -0.020   0.000  0.00  0.00    +0.000 C 
BRANCH  43  44
ATOM     44  C   UNL     1       1.929   0.673   0.000  0.00  0.00    +0.000 C 
ATOM     45  O   UNL     1       1.535   1.391   0.000  0.00  0.00    +0.000 OA
BRANCH  44  46
ATOM     46  O   UNL     1       2.756   0.673   0.000  0.00  0.00    +0.000 OA
ATOM     47  C   UNL     1       3.159  -0.061   0.000  0.00  0.00    +0.000 C 
ENDBRANCH  44  46
ENDBRANCH  43  44
ENDBRANCH  16  43
BRANCH  13  48
ATOM     48  C   UNL     1       1.267   2.075   0.000  0.00  0.00    +0.000 C 
BRANCH  48  49
ATOM     49  C   UNL     1       1.997   1.800   0.000  0.00  0.00    +0.000 C 
BRANCH  49  50
ATOM     50  C   UNL     1       2.590   2.293   0.000  0.00  0.00    +0.000 C 
ATOM     51  O   UNL     1       3.331   2.107   0.000  0.00  0.00    +0.000 OA
ATOM     52  O   UNL     1       2.420   3.051   0.000  0.00  0.00    +0.000 OA
ENDBRANCH  49  50
ENDBRANCH  48  49
ENDBRANCH  13  48
TORSDOF 12
REMARK  Name = 
REMARK  12 active torsions:
REMARK  status: ('A' for Active; 'I' for Inactive)
REMARK    1  A    between atoms: C_1  and  C_55
REMARK    2  A    between atoms: C_7  and  C_50
REMARK    3  A    between atoms: C_14  and  C_19
REMARK    4  A    between atoms: C_19  and  C_20
REMARK    5  A    between atoms: C_20  and  C_21
REMARK    6  A    between atoms: C_24  and  C_25
REMARK    7  A    between atoms: C_25  and  C_26
REMARK    8  A    between atoms: C_26  and  O_27
REMARK    9  A    between atoms: C_38  and  C_39
REMARK   10  A    between atoms: N_40  and  C_41
REMARK   11  A    between atoms: C_41  and  C_42
REMARK   12  A    between atoms: C_42  and  S_43
REMARK                            x       y       z     vdW  Elec       q    Type
REMARK                         _______ _______ _______ _____ _____    ______ ____
ROOT
ATOM      1 PD   UNL     1      -1.653   0.076   0.000  0.00  0.00    +0.000 Pd
ENDROOT
TORSDOF 0
