REMARK  Name = 
REMARK  21 active torsions:
REMARK  status: ('A' for Active; 'I' for Inactive)
REMARK    1  A    between atoms: C_1  and  O_17
REMARK    2  A    between atoms: C_1  and  C_22
REMARK    3  A    between atoms: C_2  and  O_21
REMARK    4  A    between atoms: C_3  and  O_23
REMARK    5  A    between atoms: C_4  and  O_24
REMARK    6  A    between atoms: C_5  and  O_25
REMARK    7  A    between atoms: C_6  and  O_26
REMARK    8  A    between atoms: C_7  and  O_17
REMARK    9  A    between atoms: S_8  and  O_21
REMARK   10  A    between atoms: S_9  and  O_26
REMARK   11  A    between atoms: S_10  and  O_24
REMARK   12  A    between atoms: S_11  and  O_23
REMARK   13  A    between atoms: S_12  and  O_25
REMARK   14  A    between atoms: S_13  and  O_27
REMARK   15  A    between atoms: S_14  and  O_30
REMARK   16  A    between atoms: S_15  and  O_31
REMARK   17  A    between atoms: C_18  and  C_29
REMARK   18  A    between atoms: C_19  and  C_28
REMARK   19  A    between atoms: C_22  and  O_27
REMARK   20  A    between atoms: C_28  and  O_31
REMARK   21  A    between atoms: C_29  and  O_30
REMARK                            x       y       z     vdW  Elec       q    Type
REMARK                         _______ _______ _______ _____ _____    ______ ____
ROOT
ATOM      1  O   UNL     1      -0.258   0.841   0.000  0.00  0.00    +0.000 OA
ENDROOT
BRANCH   1   5
ATOM      2  C   UNL     1      -1.956  -0.812   0.000  0.00  0.00    +0.000 C 
ATOM      3  C   UNL     1      -1.209  -0.402   0.000  0.00  0.00    +0.000 C 
ATOM      4  C   UNL     1      -2.629  -0.402   0.000  0.00  0.00    +0.000 C 
ATOM      5  C   UNL     1      -1.209   0.432   0.000  0.00  0.00    +0.000 C 
ATOM      6  C   UNL     1      -2.629   0.402   0.000  0.00  0.00    +0.000 C 
ATOM      7  O   UNL     1      -1.956   0.841   0.000  0.00  0.00    +0.000 OA
BRANCH   2   8
ATOM      8  O   UNL     1      -1.956  -1.661   0.000  0.00  0.00    +0.000 OA
BRANCH   8   9
ATOM      9  S   UNL     1      -2.658  -2.109   0.000  0.00  0.00    +0.000 S 
ATOM     10  O   UNL     1      -3.365  -1.704   0.000  0.00  0.00    +0.000 OA
ATOM     11  O   UNL     1      -2.658  -2.890   0.000  0.00  0.00    +0.000 OA
ATOM     12  O   UNL     1      -3.302  -2.490   0.000  0.00  0.00    +0.000 OA
ENDBRANCH   8   9
ENDBRANCH   2   8
BRANCH   3  13
ATOM     13  O   UNL     1      -0.507  -0.827   0.000  0.00  0.00    +0.000 OA
BRANCH  13  14
ATOM     14  S   UNL     1      -0.507  -1.641   0.000  0.00  0.00    +0.000 S 
ATOM     15  O   UNL     1      -1.048  -1.865   0.000  0.00  0.00    +0.000 OA
ATOM     16  O   UNL     1       0.132  -1.924   0.000  0.00  0.00    +0.000 OA
ATOM     17  O   UNL     1      -0.507  -2.407   0.000  0.00  0.00    +0.000 OA
ENDBRANCH  13  14
ENDBRANCH   3  13
BRANCH   4  18
ATOM     18  O   UNL     1      -3.331  -0.827   0.000  0.00  0.00    +0.000 OA
BRANCH  18  19
ATOM     19  S   UNL     1      -4.048  -0.427   0.000  0.00  0.00    +0.000 S 
ATOM     20  O   UNL     1      -4.750  -0.866   0.000  0.00  0.00    +0.000 OA
ATOM     21  O   UNL     1      -4.799   0.007   0.000  0.00  0.00    +0.000 OA
ATOM     22  O   UNL     1      -4.048   0.373   0.000  0.00  0.00    +0.000 OA
ENDBRANCH  18  19
ENDBRANCH   4  18
BRANCH   6  23
ATOM     23  C   UNL     1      -3.331   0.841   0.000  0.00  0.00    +0.000 C 
BRANCH  23  24
ATOM     24  O   UNL     1      -3.331   1.661   0.000  0.00  0.00    +0.000 OA
BRANCH  24  25
ATOM     25  S   UNL     1      -2.629   2.085   0.000  0.00  0.00    +0.000 S 
ATOM     26  O   UNL     1      -1.931   1.675   0.000  0.00  0.00    +0.000 OA
ATOM     27  O   UNL     1      -2.629   2.890   0.000  0.00  0.00    +0.000 OA
ATOM     28  O   UNL     1      -1.956   2.587   0.000  0.00  0.00    +0.000 OA
ENDBRANCH  24  25
ENDBRANCH  23  24
ENDBRANCH   6  23
ENDBRANCH   1   5
BRANCH   1  29
ATOM     29  C   UNL     1       0.600   0.393   0.000  0.00  0.00    +0.000 C 
ATOM     30  C   UNL     1       0.854  -0.402   0.000  0.00  0.00    +0.000 C 
ATOM     31  C   UNL     1       1.668  -0.402   0.000  0.00  0.00    +0.000 C 
ATOM     32  O   UNL     1       1.292   0.871   0.000  0.00  0.00    +0.000 OA
ATOM     33  C   UNL     1       1.951   0.373   0.000  0.00  0.00    +0.000 C 
BRANCH  29  34
ATOM     34  C   UNL     1       0.600   1.914   0.000  0.00  0.00    +0.000 C 
BRANCH  34  35
ATOM     35  O   UNL     1       1.322   2.334   0.000  0.00  0.00    +0.000 OA
BRANCH  35  36
ATOM     36  S   UNL     1       2.024   1.944   0.000  0.00  0.00    +0.000 S 
ATOM     37  O   UNL     1       2.721   2.319   0.000  0.00  0.00    +0.000 OA
ATOM     38  O   UNL     1       2.721   1.573   0.000  0.00  0.00    +0.000 OA
ATOM     39  O   UNL     1       2.024   1.178   0.000  0.00  0.00    +0.000 OA
ENDBRANCH  35  36
ENDBRANCH  34  35
ENDBRANCH  29  34
BRANCH  30  40
ATOM     40  O   UNL     1       0.512  -1.158   0.000  0.00  0.00    +0.000 OA
BRANCH  40  41
ATOM     41  S   UNL     1       0.941  -1.939   0.000  0.00  0.00    +0.000 S 
ATOM     42  O   UNL     1       1.761  -1.939   0.000  0.00  0.00    +0.000 OA
ATOM     43  O   UNL     1       0.576  -2.700   0.000  0.00  0.00    +0.000 OA
ATOM     44  O   UNL     1       1.405  -2.651   0.000  0.00  0.00    +0.000 OA
ENDBRANCH  40  41
ENDBRANCH  30  40
BRANCH  31  45
ATOM     45  O   UNL     1       2.141  -1.070   0.000  0.00  0.00    +0.000 OA
BRANCH  45  46
ATOM     46  S   UNL     1       3.004  -1.090   0.000  0.00  0.00    +0.000 S 
ATOM     47  O   UNL     1       3.282  -1.758   0.000  0.00  0.00    +0.000 OA
ATOM     48  O   UNL     1       3.355  -0.358   0.000  0.00  0.00    +0.000 OA
ATOM     49  O   UNL     1       3.736  -1.090   0.000  0.00  0.00    +0.000 OA
ENDBRANCH  45  46
ENDBRANCH  31  45
BRANCH  33  50
ATOM     50  C   UNL     1       2.663   0.768   0.000  0.00  0.00    +0.000 C 
BRANCH  50  51
ATOM     51  O   UNL     1       3.370   0.344   0.000  0.00  0.00    +0.000 OA
BRANCH  51  52
ATOM     52  S   UNL     1       4.111   0.724   0.000  0.00  0.00    +0.000 S 
ATOM     53  O   UNL     1       4.799   0.285   0.000  0.00  0.00    +0.000 OA
ATOM     54  O   UNL     1       4.111   1.558   0.000  0.00  0.00    +0.000 OA
ATOM     55  O   UNL     1       4.799   1.222   0.000  0.00  0.00    +0.000 OA
ENDBRANCH  51  52
ENDBRANCH  50  51
ENDBRANCH  33  50
ENDBRANCH   1  29
TORSDOF 21
