REMARK  Name = 
REMARK  14 active torsions:
REMARK  status: ('A' for Active; 'I' for Inactive)
REMARK    1  A    between atoms: C_5  and  C_7
REMARK    2  A    between atoms: C_7  and  O_8
REMARK    3  A    between atoms: O_8  and  C_9
REMARK    4  A    between atoms: C_9  and  C_11
REMARK    5  A    between atoms: C_11  and  C_12
REMARK    6  A    between atoms: C_12  and  C_13
REMARK    7  A    between atoms: C_16  and  O_19
REMARK    8  A    between atoms: O_19  and  C_20
REMARK    9  A    between atoms: C_20  and  C_21
REMARK   10  A    between atoms: C_21  and  C_22
REMARK   11  A    between atoms: C_22  and  N_23
REMARK   12  A    between atoms: N_23  and  C_24
REMARK   13  A    between atoms: C_24  and  C_25
REMARK   14  A    between atoms: C_25  and  N_26
REMARK                            x       y       z     vdW  Elec       q    Type
REMARK                         _______ _______ _______ _____ _____    ______ ____
ROOT
ATOM      1  C   UNL     1       1.429  -7.425   0.000  0.00  0.00    +0.000 A 
ATOM      2  C   UNL     1       1.429  -6.600   0.000  0.00  0.00    +0.000 A 
ATOM      3  C   UNL     1       2.143  -6.188   0.000  0.00  0.00    +0.000 A 
ATOM      4  C   UNL     1       2.858  -6.600   0.000  0.00  0.00    +0.000 A 
ATOM      5  C   UNL     1       2.858  -7.425   0.000  0.00  0.00    +0.000 A 
ATOM      6  C   UNL     1       2.143  -7.838   0.000  0.00  0.00    +0.000 A 
ENDROOT
BRANCH   1   7
ATOM      7  C   UNL     1       0.715  -7.838   0.000  0.00  0.00    +0.000 C 
BRANCH   7   8
ATOM      8  C   UNL     1       0.000  -7.425   0.000  0.00  0.00    +0.000 C 
BRANCH   8   9
ATOM      9  C   UNL     1       0.000  -6.600   0.000  0.00  0.00    +0.000 C 
ATOM     10  O   UNL     1       0.715  -6.188   0.000  0.00  0.00    +0.000 OA
BRANCH   9  11
ATOM     11  O   UNL     1      -0.715  -6.188   0.000  0.00  0.00    +0.000 OA
BRANCH  11  12
ATOM     12  C   UNL     1      -0.715  -5.362   0.000  0.00  0.00    +0.000 C 
BRANCH  12  17
ATOM     13  C   UNL     1      -3.287  -5.286   0.000  0.00  0.00    +0.000 C 
ATOM     14  C   UNL     1      -2.735  -4.673   0.000  0.00  0.00    +0.000 C 
ATOM     15  O   UNL     1      -2.322  -3.958   0.000  0.00  0.00    +0.000 OA
ATOM     16  C   UNL     1      -1.515  -4.130   0.000  0.00  0.00    +0.000 C 
ATOM     17  C   UNL     1      -1.429  -4.950   0.000  0.00  0.00    +0.000 C 
ATOM     18  O   UNL     1      -2.183  -5.286   0.000  0.00  0.00    +0.000 OA
ATOM     19  C   UNL     1      -3.402  -4.188   0.000  0.00  0.00    +0.000 C 
ENDBRANCH  12  17
ENDBRANCH  11  12
ENDBRANCH   9  11
ENDBRANCH   8   9
ENDBRANCH   7   8
ENDBRANCH   1   7
BRANCH   4  20
ATOM     20  O   UNL     1       3.572  -6.188   0.000  0.00  0.00    +0.000 OA
BRANCH  20  21
ATOM     21  C   UNL     1       4.287  -6.600   0.000  0.00  0.00    +0.000 C 
BRANCH  21  22
ATOM     22  C   UNL     1       5.001  -6.188   0.000  0.00  0.00    +0.000 C 
ATOM     23  O   UNL     1       5.001  -5.362   0.000  0.00  0.00    +0.000 OA
BRANCH  22  24
ATOM     24  C   UNL     1       5.716  -6.600   0.000  0.00  0.00    +0.000 C 
BRANCH  24  25
ATOM     25  N   UNL     1       6.430  -6.188   0.000  0.00  0.00    +0.000 NA
BRANCH  25  26
ATOM     26  C   UNL     1       7.145  -6.600   0.000  0.00  0.00    +0.000 C 
BRANCH  26  27
ATOM     27  C   UNL     1       7.859  -6.188   0.000  0.00  0.00    +0.000 C 
BRANCH  27  28
ATOM     28  N   UNL     1       8.574  -6.600   0.000  0.00  0.00    +0.000 NA
ATOM     29  C   UNL     1       9.288  -6.188   0.000  0.00  0.00    +0.000 C 
ATOM     30  O   UNL     1       9.288  -5.362   0.000  0.00  0.00    +0.000 OA
ATOM     31  N   UNL     1      10.003  -6.600   0.000  0.00  0.00    +0.000 N 
ATOM     32  C   UNL     1      10.717  -6.188   0.000  0.00  0.00    +0.000 C 
ATOM     33  C   UNL     1      11.431  -6.600   0.000  0.00  0.00    +0.000 C 
ATOM     34  O   UNL     1      11.431  -7.425   0.000  0.00  0.00    +0.000 OA
ATOM     35  C   UNL     1      10.717  -7.838   0.000  0.00  0.00    +0.000 C 
ATOM     36  C   UNL     1      10.003  -7.425   0.000  0.00  0.00    +0.000 C 
ENDBRANCH  27  28
ENDBRANCH  26  27
ENDBRANCH  25  26
ENDBRANCH  24  25
ENDBRANCH  22  24
ENDBRANCH  21  22
ENDBRANCH  20  21
ENDBRANCH   4  20
TORSDOF 14
