REMARK  Name = 
REMARK  4 active torsions:
REMARK  status: ('A' for Active; 'I' for Inactive)
REMARK    1  A    between atoms: C_7  and  C_14
REMARK    2  A    between atoms: C_7  and  C_15
REMARK    3  A    between atoms: C_14  and  N_20
REMARK    4  A    between atoms: C_15  and  N_21
REMARK                            x       y       z     vdW  Elec       q    Type
REMARK                         _______ _______ _______ _____ _____    ______ ____
ROOT
ATOM      1  C   UNL     1       7.328   1.148   0.000  0.00  0.00    +0.000 A 
ATOM      2  C   UNL     1       5.008   5.167   0.000  0.00  0.00    +0.000 A 
ATOM      3  C   UNL     1       6.540   0.905   0.000  0.00  0.00    +0.000 A 
ATOM      4  C   UNL     1       4.404   4.606   0.000  0.00  0.00    +0.000 A 
ATOM      5  C   UNL     1       7.512   1.953   0.000  0.00  0.00    +0.000 A 
ATOM      6  C   UNL     1       5.797   4.923   0.000  0.00  0.00    +0.000 A 
ATOM      7  C   UNL     1       5.935   1.466   0.000  0.00  0.00    +0.000 A 
ATOM      8  C   UNL     1       4.587   3.801   0.000  0.00  0.00    +0.000 A 
ATOM      9  C   UNL     1       7.209   3.282   0.000  0.00  0.00    +0.000 C 
ATOM     10  C   UNL     1       6.796   3.996   0.000  0.00  0.00    +0.000 C 
ATOM     11  C   UNL     1       6.907   2.514   0.000  0.00  0.00    +0.000 A 
ATOM     12  C   UNL     1       5.980   4.119   0.000  0.00  0.00    +0.000 A 
ATOM     13  C   UNL     1       6.119   2.271   0.000  0.00  0.00    +0.000 A 
ATOM     14  C   UNL     1       5.376   3.558   0.000  0.00  0.00    +0.000 A 
ATOM     15  N   UNL     1       5.437   2.735   0.000  0.00  0.00    +0.000 N 
ENDROOT
BRANCH  15  16
ATOM     16  C   UNL     1       4.723   2.323   0.000  0.00  0.00    +0.000 C 
BRANCH  16  17
ATOM     17  C   UNL     1       4.008   2.735   0.000  0.00  0.00    +0.000 C 
BRANCH  17  18
ATOM     18  C   UNL     1       3.294   2.323   0.000  0.00  0.00    +0.000 C 
BRANCH  18  21
ATOM     19  C   UNL     1       1.865   2.323   0.000  0.00  0.00    +0.000 C 
ATOM     20  C   UNL     1       2.579   3.560   0.000  0.00  0.00    +0.000 C 
ATOM     21  N   UNL     1       2.579   2.735   0.000  0.00  0.00    +0.000 N 
ATOM     22  O   UNL     1       2.579   1.910   0.000  0.00  0.00    +0.000 OA
ENDBRANCH  18  21
ENDBRANCH  17  18
ENDBRANCH  16  17
ENDBRANCH  15  16
TORSDOF 4
