REMARK  Name = 
REMARK  5 active torsions:
REMARK  status: ('A' for Active; 'I' for Inactive)
REMARK    1  A    between atoms: C_1  and  C_2
REMARK    2  A    between atoms: C_1  and  C_4
REMARK    3  A    between atoms: C_1  and  C_11
REMARK    4  A    between atoms: C_4  and  C_12
REMARK    5  A    between atoms: N_6  and  C_12
REMARK                            x       y       z     vdW  Elec       q    Type
REMARK                         _______ _______ _______ _____ _____    ______ ____
ROOT
ATOM      1  C   UNL     1      -0.361  -0.355   0.000  0.00  0.00    +0.000 C 
ATOM      2  O   UNL     1       0.353  -0.768   0.000  0.00  0.00    +0.000 OA
ENDROOT
BRANCH   1   3
ATOM      3  C   UNL     1      -1.088   0.059   0.000  0.00  0.00    +0.000 C 
ATOM      4  C   UNL     1      -1.802  -0.355   0.000  0.00  0.00    +0.000 C 
ATOM      5  C   UNL     1      -2.516   0.059   0.000  0.00  0.00    +0.000 C 
ATOM      6  C   UNL     1      -2.516   0.881   0.000  0.00  0.00    +0.000 C 
ATOM      7  C   UNL     1      -1.088   0.873   0.000  0.00  0.00    +0.000 C 
ATOM      8  C   UNL     1      -1.802   1.294   0.000  0.00  0.00    +0.000 C 
ATOM      9  C   UNL     1      -2.140   0.484   0.000  0.00  0.00    +0.000 C 
ENDBRANCH   1   3
BRANCH   1  10
ATOM     10  C   UNL     1      -0.774  -1.085   0.000  0.00  0.00    +0.000 A 
ATOM     11  C   UNL     1      -0.374  -1.800   0.000  0.00  0.00    +0.000 A 
ATOM     12  C   UNL     1      -1.593  -1.073   0.000  0.00  0.00    +0.000 A 
ATOM     13  C   UNL     1      -2.027  -1.800   0.000  0.00  0.00    +0.000 A 
ATOM     14  C   UNL     1      -0.774  -2.509   0.000  0.00  0.00    +0.000 A 
ATOM     15  C   UNL     1      -1.601  -2.509   0.000  0.00  0.00    +0.000 A 
ENDBRANCH   1  10
BRANCH   1  16
ATOM     16  C   UNL     1       0.052   0.367   0.000  0.00  0.00    +0.000 C 
BRANCH  16  17
ATOM     17  C   UNL     1       0.866   0.367   0.000  0.00  0.00    +0.000 C 
BRANCH  17  18
ATOM     18  N   UNL     1       1.280   1.081   0.000  0.00  0.00    +0.000 NA
ATOM     19  C   UNL     1       0.866   1.800   0.000  0.00  0.00    +0.000 C 
ATOM     20  C   UNL     1       2.102   1.069   0.000  0.00  0.00    +0.000 C 
ATOM     21  C   UNL     1       2.516   1.783   0.000  0.00  0.00    +0.000 C 
ATOM     22  C   UNL     1       1.280   2.509   0.000  0.00  0.00    +0.000 C 
ATOM     23  C   UNL     1       2.102   2.509   0.000  0.00  0.00    +0.000 C 
ENDBRANCH  17  18
ENDBRANCH  16  17
ENDBRANCH   1  16
TORSDOF 5
