REMARK  Name = 
REMARK  3 active torsions:
REMARK  status: ('A' for Active; 'I' for Inactive)
REMARK    1  A    between atoms: C_7  and  N_8
REMARK    2  A    between atoms: C_17  and  C_18
REMARK    3  A    between atoms: C_28  and  O_30
REMARK                            x       y       z     vdW  Elec       q    Type
REMARK                         _______ _______ _______ _____ _____    ______ ____
ROOT
ATOM      1  N   UNL     1       4.545   3.020   0.000  0.00  0.00    +0.000 N 
ATOM      2  C   UNL     1       5.332   2.774   0.000  0.00  0.00    +0.000 C 
ATOM      3  O   UNL     1       5.994   3.266   0.000  0.00  0.00    +0.000 OA
ATOM      4  C   UNL     1       5.341   1.949   0.000  0.00  0.00    +0.000 A 
ATOM      5  C   UNL     1       5.959   1.403   0.000  0.00  0.00    +0.000 A 
ATOM      6  C   UNL     1       5.796   0.595   0.000  0.00  0.00    +0.000 A 
ATOM      7  C   UNL     1       5.014   0.331   0.000  0.00  0.00    +0.000 A 
ATOM      8  C   UNL     1       4.396   0.877   0.000  0.00  0.00    +0.000 A 
ATOM      9  C   UNL     1       4.559   1.686   0.000  0.00  0.00    +0.000 A 
ATOM     10  C   UNL     1       4.067   2.348   0.000  0.00  0.00    +0.000 C 
ATOM     11  O   UNL     1       3.344   2.745   0.000  0.00  0.00    +0.000 OA
ENDROOT
BRANCH  10  12
ATOM     12  C   UNL     1       3.352   1.935   0.000  0.00  0.00    +0.000 A 
ATOM     13  C   UNL     1       3.352   1.110   0.000  0.00  0.00    +0.000 A 
ATOM     14  C   UNL     1       2.638   0.698   0.000  0.00  0.00    +0.000 A 
ATOM     15  C   UNL     1       1.923   1.110   0.000  0.00  0.00    +0.000 A 
ATOM     16  C   UNL     1       1.923   1.935   0.000  0.00  0.00    +0.000 A 
ATOM     17  C   UNL     1       2.638   2.348   0.000  0.00  0.00    +0.000 A 
ATOM     18  N   UNL     1       1.139   2.190   0.000  0.00  0.00    +0.000 NA
ATOM     19  C   UNL     1       0.654   1.523   0.000  0.00  0.00    +0.000 A 
ATOM     20  N   UNL     1       1.139   0.856   0.000  0.00  0.00    +0.000 NA
ATOM     21  N   UNL     1      -0.171   1.523   0.000  0.00  0.00    +0.000 NA
ATOM     22  C   UNL     1      -0.584   0.808   0.000  0.00  0.00    +0.000 C 
ATOM     23  O   UNL     1      -0.171   0.094   0.000  0.00  0.00    +0.000 OA
BRANCH  22  24
ATOM     24  O   UNL     1      -1.409   0.808   0.000  0.00  0.00    +0.000 OA
ATOM     25  C   UNL     1      -1.821   0.094   0.000  0.00  0.00    +0.000 C 
ENDBRANCH  22  24
ENDBRANCH  10  12
BRANCH   1  32
ATOM     26  C   UNL     1       2.927   3.347   0.000  0.00  0.00    +0.000 C 
ATOM     27  C   UNL     1       3.473   3.965   0.000  0.00  0.00    +0.000 A 
ATOM     28  C   UNL     1       3.210   4.747   0.000  0.00  0.00    +0.000 A 
ATOM     29  C   UNL     1       3.755   5.366   0.000  0.00  0.00    +0.000 A 
ATOM     30  C   UNL     1       4.564   5.203   0.000  0.00  0.00    +0.000 A 
ATOM     31  C   UNL     1       4.827   4.421   0.000  0.00  0.00    +0.000 A 
ATOM     32  C   UNL     1       4.282   3.802   0.000  0.00  0.00    +0.000 A 
ATOM     33 CL   UNL     1       5.109   5.822   0.000  0.00  0.00    +0.000 Cl
ENDBRANCH   1  32
TORSDOF 3
