REMARK  Name = 
REMARK  4 active torsions:
REMARK  status: ('A' for Active; 'I' for Inactive)
REMARK    1  A    between atoms: N_4  and  CA_5
REMARK    2  A    between atoms: CA_5  and  CB_6
REMARK    3  A    between atoms: CA_5  and  C_14
REMARK    4  A    between atoms: CB_6  and  CG_7
REMARK                            x       y       z     vdW  Elec       q    Type
REMARK                         _______ _______ _______ _____ _____    ______ ____
ROOT
ATOM      1  CA  TYR A   1       2.143  -2.062   0.000  0.00  0.00    +0.000 C 
ENDROOT
BRANCH   1   5
ATOM      2  C   UNK A   0       0.715  -3.712   0.000  0.00  0.00    +0.000 C 
ATOM      3  C   UNK A   0       1.429  -3.300   0.000  0.00  0.00    +0.000 C 
ATOM      4  O   UNK A   0       2.143  -3.712   0.000  0.00  0.00    +0.000 OA
ATOM      5  N   TYR A   1       1.429  -2.475   0.000  0.00  0.00    +0.000 NA
ENDBRANCH   1   5
BRANCH   1   6
ATOM      6  C   TYR A   1       2.858  -2.475   0.000  0.00  0.00    +0.000 C 
ATOM      7  O   TYR A   1       3.572  -2.062   0.000  0.00  0.00    +0.000 OA
ATOM      8  OXT TYR A   1       2.858  -3.300   0.000  0.00  0.00    +0.000 OA
ENDBRANCH   1   6
BRANCH   1   9
ATOM      9  CB  TYR A   1       2.143  -1.238   0.000  0.00  0.00    +0.000 C 
BRANCH   9  10
ATOM     10  CG  TYR A   1       2.858  -0.825   0.000  0.00  0.00    +0.000 A 
ATOM     11  CD1 TYR A   1       2.858   0.000   0.000  0.00  0.00    +0.000 A 
ATOM     12  CE1 TYR A   1       3.572   0.412   0.000  0.00  0.00    +0.000 A 
ATOM     13  CZ  TYR A   1       4.287   0.000   0.000  0.00  0.00    +0.000 A 
ATOM     14  CE2 TYR A   1       4.287  -0.825   0.000  0.00  0.00    +0.000 A 
ATOM     15  CD2 TYR A   1       3.572  -1.238   0.000  0.00  0.00    +0.000 A 
ATOM     16  OH  TYR A   1       5.001   0.412   0.000  0.00  0.00    +0.000 OA
ENDBRANCH   9  10
ENDBRANCH   1   9
TORSDOF 4
