REMARK  Name = 
REMARK  13 active torsions:
REMARK  status: ('A' for Active; 'I' for Inactive)
REMARK    1  A    between atoms: P_1  and  O_6
REMARK    2  A    between atoms: P_2  and  O_10
REMARK    3  A    between atoms: P_2  and  O_12
REMARK    4  A    between atoms: P_3  and  O_11
REMARK    5  A    between atoms: P_3  and  O_12
REMARK    6  A    between atoms: O_6  and  C_29
REMARK    7  A    between atoms: O_10  and  C_37
REMARK    8  A    between atoms: O_11  and  C_38
REMARK    9  A    between atoms: N_22  and  C_31
REMARK   10  A    between atoms: N_23  and  C_35
REMARK   11  A    between atoms: C_32  and  C_37
REMARK   12  A    between atoms: C_36  and  C_38
REMARK   13  A    between atoms: C_43  and  C_48
REMARK                            x       y       z     vdW  Elec       q    Type
REMARK                         _______ _______ _______ _____ _____    ______ ____
ROOT
ATOM      1  P   UNL     1      -0.480   1.834   0.000  0.00  0.00    +0.000 P 
ATOM      2  O   UNL     1       0.004   1.165   0.000  0.00  0.00    +0.000 OA
ATOM      3  O   UNL     1      -0.964   2.502   0.000  0.00  0.00    +0.000 OA
ENDROOT
BRANCH   1   4
ATOM      4  O   UNL     1       0.188   2.318   0.000  0.00  0.00    +0.000 OA
BRANCH   4   5
ATOM      5  P   UNL     1       0.941   1.981   0.000  0.00  0.00    +0.000 P 
ATOM      6  O   UNL     1       1.278   2.734   0.000  0.00  0.00    +0.000 OA
ATOM      7  O   UNL     1       0.604   1.228   0.000  0.00  0.00    +0.000 OA
BRANCH   5   8
ATOM      8  O   UNL     1       1.694   1.644   0.000  0.00  0.00    +0.000 OA
BRANCH   8   9
ATOM      9  C   UNL     1       2.363   2.127   0.000  0.00  0.00    +0.000 C 
BRANCH   9  16
ATOM     10  O   UNL     1       3.286   0.983   0.000  0.00  0.00    +0.000 OA
ATOM     11  O   UNL     1       5.251   1.819   0.000  0.00  0.00    +0.000 OA
ATOM     12  O   UNL     1       3.919   3.022   0.000  0.00  0.00    +0.000 OA
ATOM     13  C   UNL     1       4.443   1.649   0.000  0.00  0.00    +0.000 C 
ATOM     14  C   UNL     1       3.831   2.202   0.000  0.00  0.00    +0.000 C 
ATOM     15  C   UNL     1       4.106   0.896   0.000  0.00  0.00    +0.000 C 
ATOM     16  C   UNL     1       3.116   1.791   0.000  0.00  0.00    +0.000 C 
BRANCH  15  18
ATOM     17  O   UNL     1       5.752  -1.965   0.000  0.00  0.00    +0.000 OA
ATOM     18  N   UNL     1       4.518   0.180   0.000  0.00  0.00    +0.000 N 
ATOM     19  C   UNL     1       4.104  -0.533   0.000  0.00  0.00    +0.000 C 
ATOM     20  C   UNL     1       5.343   0.179   0.000  0.00  0.00    +0.000 C 
ATOM     21  C   UNL     1       4.515  -1.248   0.000  0.00  0.00    +0.000 C 
ATOM     22  C   UNL     1       5.754  -0.536   0.000  0.00  0.00    +0.000 C 
ATOM     23  C   UNL     1       5.340  -1.250   0.000  0.00  0.00    +0.000 C 
BRANCH  21  26
ATOM     24  O   UNL     1       3.276  -1.961   0.000  0.00  0.00    +0.000 OA
ATOM     25  N   UNL     1       4.513  -2.678   0.000  0.00  0.00    +0.000 NA
ATOM     26  C   UNL     1       4.101  -1.962   0.000  0.00  0.00    +0.000 C 
ENDBRANCH  21  26
ENDBRANCH  15  18
ENDBRANCH   9  16
ENDBRANCH   8   9
ENDBRANCH   5   8
ENDBRANCH   4   5
ENDBRANCH   1   4
BRANCH   1  27
ATOM     27  O   UNL     1      -1.148   1.350   0.000  0.00  0.00    +0.000 OA
BRANCH  27  28
ATOM     28  C   UNL     1      -1.902   1.687   0.000  0.00  0.00    +0.000 C 
BRANCH  28  34
ATOM     29  O   UNL     1      -2.571   0.378   0.000  0.00  0.00    +0.000 OA
ATOM     30  O   UNL     1      -3.608   2.244   0.000  0.00  0.00    +0.000 OA
ATOM     31  C   UNL     1      -3.840   0.793   0.000  0.00  0.00    +0.000 C 
ATOM     32  C   UNL     1      -3.354   1.459   0.000  0.00  0.00    +0.000 C 
ATOM     33  C   UNL     1      -3.357   0.124   0.000  0.00  0.00    +0.000 C 
ATOM     34  C   UNL     1      -2.570   1.203   0.000  0.00  0.00    +0.000 C 
BRANCH  33  35
ATOM     35  N   UNL     1      -3.613  -0.660   0.000  0.00  0.00    +0.000 N 
ATOM     36  N   UNL     1      -3.613  -1.988   0.000  0.00  0.00    +0.000 NA
ATOM     37  N   UNL     1      -5.108  -0.499   0.000  0.00  0.00    +0.000 NA
ATOM     38  N   UNL     1      -5.823  -1.736   0.000  0.00  0.00    +0.000 NA
ATOM     39  N   UNL     1      -5.108  -2.974   0.000  0.00  0.00    +0.000 NA
ATOM     40  C   UNL     1      -4.394  -0.911   0.000  0.00  0.00    +0.000 A 
ATOM     41  C   UNL     1      -3.131  -1.324   0.000  0.00  0.00    +0.000 A 
ATOM     42  C   UNL     1      -4.394  -1.736   0.000  0.00  0.00    +0.000 A 
ATOM     43  C   UNL     1      -5.108  -2.149   0.000  0.00  0.00    +0.000 A 
ATOM     44  C   UNL     1      -5.823  -0.911   0.000  0.00  0.00    +0.000 A 
ENDBRANCH  33  35
BRANCH  31  45
ATOM     45  O   UNL     1      -4.665   0.794   0.000  0.00  0.00    +0.000 OA
BRANCH  45  46
ATOM     46  P   UNL     1      -5.077   1.509   0.000  0.00  0.00    +0.000 P 
ATOM     47  O   UNL     1      -5.488   2.225   0.000  0.00  0.00    +0.000 OA
ATOM     48  O   UNL     1      -5.792   1.098   0.000  0.00  0.00    +0.000 OA
ATOM     49  O   UNL     1      -4.361   1.921   0.000  0.00  0.00    +0.000 OA
ENDBRANCH  45  46
ENDBRANCH  31  45
ENDBRANCH  28  34
ENDBRANCH  27  28
ENDBRANCH   1  27
TORSDOF 13
