REMARK  Name = 
REMARK  2 active torsions:
REMARK  status: ('A' for Active; 'I' for Inactive)
REMARK    1  A    between atoms: N_6  and  C_11
REMARK    2  A    between atoms: C_12  and  C_14
REMARK                            x       y       z     vdW  Elec       q    Type
REMARK                         _______ _______ _______ _____ _____    ______ ____
ROOT
ATOM      1  O   UNL     1      -0.532  -1.168   0.000  0.00  0.00    +0.000 OA
ATOM      2  O   UNL     1       1.585  -1.419   0.000  0.00  0.00    +0.000 OA
ATOM      3  O   UNL     1       1.029  -2.619   0.000  0.00  0.00    +0.000 OA
ATOM      4  C   UNL     1       0.799  -1.168   0.000  0.00  0.00    +0.000 C 
ATOM      5  C   UNL     1       0.547  -1.954   0.000  0.00  0.00    +0.000 C 
ATOM      6  C   UNL     1       0.134  -0.681   0.000  0.00  0.00    +0.000 C 
ATOM      7  C   UNL     1      -0.280  -1.954   0.000  0.00  0.00    +0.000 C 
ATOM      8  C   UNL     1       1.286  -0.498   0.000  0.00  0.00    +0.000 C 
ENDROOT
BRANCH   6  10
ATOM      9  O   UNL     1      -1.296   0.141   0.000  0.00  0.00    +0.000 OA
ATOM     10  N   UNL     1       0.134   0.141   0.000  0.00  0.00    +0.000 N 
ATOM     11  N   UNL     1      -0.579   1.383   0.000  0.00  0.00    +0.000 NA
ATOM     12  N   UNL     1       0.134   2.619   0.000  0.00  0.00    +0.000 NA
ATOM     13  C   UNL     1       0.846   0.555   0.000  0.00  0.00    +0.000 A 
ATOM     14  C   UNL     1      -0.579   0.555   0.000  0.00  0.00    +0.000 A 
ATOM     15  C   UNL     1       0.846   1.383   0.000  0.00  0.00    +0.000 A 
ATOM     16  C   UNL     1       0.134   1.792   0.000  0.00  0.00    +0.000 A 
ENDBRANCH   6  10
BRANCH   7  18
ATOM     17  O   UNL     1      -1.585  -2.535   0.000  0.00  0.00    +0.000 OA
ATOM     18  C   UNL     1      -0.762  -2.619   0.000  0.00  0.00    +0.000 C 
ENDBRANCH   7  18
TORSDOF 2
