REMARK  Name = 
REMARK  8 active torsions:
REMARK  status: ('A' for Active; 'I' for Inactive)
REMARK    1  A    between atoms: P_1  and  O3*_4
REMARK    2  A    between atoms: P_1  and  O5*_5
REMARK    3  A    between atoms: O3*_4  and  C3*_20
REMARK    4  A    between atoms: O5*_5  and  C5*_28
REMARK    5  A    between atoms: N9_12  and  C1*_23
REMARK    6  A    between atoms: N1_13  and  C1*_27
REMARK    7  A    between atoms: C4*_21  and  C5*_28
REMARK    8  A    between atoms: C4*_25  and  C5*_29
REMARK                            x       y       z     vdW  Elec       q    Type
REMARK                         _______ _______ _______ _____ _____    ______ ____
ROOT
ATOM      1  P     G A   2       0.090   1.617   0.000  0.00  0.00    +0.000 P 
ATOM      2  O1P   G A   2       0.574   0.949   0.000  0.00  0.00    +0.000 OA
ATOM      3  O2P   G A   2      -0.394   2.285   0.000  0.00  0.00    +0.000 OA
ENDROOT
BRANCH   1   4
ATOM      4  O5*   G A   2      -0.578   1.133   0.000  0.00  0.00    +0.000 OA
BRANCH   4   5
ATOM      5  C5*   G A   2      -1.331   1.470   0.000  0.00  0.00    +0.000 C 
BRANCH   5   8
ATOM      6  O4*   G A   2      -2.001   0.161   0.000  0.00  0.00    +0.000 OA
ATOM      7  O3*   G A   2      -3.038   2.028   0.000  0.00  0.00    +0.000 OA
ATOM      8  C4*   G A   2      -2.000   0.986   0.000  0.00  0.00    +0.000 C 
ATOM      9  C3*   G A   2      -2.784   1.243   0.000  0.00  0.00    +0.000 C 
ATOM     10  C1*   G A   2      -2.786  -0.092   0.000  0.00  0.00    +0.000 C 
ATOM     11  C2*   G A   2      -3.270   0.576   0.000  0.00  0.00    +0.000 C 
BRANCH  10  13
ATOM     12  O6    G A   2      -4.538  -3.190   0.000  0.00  0.00    +0.000 OA
ATOM     13  N9    G A   2      -3.042  -0.876   0.000  0.00  0.00    +0.000 N 
ATOM     14  N3    G A   2      -4.538  -0.715   0.000  0.00  0.00    +0.000 NA
ATOM     15  N7    G A   2      -3.042  -2.204   0.000  0.00  0.00    +0.000 NA
ATOM     16  N1    G A   2      -5.252  -1.953   0.000  0.00  0.00    +0.000 NA
ATOM     17  N2    G A   2      -5.967  -0.715   0.000  0.00  0.00    +0.000 NA
ATOM     18  C4    G A   2      -3.823  -1.128   0.000  0.00  0.00    +0.000 A 
ATOM     19  C8    G A   2      -2.561  -1.540   0.000  0.00  0.00    +0.000 A 
ATOM     20  C5    G A   2      -3.823  -1.953   0.000  0.00  0.00    +0.000 A 
ATOM     21  C6    G A   2      -4.538  -2.365   0.000  0.00  0.00    +0.000 A 
ATOM     22  C2    G A   2      -5.252  -1.128   0.000  0.00  0.00    +0.000 A 
ENDBRANCH  10  13
ENDBRANCH   5   8
ENDBRANCH   4   5
ENDBRANCH   1   4
BRANCH   1  23
ATOM     23  O3*   C A   1       0.758   2.101   0.000  0.00  0.00    +0.000 OA
BRANCH  23  25
ATOM     24  O4*   C A   1       2.502   0.869   0.000  0.00  0.00    +0.000 OA
ATOM     25  C3*   C A   1       1.511   1.764   0.000  0.00  0.00    +0.000 C 
ATOM     26  C4*   C A   1       1.681   0.957   0.000  0.00  0.00    +0.000 C 
ATOM     27  C2*   C A   1       2.227   2.175   0.000  0.00  0.00    +0.000 C 
ATOM     28  C1*   C A   1       2.839   1.622   0.000  0.00  0.00    +0.000 C 
BRANCH  28  30
ATOM     29  O2    C A   1       3.351   3.190   0.000  0.00  0.00    +0.000 OA
ATOM     30  N1    C A   1       3.646   1.792   0.000  0.00  0.00    +0.000 N 
ATOM     31  N3    C A   1       4.710   2.746   0.000  0.00  0.00    +0.000 NA
ATOM     32  N4    C A   1       6.068   2.303   0.000  0.00  0.00    +0.000 NA
ATOM     33  C6    C A   1       4.197   1.178   0.000  0.00  0.00    +0.000 A 
ATOM     34  C2    C A   1       3.902   2.576   0.000  0.00  0.00    +0.000 A 
ATOM     35  C5    C A   1       5.004   1.348   0.000  0.00  0.00    +0.000 A 
ATOM     36  C4    C A   1       5.261   2.132   0.000  0.00  0.00    +0.000 A 
ENDBRANCH  28  30
BRANCH  26  38
ATOM     37  O5*   C A   1       1.382  -0.441   0.000  0.00  0.00    +0.000 OA
ATOM     38  C5*   C A   1       1.128   0.344   0.000  0.00  0.00    +0.000 C 
ENDBRANCH  26  38
ENDBRANCH  23  25
ENDBRANCH   1  23
TORSDOF 8
