REMARK  Name = 
REMARK  2 active torsions:
REMARK  status: ('A' for Active; 'I' for Inactive)
REMARK    1  A    between atoms: C_3  and  C_14
REMARK    2  A    between atoms: N_23  and  C_26
REMARK                            x       y       z     vdW  Elec       q    Type
REMARK                         _______ _______ _______ _____ _____    ______ ____
ROOT
ATOM      1  C   UNL     1      -1.500   1.444   0.000  0.00  0.00    +0.000 A 
ATOM      2  C   UNL     1      -1.500   0.619   0.000  0.00  0.00    +0.000 A 
ATOM      3  C   UNL     1      -0.783   0.206   0.000  0.00  0.00    +0.000 A 
ATOM      4  C   UNL     1      -0.071   0.619   0.000  0.00  0.00    +0.000 A 
ATOM      5  C   UNL     1      -0.071   1.444   0.000  0.00  0.00    +0.000 A 
ATOM      6  N   UNL     1      -0.783   1.856   0.000  0.00  0.00    +0.000 NA
ATOM      7  C   UNL     1      -2.082   0.027   0.000  0.00  0.00    +0.000 C 
ATOM      8  C   UNL     1      -2.913   0.027   0.000  0.00  0.00    +0.000 C 
ATOM      9  C   UNL     1      -2.082   2.030   0.000  0.00  0.00    +0.000 C 
ATOM     10  C   UNL     1      -3.500   0.616   0.000  0.00  0.00    +0.000 C 
ATOM     11  C   UNL     1      -2.913   2.030   0.000  0.00  0.00    +0.000 C 
ATOM     12  C   UNL     1      -3.500   1.444   0.000  0.00  0.00    +0.000 C 
ATOM     13  N   UNL     1       0.643   1.856   0.000  0.00  0.00    +0.000 N 
ATOM     14  C   UNL     1       1.355   1.442   0.000  0.00  0.00    +0.000 C 
ATOM     15  C   UNL     1       2.070   1.855   0.000  0.00  0.00    +0.000 C 
ATOM     16  N   UNL     1       2.071   2.679   0.000  0.00  0.00    +0.000 NA
ATOM     17  C   UNL     1       1.357   3.092   0.000  0.00  0.00    +0.000 C 
ATOM     18  C   UNL     1       0.642   2.681   0.000  0.00  0.00    +0.000 C 
ENDROOT
BRANCH   3  19
ATOM     19  C   UNL     1      -0.782  -0.619   0.000  0.00  0.00    +0.000 A 
ATOM     20  C   UNL     1      -1.496  -1.031   0.000  0.00  0.00    +0.000 A 
ATOM     21  C   UNL     1      -1.495  -1.856   0.000  0.00  0.00    +0.000 A 
ATOM     22  C   UNL     1      -0.780  -2.268   0.000  0.00  0.00    +0.000 A 
ATOM     23  C   UNL     1      -0.066  -1.854   0.000  0.00  0.00    +0.000 A 
ATOM     24  C   UNL     1      -0.067  -1.029   0.000  0.00  0.00    +0.000 A 
ATOM     25  F   UNL     1      -0.779  -3.092   0.000  0.00  0.00    +0.000 F 
ENDBRANCH   3  19
BRANCH  16  26
ATOM     26  C   UNL     1       2.785   3.091   0.000  0.00  0.00    +0.000 C 
ATOM     27  C   UNL     1       3.500   2.678   0.000  0.00  0.00    +0.000 C 
ENDBRANCH  16  26
TORSDOF 2
