REMARK  Name = 
REMARK  12 active torsions:
REMARK  status: ('A' for Active; 'I' for Inactive)
REMARK    1  A    between atoms: C_2  and  C_4
REMARK    2  A    between atoms: C_4  and  N_5
REMARK    3  A    between atoms: N_5  and  C_6
REMARK    4  A    between atoms: N_5  and  C_28
REMARK    5  A    between atoms: C_6  and  C_7
REMARK    6  A    between atoms: C_7  and  C_8
REMARK    7  A    between atoms: C_8  and  N_9
REMARK    8  A    between atoms: N_12  and  C_13
REMARK    9  A    between atoms: C_13  and  C_14
REMARK   10  A    between atoms: C_14  and  C_15
REMARK   11  A    between atoms: C_15  and  N_16
REMARK   12  A    between atoms: C_28  and  C_29
REMARK                            x       y       z     vdW  Elec       q    Type
REMARK                         _______ _______ _______ _____ _____    ______ ____
ROOT
ATOM      1  N   UNL     1       5.942  -4.355   0.000  0.00  0.00    +0.000 NA
ATOM      2  C   UNL     1       5.228  -3.942   0.000  0.00  0.00    +0.000 C 
ATOM      3  C   UNL     1       5.228  -3.118   0.000  0.00  0.00    +0.000 C 
ATOM      4  N   UNL     1       5.942  -2.705   0.000  0.00  0.00    +0.000 NA
ATOM      5  C   UNL     1       6.657  -3.118   0.000  0.00  0.00    +0.000 C 
ATOM      6  C   UNL     1       6.657  -3.942   0.000  0.00  0.00    +0.000 C 
ENDROOT
BRANCH   1   7
ATOM      7  C   UNL     1       5.942  -5.180   0.000  0.00  0.00    +0.000 C 
BRANCH   7   8
ATOM      8  C   UNL     1       6.657  -5.593   0.000  0.00  0.00    +0.000 C 
BRANCH   8   9
ATOM      9  C   UNL     1       6.657  -6.418   0.000  0.00  0.00    +0.000 C 
BRANCH   9  10
ATOM     10  N   UNL     1       7.371  -6.830   0.000  0.00  0.00    +0.000 NA
BRANCH  10  11
ATOM     11  C   UNL     1       7.371  -7.655   0.000  0.00  0.00    +0.000 C 
BRANCH  11  13
ATOM     12  C   UNL     1       8.085  -8.893   0.000  0.00  0.00    +0.000 C 
ATOM     13  C   UNL     1       8.085  -8.068   0.000  0.00  0.00    +0.000 C 
ATOM     14  C   UNL     1       8.800  -7.655   0.000  0.00  0.00    +0.000 C 
ENDBRANCH  11  13
ENDBRANCH  10  11
BRANCH  10  15
ATOM     15  C   UNL     1       8.085  -6.418   0.000  0.00  0.00    +0.000 C 
BRANCH  15  16
ATOM     16  C   UNL     1       8.085  -5.593   0.000  0.00  0.00    +0.000 C 
ATOM     17  C   UNL     1       7.371  -5.180   0.000  0.00  0.00    +0.000 C 
ATOM     18  C   UNL     1       8.800  -5.180   0.000  0.00  0.00    +0.000 C 
ENDBRANCH  15  16
ENDBRANCH  10  15
ENDBRANCH   9  10
ENDBRANCH   8   9
ENDBRANCH   7   8
ENDBRANCH   1   7
BRANCH   4  19
ATOM     19  C   UNL     1       5.942  -1.880   0.000  0.00  0.00    +0.000 C 
BRANCH  19  20
ATOM     20  C   UNL     1       5.228  -1.468   0.000  0.00  0.00    +0.000 C 
BRANCH  20  21
ATOM     21  C   UNL     1       5.228  -0.642   0.000  0.00  0.00    +0.000 C 
BRANCH  21  22
ATOM     22  N   UNL     1       4.513  -0.230   0.000  0.00  0.00    +0.000 NA
ATOM     23  C   UNL     1       4.513   0.595   0.000  0.00  0.00    +0.000 A 
ATOM     24  N   UNL     1       3.846   1.080   0.000  0.00  0.00    +0.000 NA
ATOM     25  C   UNL     1       4.101   1.865   0.000  0.00  0.00    +0.000 A 
ATOM     26  C   UNL     1       3.688   2.579   0.000  0.00  0.00    +0.000 A 
ATOM     27  C   UNL     1       4.101   3.293   0.000  0.00  0.00    +0.000 A 
ATOM     28  C   UNL     1       4.926   3.293   0.000  0.00  0.00    +0.000 A 
ATOM     29  C   UNL     1       5.338   2.579   0.000  0.00  0.00    +0.000 A 
ATOM     30  C   UNL     1       4.926   1.865   0.000  0.00  0.00    +0.000 A 
ATOM     31  N   UNL     1       5.181   1.080   0.000  0.00  0.00    +0.000 NA
ENDBRANCH  21  22
ENDBRANCH  20  21
ENDBRANCH  19  20
ENDBRANCH   4  19
TORSDOF 12
