REMARK  Name = 
REMARK  4 active torsions:
REMARK  status: ('A' for Active; 'I' for Inactive)
REMARK    1  A    between atoms: O_2  and  C_3
REMARK    2  A    between atoms: C_35  and  C_49
REMARK    3  A    between atoms: N_51  and  S_52
REMARK    4  A    between atoms: S_52  and  C_55
REMARK                            x       y       z     vdW  Elec       q    Type
REMARK                         _______ _______ _______ _____ _____    ______ ____
ROOT
ATOM      1  C   UNL     1       8.072   0.667   0.000  0.00  0.00    +0.000 A 
ATOM      2  C   UNL     1       8.136  -0.155   0.000  0.00  0.00    +0.000 A 
ATOM      3  C   UNL     1       8.880  -0.511   0.000  0.00  0.00    +0.000 A 
ATOM      4  C   UNL     1       9.560  -0.044   0.000  0.00  0.00    +0.000 A 
ATOM      5  C   UNL     1       9.496   0.778   0.000  0.00  0.00    +0.000 A 
ATOM      6  C   UNL     1       8.752   1.134   0.000  0.00  0.00    +0.000 A 
ATOM      7  N   UNL     1      10.305  -0.400   0.000  0.00  0.00    +0.000 NA
ATOM      8  C   UNL     1      10.369  -1.223   0.000  0.00  0.00    +0.000 A 
ATOM      9  C   UNL     1      11.113  -1.579   0.000  0.00  0.00    +0.000 C 
ATOM     10  C   UNL     1      11.793  -1.112   0.000  0.00  0.00    +0.000 C 
ATOM     11  C   UNL     1      12.538  -1.468   0.000  0.00  0.00    +0.000 C 
ATOM     12  C   UNL     1      12.602  -2.290   0.000  0.00  0.00    +0.000 C 
ATOM     13  C   UNL     1      11.921  -2.757   0.000  0.00  0.00    +0.000 C 
ATOM     14  C   UNL     1      11.986  -3.579   0.000  0.00  0.00    +0.000 C 
ATOM     15  C   UNL     1      12.640  -4.082   0.000  0.00  0.00    +0.000 C 
ATOM     16  C   UNL     1      12.364  -4.859   0.000  0.00  0.00    +0.000 C 
ATOM     17  C   UNL     1      11.649  -4.798   0.000  0.00  0.00    +0.000 C 
ATOM     18  C   UNL     1      11.305  -4.046   0.000  0.00  0.00    +0.000 C 
ATOM     19  O   UNL     1      11.369  -4.869   0.000  0.00  0.00    +0.000 OA
ATOM     20  C   UNL     1      10.689  -5.335   0.000  0.00  0.00    +0.000 C 
ATOM     21  O   UNL     1      10.753  -6.158   0.000  0.00  0.00    +0.000 OA
ATOM     22  N   UNL     1       9.945  -4.979   0.000  0.00  0.00    +0.000 NA
ATOM     23  C   UNL     1       9.264  -5.446   0.000  0.00  0.00    +0.000 C 
ATOM     24  C   UNL     1       9.188  -6.268   0.000  0.00  0.00    +0.000 C 
ATOM     25  C   UNL     1       8.385  -6.680   0.000  0.00  0.00    +0.000 C 
ATOM     26  C   UNL     1       8.059  -7.438   0.000  0.00  0.00    +0.000 C 
ATOM     27  C   UNL     1       7.237  -7.362   0.000  0.00  0.00    +0.000 C 
ATOM     28  C   UNL     1       7.056  -6.557   0.000  0.00  0.00    +0.000 C 
ATOM     29  C   UNL     1       6.343  -6.004   0.000  0.00  0.00    +0.000 C 
ATOM     30  C   UNL     1       6.419  -5.182   0.000  0.00  0.00    +0.000 C 
ATOM     31  C   UNL     1       5.745  -4.706   0.000  0.00  0.00    +0.000 C 
ATOM     32  C   UNL     1       5.072  -4.229   0.000  0.00  0.00    +0.000 C 
ATOM     33  C   UNL     1       5.822  -3.884   0.000  0.00  0.00    +0.000 C 
ATOM     34  N   UNL     1       6.571  -3.539   0.000  0.00  0.00    +0.000 NA
ATOM     35  C   UNL     1       7.244  -4.016   0.000  0.00  0.00    +0.000 C 
ATOM     36  O   UNL     1       7.168  -4.838   0.000  0.00  0.00    +0.000 OA
ATOM     37  C   UNL     1       7.994  -3.671   0.000  0.00  0.00    +0.000 C 
ATOM     38  C   UNL     1       8.239  -2.884   0.000  0.00  0.00    +0.000 C 
ATOM     39  C   UNL     1       9.072  -2.979   0.000  0.00  0.00    +0.000 C 
ATOM     40  C   UNL     1       9.136  -3.801   0.000  0.00  0.00    +0.000 C 
ATOM     41  N   UNL     1       8.456  -4.268   0.000  0.00  0.00    +0.000 N 
ATOM     42  C   UNL     1       8.520  -5.090   0.000  0.00  0.00    +0.000 C 
ATOM     43  O   UNL     1       7.840  -5.557   0.000  0.00  0.00    +0.000 OA
ATOM     44  O   UNL     1       9.752  -2.512   0.000  0.00  0.00    +0.000 OA
ATOM     45  C   UNL     1       9.688  -1.689   0.000  0.00  0.00    +0.000 A 
ATOM     46  N   UNL     1       8.944  -1.334   0.000  0.00  0.00    +0.000 NA
ENDROOT
BRANCH  33  47
ATOM     47  C   UNL     1       5.477  -3.135   0.000  0.00  0.00    +0.000 C 
ATOM     48  O   UNL     1       4.655  -3.059   0.000  0.00  0.00    +0.000 OA
ATOM     49  N   UNL     1       5.953  -2.461   0.000  0.00  0.00    +0.000 NA
BRANCH  49  50
ATOM     50  S   UNL     1       5.609  -1.712   0.000  0.00  0.00    +0.000 S 
ATOM     51  O   UNL     1       6.358  -1.367   0.000  0.00  0.00    +0.000 OA
ATOM     52  O   UNL     1       4.859  -2.057   0.000  0.00  0.00    +0.000 OA
BRANCH  50  53
ATOM     53  C   UNL     1       5.264  -0.962   0.000  0.00  0.00    +0.000 C 
ATOM     54  C   UNL     1       5.942  -0.493   0.000  0.00  0.00    +0.000 C 
ATOM     55  C   UNL     1       4.466  -1.172   0.000  0.00  0.00    +0.000 C 
ATOM     56  C   UNL     1       4.683  -0.376   0.000  0.00  0.00    +0.000 C 
ENDBRANCH  50  53
ENDBRANCH  49  50
ENDBRANCH  33  47
BRANCH   1  58
ATOM     57  C   UNL     1       7.263   1.845   0.000  0.00  0.00    +0.000 C 
ATOM     58  O   UNL     1       7.327   1.023   0.000  0.00  0.00    +0.000 OA
ENDBRANCH   1  58
TORSDOF 4
