REMARK  Name = 
REMARK  7 active torsions:
REMARK  status: ('A' for Active; 'I' for Inactive)
REMARK    1  A    between atoms: C_4  and  N_6
REMARK    2  A    between atoms: C_9  and  C_10
REMARK    3  A    between atoms: C_14  and  C_15
REMARK    4  A    between atoms: C_15  and  C_16
REMARK    5  A    between atoms: O_24  and  C_25
REMARK    6  A    between atoms: O_24  and  P_33
REMARK    7  A    between atoms: C_25  and  C_38
REMARK                            x       y       z     vdW  Elec       q    Type
REMARK                         _______ _______ _______ _____ _____    ______ ____
ROOT
ATOM      1  C   UNL     1      -0.857  -0.357   0.000  0.00  0.00    +0.000 A 
ATOM      2  C   UNL     1      -0.444   0.357   0.000  0.00  0.00    +0.000 A 
ATOM      3  C   UNL     1       0.381   0.357   0.000  0.00  0.00    +0.000 A 
ATOM      4  C   UNL     1       0.793  -0.357   0.000  0.00  0.00    +0.000 A 
ATOM      5  C   UNL     1       1.618  -0.357   0.000  0.00  0.00    +0.000 C 
ATOM      6  C   UNL     1       2.031   0.357   0.000  0.00  0.00    +0.000 C 
ATOM      7  C   UNL     1       2.856   0.357   0.000  0.00  0.00    +0.000 C 
ATOM      8  C   UNL     1       3.268  -0.357   0.000  0.00  0.00    +0.000 C 
ATOM      9  C   UNL     1       2.856  -1.072   0.000  0.00  0.00    +0.000 C 
ATOM     10  C   UNL     1       2.031  -1.072   0.000  0.00  0.00    +0.000 C 
ATOM     11  C   UNL     1       1.618  -1.786   0.000  0.00  0.00    +0.000 C 
ATOM     12  C   UNL     1       0.793  -1.786   0.000  0.00  0.00    +0.000 C 
ATOM     13  C   UNL     1       0.381  -1.072   0.000  0.00  0.00    +0.000 A 
ATOM     14  C   UNL     1      -0.444  -1.072   0.000  0.00  0.00    +0.000 A 
ENDROOT
BRANCH   8  15
ATOM     15  C   UNL     1       3.900  -0.887   0.000  0.00  0.00    +0.000 C 
ATOM     16  F   UNL     1       4.532  -1.418   0.000  0.00  0.00    +0.000 F 
ATOM     17  F   UNL     1       3.370  -1.520   0.000  0.00  0.00    +0.000 F 
ATOM     18  F   UNL     1       4.430  -0.256   0.000  0.00  0.00    +0.000 F 
ENDBRANCH   8  15
BRANCH   1  20
ATOM     19  N   UNL     1      -2.094  -1.072   0.000  0.00  0.00    +0.000 NA
ATOM     20  C   UNL     1      -1.682  -0.357   0.000  0.00  0.00    +0.000 C 
ATOM     21  O   UNL     1      -2.094   0.357   0.000  0.00  0.00    +0.000 OA
BRANCH  19  25
ATOM     22  N   UNL     1      -4.157  -1.786   0.000  0.00  0.00    +0.000 NA
ATOM     23  C   UNL     1      -4.569  -1.072   0.000  0.00  0.00    +0.000 A 
ATOM     24  C   UNL     1      -3.332  -1.786   0.000  0.00  0.00    +0.000 A 
ATOM     25  C   UNL     1      -2.919  -1.072   0.000  0.00  0.00    +0.000 A 
ATOM     26  C   UNL     1      -2.919  -2.501   0.000  0.00  0.00    +0.000 C 
ATOM     27  C   UNL     1      -3.332  -0.357   0.000  0.00  0.00    +0.000 A 
ATOM     28  C   UNL     1      -4.157  -0.357   0.000  0.00  0.00    +0.000 A 
ENDBRANCH  19  25
ENDBRANCH   1  20
BRANCH   5  29
ATOM     29  C   UNL     1       1.206   0.357   0.000  0.00  0.00    +0.000 C 
BRANCH  29  30
ATOM     30  C   UNL     1       1.618   1.072   0.000  0.00  0.00    +0.000 A 
ATOM     31  C   UNL     1       2.443   1.072   0.000  0.00  0.00    +0.000 A 
ATOM     32  C   UNL     1       2.856   1.786   0.000  0.00  0.00    +0.000 A 
ATOM     33  C   UNL     1       2.443   2.501   0.000  0.00  0.00    +0.000 A 
ATOM     34  C   UNL     1       1.618   2.501   0.000  0.00  0.00    +0.000 A 
ATOM     35  C   UNL     1       1.206   1.786   0.000  0.00  0.00    +0.000 A 
ENDBRANCH  29  30
ENDBRANCH   5  29
BRANCH   8  36
ATOM     36  O   UNL     1       3.900   0.173   0.000  0.00  0.00    +0.000 OA
BRANCH  36  37
ATOM     37  P   UNL     1       3.757   0.986   0.000  0.00  0.00    +0.000 P 
ATOM     38  O   UNL     1       3.614   1.798   0.000  0.00  0.00    +0.000 OA
ATOM     39  O   UNL     1       4.569   1.129   0.000  0.00  0.00    +0.000 OA
ATOM     40  O   UNL     1       2.944   0.842   0.000  0.00  0.00    +0.000 OA
ENDBRANCH  36  37
ENDBRANCH   8  36
TORSDOF 7
