REMARK  Name = 
REMARK  5 active torsions:
REMARK  status: ('A' for Active; 'I' for Inactive)
REMARK    1  A    between atoms: N_6  and  C_7
REMARK    2  A    between atoms: C_14  and  C_16
REMARK    3  A    between atoms: C_16  and  C_18
REMARK    4  A    between atoms: C_18  and  S_19
REMARK    5  A    between atoms: S_19  and  C_22
REMARK                            x       y       z     vdW  Elec       q    Type
REMARK                         _______ _______ _______ _____ _____    ______ ____
ROOT
ATOM      1  C   UNL     1      -0.357   0.412   0.000  0.00  0.00    +0.000 C 
ATOM      2  O   UNL     1      -0.357  -0.412   0.000  0.00  0.00    +0.000 OA
ENDROOT
BRANCH   1   9
ATOM      3  C   UNL     1      -3.215  -0.412   0.000  0.00  0.00    +0.000 C 
ATOM      4  C   UNL     1      -2.501   0.825   0.000  0.00  0.00    +0.000 C 
ATOM      5  C   UNL     1      -3.215   0.412   0.000  0.00  0.00    +0.000 C 
ATOM      6  C   UNL     1      -2.501  -0.825   0.000  0.00  0.00    +0.000 C 
ATOM      7  C   UNL     1      -1.786  -0.412   0.000  0.00  0.00    +0.000 C 
ATOM      8  N   UNL     1      -1.786   0.412   0.000  0.00  0.00    +0.000 N 
ATOM      9  C   UNL     1      -1.072   0.825   0.000  0.00  0.00    +0.000 C 
ATOM     10  O   UNL     1      -1.072   1.650   0.000  0.00  0.00    +0.000 OA
BRANCH   3  16
ATOM     11  C   UNL     1      -4.644  -0.412   0.000  0.00  0.00    +0.000 C 
ATOM     12  C   UNL     1      -5.359  -0.825   0.000  0.00  0.00    +0.000 C 
ATOM     13  C   UNL     1      -5.359  -1.650   0.000  0.00  0.00    +0.000 C 
ATOM     14  N   UNL     1      -4.644  -2.062   0.000  0.00  0.00    +0.000 NA
ATOM     15  C   UNL     1      -3.930  -1.650   0.000  0.00  0.00    +0.000 C 
ATOM     16  N   UNL     1      -3.930  -0.825   0.000  0.00  0.00    +0.000 N 
ATOM     17  O   UNL     1      -3.215  -2.062   0.000  0.00  0.00    +0.000 OA
ENDBRANCH   3  16
ENDBRANCH   1   9
BRANCH   1  18
ATOM     18  C   UNL     1       0.357   0.825   0.000  0.00  0.00    +0.000 C 
BRANCH  18  19
ATOM     19  S   UNL     1       1.072   0.412   0.000  0.00  0.00    +0.000 S 
ATOM     20  O   UNL     1       0.622  -0.236   0.000  0.00  0.00    +0.000 OA
ATOM     21  O   UNL     1       1.396  -0.265   0.000  0.00  0.00    +0.000 OA
BRANCH  19  22
ATOM     22  C   UNL     1       1.786   0.825   0.000  0.00  0.00    +0.000 A 
ATOM     23  C   UNL     1       2.501   2.062   0.000  0.00  0.00    +0.000 A 
ATOM     24  C   UNL     1       1.786   1.650   0.000  0.00  0.00    +0.000 A 
ATOM     25  C   UNL     1       2.501   0.412   0.000  0.00  0.00    +0.000 A 
ATOM     26  C   UNL     1       3.215   0.825   0.000  0.00  0.00    +0.000 A 
ATOM     27  C   UNL     1       3.215   1.650   0.000  0.00  0.00    +0.000 A 
ATOM     28  C   UNL     1       3.930   2.062   0.000  0.00  0.00    +0.000 A 
ATOM     29  C   UNL     1       3.930   0.412   0.000  0.00  0.00    +0.000 A 
ATOM     30  C   UNL     1       4.644   0.825   0.000  0.00  0.00    +0.000 A 
ATOM     31  C   UNL     1       4.644   1.650   0.000  0.00  0.00    +0.000 A 
ATOM     32 CL   UNL     1       5.358   2.062   0.000  0.00  0.00    +0.000 Cl
ENDBRANCH  19  22
ENDBRANCH  18  19
ENDBRANCH   1  18
TORSDOF 5
