REMARK  Name = 
REMARK  14 active torsions:
REMARK  status: ('A' for Active; 'I' for Inactive)
REMARK    1  A    between atoms: C_1  and  O_7
REMARK    2  A    between atoms: C_5  and  C_11
REMARK    3  A    between atoms: O_7  and  C_18
REMARK    4  A    between atoms: C_13  and  O_19
REMARK    5  A    between atoms: C_17  and  C_22
REMARK    6  A    between atoms: O_19  and  C_29
REMARK    7  A    between atoms: C_24  and  O_30
REMARK    8  A    between atoms: C_28  and  C_33
REMARK    9  A    between atoms: O_30  and  C_37
REMARK   10  A    between atoms: C_35  and  C_36
REMARK   11  A    between atoms: C_35  and  C_40
REMARK   12  A    between atoms: C_36  and  C_37
REMARK   13  A    between atoms: C_37  and  C_38
REMARK   14  A    between atoms: C_38  and  C_39
REMARK                            x       y       z     vdW  Elec       q    Type
REMARK                         _______ _______ _______ _____ _____    ______ ____
ROOT
ATOM      1  O   UNL     1       0.755  -0.192   0.000  0.00  0.00    +0.000 OA
ENDROOT
BRANCH   1   7
ATOM      2  C   UNL     1       2.898   1.046   0.000  0.00  0.00    +0.000 C 
ATOM      3  C   UNL     1       2.898   0.221   0.000  0.00  0.00    +0.000 C 
ATOM      4  O   UNL     1       2.184   1.458   0.000  0.00  0.00    +0.000 OA
ATOM      5  C   UNL     1       2.184  -0.192   0.000  0.00  0.00    +0.000 C 
ATOM      6  C   UNL     1       1.469   1.046   0.000  0.00  0.00    +0.000 C 
ATOM      7  C   UNL     1       1.469   0.221   0.000  0.00  0.00    +0.000 C 
ATOM      8  O   UNL     1       3.613  -0.192   0.000  0.00  0.00    +0.000 OA
ATOM      9  O   UNL     1       2.184  -1.016   0.000  0.00  0.00    +0.000 OA
BRANCH   6  10
ATOM     10  C   UNL     1       0.755   1.458   0.000  0.00  0.00    +0.000 C 
ATOM     11  O   UNL     1       0.040   1.046   0.000  0.00  0.00    +0.000 OA
ENDBRANCH   6  10
BRANCH   2  12
ATOM     12  O   UNL     1       3.613   1.458   0.000  0.00  0.00    +0.000 OA
BRANCH  12  13
ATOM     13  C   UNL     1       4.438   1.458   0.000  0.00  0.00    +0.000 C 
BRANCH  13  14
ATOM     14  C   UNL     1       4.850   0.744   0.000  0.00  0.00    +0.000 C 
ATOM     15  O   UNL     1       5.675   0.744   0.000  0.00  0.00    +0.000 OA
BRANCH  14  16
ATOM     16  C   UNL     1       4.438   0.029   0.000  0.00  0.00    +0.000 C 
ATOM     17  O   UNL     1       4.850  -0.685   0.000  0.00  0.00    +0.000 OA
ENDBRANCH  14  16
ENDBRANCH  13  14
BRANCH  13  18
ATOM     18  C   UNL     1       4.850   2.173   0.000  0.00  0.00    +0.000 C 
ATOM     19  O   UNL     1       5.675   2.173   0.000  0.00  0.00    +0.000 OA
BRANCH  18  20
ATOM     20  C   UNL     1       4.438   2.887   0.000  0.00  0.00    +0.000 C 
ATOM     21  O   UNL     1       3.613   2.887   0.000  0.00  0.00    +0.000 OA
BRANCH  20  22
ATOM     22  C   UNL     1       4.850   3.602   0.000  0.00  0.00    +0.000 C 
ATOM     23  O   UNL     1       4.438   4.316   0.000  0.00  0.00    +0.000 OA
ENDBRANCH  20  22
ENDBRANCH  18  20
ENDBRANCH  13  18
ENDBRANCH  12  13
ENDBRANCH   2  12
ENDBRANCH   1   7
BRANCH   1  24
ATOM     24  C   UNL     1       0.040  -0.604   0.000  0.00  0.00    +0.000 C 
ATOM     25  C   UNL     1       0.040  -1.429   0.000  0.00  0.00    +0.000 C 
ATOM     26  O   UNL     1      -0.674  -0.192   0.000  0.00  0.00    +0.000 OA
ATOM     27  C   UNL     1      -0.674  -1.841   0.000  0.00  0.00    +0.000 C 
ATOM     28  C   UNL     1      -1.388  -0.604   0.000  0.00  0.00    +0.000 C 
ATOM     29  C   UNL     1      -1.388  -1.429   0.000  0.00  0.00    +0.000 C 
ATOM     30  O   UNL     1       0.755  -1.841   0.000  0.00  0.00    +0.000 OA
ATOM     31  O   UNL     1      -0.674  -2.666   0.000  0.00  0.00    +0.000 OA
BRANCH  28  32
ATOM     32  C   UNL     1      -2.103  -0.192   0.000  0.00  0.00    +0.000 C 
ATOM     33  O   UNL     1      -2.817  -0.604   0.000  0.00  0.00    +0.000 OA
ENDBRANCH  28  32
BRANCH  29  34
ATOM     34  O   UNL     1      -2.103  -1.841   0.000  0.00  0.00    +0.000 OA
BRANCH  34  35
ATOM     35  C   UNL     1      -2.817  -2.254   0.000  0.00  0.00    +0.000 C 
ATOM     36  C   UNL     1      -2.817  -3.079   0.000  0.00  0.00    +0.000 C 
ATOM     37  O   UNL     1      -3.532  -1.841   0.000  0.00  0.00    +0.000 OA
ATOM     38  C   UNL     1      -3.532  -3.491   0.000  0.00  0.00    +0.000 C 
ATOM     39  C   UNL     1      -4.246  -2.254   0.000  0.00  0.00    +0.000 C 
ATOM     40  C   UNL     1      -4.246  -3.079   0.000  0.00  0.00    +0.000 C 
ATOM     41  O   UNL     1      -2.103  -3.491   0.000  0.00  0.00    +0.000 OA
ATOM     42  O   UNL     1      -3.532  -4.316   0.000  0.00  0.00    +0.000 OA
ATOM     43  O   UNL     1      -4.961  -3.491   0.000  0.00  0.00    +0.000 OA
BRANCH  39  44
ATOM     44  C   UNL     1      -4.961  -1.841   0.000  0.00  0.00    +0.000 C 
ATOM     45  O   UNL     1      -5.675  -2.254   0.000  0.00  0.00    +0.000 OA
ENDBRANCH  39  44
ENDBRANCH  34  35
ENDBRANCH  29  34
ENDBRANCH   1  24
TORSDOF 14
