REMARK  Name = 
REMARK  5 active torsions:
REMARK  status: ('A' for Active; 'I' for Inactive)
REMARK    1  A    between atoms: N_8  and  C_11
REMARK    2  A    between atoms: C_10  and  C_17
REMARK    3  A    between atoms: C_11  and  C_12
REMARK    4  A    between atoms: C_12  and  N_13
REMARK    5  A    between atoms: C_17  and  C_18
REMARK                            x       y       z     vdW  Elec       q    Type
REMARK                         _______ _______ _______ _____ _____    ______ ____
ROOT
ATOM      1  C   UNL     1      -3.505   1.762   0.000  0.00  0.00    +0.000 A 
ATOM      2  C   UNL     1      -4.219   1.350   0.000  0.00  0.00    +0.000 A 
ATOM      3  C   UNL     1      -4.219   0.525   0.000  0.00  0.00    +0.000 A 
ATOM      4  C   UNL     1      -3.505   0.112   0.000  0.00  0.00    +0.000 A 
ATOM      5  C   UNL     1      -2.790   0.525   0.000  0.00  0.00    +0.000 A 
ATOM      6  C   UNL     1      -2.790   1.350   0.000  0.00  0.00    +0.000 A 
ATOM      7  C   UNL     1      -2.075   0.112   0.000  0.00  0.00    +0.000 A 
ATOM      8  N   UNL     1      -1.361   0.525   0.000  0.00  0.00    +0.000 N 
ATOM      9  N   UNL     1      -1.361   1.350   0.000  0.00  0.00    +0.000 NA
ATOM     10  C   UNL     1      -2.075   1.762   0.000  0.00  0.00    +0.000 A 
ATOM     11  O   UNL     1      -2.075  -0.713   0.000  0.00  0.00    +0.000 OA
ENDROOT
BRANCH   8  12
ATOM     12  C   UNL     1      -0.646   0.113   0.000  0.00  0.00    +0.000 C 
BRANCH  12  13
ATOM     13  C   UNL     1       0.068   0.525   0.000  0.00  0.00    +0.000 C 
BRANCH  13  14
ATOM     14  N   UNL     1       0.782   0.113   0.000  0.00  0.00    +0.000 NA
ATOM     15  C   UNL     1       1.497   0.525   0.000  0.00  0.00    +0.000 C 
ATOM     16  C   UNL     1       0.782  -0.712   0.000  0.00  0.00    +0.000 C 
ENDBRANCH  13  14
ENDBRANCH  12  13
ENDBRANCH   8  12
BRANCH  10  17
ATOM     17  C   UNL     1      -2.075   2.587   0.000  0.00  0.00    +0.000 C 
BRANCH  17  18
ATOM     18  C   UNL     1      -1.361   3.000   0.000  0.00  0.00    +0.000 A 
ATOM     19  C   UNL     1      -0.647   2.587   0.000  0.00  0.00    +0.000 A 
ATOM     20  C   UNL     1       0.068   3.000   0.000  0.00  0.00    +0.000 A 
ATOM     21  C   UNL     1       0.068   3.825   0.000  0.00  0.00    +0.000 A 
ATOM     22  C   UNL     1      -0.646   4.238   0.000  0.00  0.00    +0.000 A 
ATOM     23  C   UNL     1      -1.361   3.825   0.000  0.00  0.00    +0.000 A 
ENDBRANCH  17  18
ENDBRANCH  10  17
TORSDOF 5
