REMARK  Name = 
REMARK  66 active torsions:
REMARK  status: ('A' for Active; 'I' for Inactive)
REMARK    1  A    between atoms: P_1  and  O_7
REMARK    2  A    between atoms: P_2  and  O_10
REMARK    3  A    between atoms: O_4  and  C_30
REMARK    4  A    between atoms: O_4  and  C_37
REMARK    5  A    between atoms: O_6  and  C_27
REMARK    6  A    between atoms: O_6  and  C_39
REMARK    7  A    between atoms: O_7  and  C_29
REMARK    8  A    between atoms: O_8  and  C_33
REMARK    9  A    between atoms: O_8  and  C_40
REMARK   10  A    between atoms: O_10  and  C_36
REMARK   11  A    between atoms: O_11  and  C_38
REMARK   12  A    between atoms: O_12  and  C_43
REMARK   13  A    between atoms: O_12  and  C_62
REMARK   14  A    between atoms: N_25  and  C_28
REMARK   15  A    between atoms: N_26  and  C_35
REMARK   16  A    between atoms: C_31  and  C_38
REMARK   17  A    between atoms: C_32  and  C_37
REMARK   18  A    between atoms: C_39  and  C_42
REMARK   19  A    between atoms: C_40  and  C_44
REMARK   20  A    between atoms: C_41  and  C_46
REMARK   21  A    between atoms: C_42  and  C_43
REMARK   22  A    between atoms: C_43  and  C_48
REMARK   23  A    between atoms: C_44  and  C_47
REMARK   24  A    between atoms: C_45  and  C_49
REMARK   25  A    between atoms: C_46  and  C_53
REMARK   26  A    between atoms: C_47  and  C_50
REMARK   27  A    between atoms: C_48  and  C_52
REMARK   28  A    between atoms: C_49  and  C_56
REMARK   29  A    between atoms: C_50  and  C_54
REMARK   30  A    between atoms: C_52  and  C_55
REMARK   31  A    between atoms: C_53  and  C_57
REMARK   32  A    between atoms: C_54  and  C_58
REMARK   33  A    between atoms: C_55  and  C_59
REMARK   34  A    between atoms: C_56  and  C_60
REMARK   35  A    between atoms: C_57  and  C_61
REMARK   36  A    between atoms: C_58  and  C_63
REMARK   37  A    between atoms: C_59  and  C_65
REMARK   38  A    between atoms: C_60  and  C_64
REMARK   39  A    between atoms: C_61  and  C_66
REMARK   40  A    between atoms: C_62  and  C_67
REMARK   41  A    between atoms: C_63  and  C_69
REMARK   42  A    between atoms: C_64  and  C_68
REMARK   43  A    between atoms: C_65  and  C_71
REMARK   44  A    between atoms: C_66  and  C_70
REMARK   45  A    between atoms: C_67  and  C_72
REMARK   46  A    between atoms: C_68  and  C_73
REMARK   47  A    between atoms: C_69  and  C_75
REMARK   48  A    between atoms: C_70  and  C_74
REMARK   49  A    between atoms: C_72  and  C_78
REMARK   50  A    between atoms: C_73  and  C_76
REMARK   51  A    between atoms: C_74  and  C_77
REMARK   52  A    between atoms: C_76  and  C_80
REMARK   53  A    between atoms: C_77  and  C_81
REMARK   54  A    between atoms: C_78  and  C_85
REMARK   55  A    between atoms: C_80  and  C_83
REMARK   56  A    between atoms: C_81  and  C_84
REMARK   57  A    between atoms: C_83  and  C_86
REMARK   58  A    between atoms: C_84  and  C_87
REMARK   59  A    between atoms: C_86  and  C_88
REMARK   60  A    between atoms: C_87  and  C_90
REMARK   61  A    between atoms: C_88  and  C_92
REMARK   62  A    between atoms: C_89  and  C_91
REMARK   63  A    between atoms: C_91  and  C_93
REMARK   64  A    between atoms: C_93  and  C_96
REMARK   65  A    between atoms: C_96  and  C_97
REMARK   66  A    between atoms: C_97  and  C_98
REMARK                            x       y       z     vdW  Elec       q    Type
REMARK                         _______ _______ _______ _____ _____    ______ ____
ROOT
ATOM      1  O   UNL     1      -1.429  -2.681   0.000  0.00  0.00    +0.000 OA
ATOM      2  C   UNL     1      -2.858  -1.856   0.000  0.00  0.00    +0.000 C 
ATOM      3  C   UNL     1      -2.143  -1.444   0.000  0.00  0.00    +0.000 C 
ATOM      4  C   UNL     1      -2.858  -2.681   0.000  0.00  0.00    +0.000 C 
ATOM      5  C   UNL     1      -1.429  -1.856   0.000  0.00  0.00    +0.000 C 
ATOM      6  C   UNL     1      -2.143  -3.094   0.000  0.00  0.00    +0.000 C 
ENDROOT
BRANCH   3   8
ATOM      7  O   UNL     1      -0.714  -0.619   0.000  0.00  0.00    +0.000 OA
ATOM      8  N   UNL     1      -2.143  -0.619   0.000  0.00  0.00    +0.000 N 
ATOM      9  C   UNL     1      -1.429  -0.206   0.000  0.00  0.00    +0.000 C 
ATOM     10  H   UNL     1      -2.586  -0.363   0.000  0.00  0.00    +0.000 HD
BRANCH   9  11
ATOM     11  C   UNL     1      -1.429   0.619   0.000  0.00  0.00    +0.000 C 
BRANCH  11  13
ATOM     12  O   UNL     1      -2.858   0.619   0.000  0.00  0.00    +0.000 OA
ATOM     13  C   UNL     1      -2.143   1.031   0.000  0.00  0.00    +0.000 C 
BRANCH  13  14
ATOM     14  C   UNL     1      -2.143   1.856   0.000  0.00  0.00    +0.000 C 
BRANCH  14  15
ATOM     15  C   UNL     1      -2.858   2.269   0.000  0.00  0.00    +0.000 C 
BRANCH  15  16
ATOM     16  C   UNL     1      -2.858   3.094   0.000  0.00  0.00    +0.000 C 
BRANCH  16  17
ATOM     17  C   UNL     1      -3.572   3.506   0.000  0.00  0.00    +0.000 C 
BRANCH  17  18
ATOM     18  C   UNL     1      -3.572   4.331   0.000  0.00  0.00    +0.000 C 
BRANCH  18  19
ATOM     19  C   UNL     1      -4.287   4.744   0.000  0.00  0.00    +0.000 C 
BRANCH  19  20
ATOM     20  C   UNL     1      -4.287   5.569   0.000  0.00  0.00    +0.000 C 
BRANCH  20  21
ATOM     21  C   UNL     1      -5.001   5.981   0.000  0.00  0.00    +0.000 C 
BRANCH  21  22
ATOM     22  C   UNL     1      -5.001   6.806   0.000  0.00  0.00    +0.000 C 
BRANCH  22  23
ATOM     23  C   UNL     1      -5.716   7.219   0.000  0.00  0.00    +0.000 C 
ATOM     24  C   UNL     1      -5.716   8.044   0.000  0.00  0.00    +0.000 C 
ENDBRANCH  22  23
ENDBRANCH  21  22
ENDBRANCH  20  21
ENDBRANCH  19  20
ENDBRANCH  18  19
ENDBRANCH  17  18
ENDBRANCH  16  17
ENDBRANCH  15  16
ENDBRANCH  14  15
ENDBRANCH  13  14
ENDBRANCH  11  13
ENDBRANCH   9  11
ENDBRANCH   3   8
BRANCH   6  25
ATOM     25  C   UNL     1      -2.143  -3.919   0.000  0.00  0.00    +0.000 C 
BRANCH  25  26
ATOM     26  O   UNL     1      -1.429  -4.331   0.000  0.00  0.00    +0.000 OA
ATOM     27  C   UNL     1      -1.429  -5.156   0.000  0.00  0.00    +0.000 C 
ENDBRANCH  25  26
ENDBRANCH   6  25
BRANCH   4  28
ATOM     28  O   UNL     1      -3.572  -3.094   0.000  0.00  0.00    +0.000 OA
BRANCH  28  29
ATOM     29  P   UNL     1      -3.572  -3.919   0.000  0.00  0.00    +0.000 P 
ATOM     30  O   UNL     1      -4.397  -3.919   0.000  0.00  0.00    +0.000 OA
ATOM     31  O   UNL     1      -3.572  -4.744   0.000  0.00  0.00    +0.000 OA
ATOM     32  O   UNL     1      -2.747  -3.919   0.000  0.00  0.00    +0.000 OA
ENDBRANCH  28  29
ENDBRANCH   4  28
BRANCH   5  33
ATOM     33  O   UNL     1      -0.714  -1.444   0.000  0.00  0.00    +0.000 OA
BRANCH  33  34
ATOM     34  C   UNL     1       0.000  -1.856   0.000  0.00  0.00    +0.000 C 
BRANCH  34  37
ATOM     35  O   UNL     1       0.714  -0.619   0.000  0.00  0.00    +0.000 OA
ATOM     36  O   UNL     1       1.429  -2.681   0.000  0.00  0.00    +0.000 OA
ATOM     37  C   UNL     1       0.714  -1.444   0.000  0.00  0.00    +0.000 C 
ATOM     38  C   UNL     1       2.143  -1.444   0.000  0.00  0.00    +0.000 C 
ATOM     39  C   UNL     1       1.429  -1.856   0.000  0.00  0.00    +0.000 C 
ATOM     40  C   UNL     1       2.143  -0.619   0.000  0.00  0.00    +0.000 C 
ATOM     41  C   UNL     1       1.429  -0.206   0.000  0.00  0.00    +0.000 C 
BRANCH  40  43
ATOM     42  O   UNL     1       3.572  -1.444   0.000  0.00  0.00    +0.000 OA
ATOM     43  N   UNL     1       2.858  -0.206   0.000  0.00  0.00    +0.000 N 
ATOM     44  C   UNL     1       3.572  -0.619   0.000  0.00  0.00    +0.000 C 
ATOM     45  H   UNL     1       2.858   0.305   0.000  0.00  0.00    +0.000 HD
BRANCH  44  46
ATOM     46  C   UNL     1       4.287  -0.206   0.000  0.00  0.00    +0.000 C 
BRANCH  46  48
ATOM     47  O   UNL     1       5.001  -1.444   0.000  0.00  0.00    +0.000 OA
ATOM     48  C   UNL     1       5.001  -0.619   0.000  0.00  0.00    +0.000 C 
BRANCH  48  49
ATOM     49  C   UNL     1       5.716  -0.206   0.000  0.00  0.00    +0.000 C 
BRANCH  49  50
ATOM     50  C   UNL     1       6.430  -0.619   0.000  0.00  0.00    +0.000 C 
BRANCH  50  51
ATOM     51  C   UNL     1       7.145  -0.206   0.000  0.00  0.00    +0.000 C 
BRANCH  51  52
ATOM     52  C   UNL     1       7.859  -0.619   0.000  0.00  0.00    +0.000 C 
BRANCH  52  53
ATOM     53  C   UNL     1       8.574  -0.206   0.000  0.00  0.00    +0.000 C 
BRANCH  53  54
ATOM     54  C   UNL     1       9.288  -0.619   0.000  0.00  0.00    +0.000 C 
BRANCH  54  55
ATOM     55  C   UNL     1      10.002  -0.206   0.000  0.00  0.00    +0.000 C 
BRANCH  55  56
ATOM     56  C   UNL     1      10.717  -0.619   0.000  0.00  0.00    +0.000 C 
BRANCH  56  57
ATOM     57  C   UNL     1      11.431  -0.206   0.000  0.00  0.00    +0.000 C 
BRANCH  57  58
ATOM     58  C   UNL     1      12.146  -0.619   0.000  0.00  0.00    +0.000 C 
ATOM     59  C   UNL     1      12.860  -0.206   0.000  0.00  0.00    +0.000 C 
ENDBRANCH  57  58
ENDBRANCH  56  57
ENDBRANCH  55  56
ENDBRANCH  54  55
ENDBRANCH  53  54
ENDBRANCH  52  53
ENDBRANCH  51  52
ENDBRANCH  50  51
ENDBRANCH  49  50
ENDBRANCH  48  49
ENDBRANCH  46  48
ENDBRANCH  44  46
ENDBRANCH  40  43
BRANCH  41  60
ATOM     60  O   UNL     1       1.429   0.619   0.000  0.00  0.00    +0.000 OA
BRANCH  60  61
ATOM     61  P   UNL     1       0.714   1.031   0.000  0.00  0.00    +0.000 P 
ATOM     62  O   UNL     1       1.127   1.746   0.000  0.00  0.00    +0.000 OA
ATOM     63  O   UNL     1       0.000   1.444   0.000  0.00  0.00    +0.000 OA
ATOM     64  O   UNL     1       0.302   0.317   0.000  0.00  0.00    +0.000 OA
ENDBRANCH  60  61
ENDBRANCH  41  60
BRANCH  38  65
ATOM     65  O   UNL     1       2.858  -1.856   0.000  0.00  0.00    +0.000 OA
BRANCH  65  66
ATOM     66  C   UNL     1       2.858  -2.681   0.000  0.00  0.00    +0.000 C 
BRANCH  66  67
ATOM     67  C   UNL     1       3.572  -3.094   0.000  0.00  0.00    +0.000 C 
BRANCH  67  69
ATOM     68  O   UNL     1       2.858  -4.331   0.000  0.00  0.00    +0.000 OA
ATOM     69  C   UNL     1       3.572  -3.919   0.000  0.00  0.00    +0.000 C 
BRANCH  69  70
ATOM     70  C   UNL     1       4.287  -4.331   0.000  0.00  0.00    +0.000 C 
BRANCH  70  71
ATOM     71  C   UNL     1       4.287  -5.156   0.000  0.00  0.00    +0.000 C 
BRANCH  71  72
ATOM     72  C   UNL     1       5.001  -5.569   0.000  0.00  0.00    +0.000 C 
BRANCH  72  73
ATOM     73  C   UNL     1       5.001  -6.394   0.000  0.00  0.00    +0.000 C 
BRANCH  73  74
ATOM     74  C   UNL     1       5.716  -6.806   0.000  0.00  0.00    +0.000 C 
BRANCH  74  75
ATOM     75  C   UNL     1       5.716  -7.631   0.000  0.00  0.00    +0.000 C 
ATOM     76  C   UNL     1       6.430  -8.044   0.000  0.00  0.00    +0.000 C 
ENDBRANCH  74  75
ENDBRANCH  73  74
ENDBRANCH  72  73
ENDBRANCH  71  72
ENDBRANCH  70  71
ENDBRANCH  69  70
ENDBRANCH  67  69
ENDBRANCH  66  67
ENDBRANCH  65  66
ENDBRANCH  38  65
ENDBRANCH  34  37
ENDBRANCH  33  34
ENDBRANCH   5  33
BRANCH   2  77
ATOM     77  O   UNL     1      -3.572  -1.444   0.000  0.00  0.00    +0.000 OA
BRANCH  77  78
ATOM     78  C   UNL     1      -4.287  -1.856   0.000  0.00  0.00    +0.000 C 
BRANCH  78  79
ATOM     79  C   UNL     1      -5.001  -1.444   0.000  0.00  0.00    +0.000 C 
BRANCH  79  80
ATOM     80  C   UNL     1      -5.716  -1.856   0.000  0.00  0.00    +0.000 C 
BRANCH  80  81
ATOM     81  C   UNL     1      -5.716  -2.681   0.000  0.00  0.00    +0.000 C 
BRANCH  81  82
ATOM     82  C   UNL     1      -6.430  -3.094   0.000  0.00  0.00    +0.000 C 
BRANCH  82  83
ATOM     83  C   UNL     1      -6.430  -3.919   0.000  0.00  0.00    +0.000 C 
BRANCH  83  84
ATOM     84  C   UNL     1      -7.145  -4.331   0.000  0.00  0.00    +0.000 C 
BRANCH  84  85
ATOM     85  C   UNL     1      -7.145  -5.156   0.000  0.00  0.00    +0.000 C 
BRANCH  85  86
ATOM     86  C   UNL     1      -7.859  -5.569   0.000  0.00  0.00    +0.000 C 
ATOM     87  C   UNL     1      -7.859  -6.394   0.000  0.00  0.00    +0.000 C 
ENDBRANCH  85  86
ENDBRANCH  84  85
ENDBRANCH  83  84
ENDBRANCH  82  83
ENDBRANCH  81  82
ENDBRANCH  80  81
BRANCH  80  88
ATOM     88  O   UNL     1      -6.430  -1.444   0.000  0.00  0.00    +0.000 OA
BRANCH  88  90
ATOM     89  O   UNL     1      -7.145  -2.681   0.000  0.00  0.00    +0.000 OA
ATOM     90  C   UNL     1      -7.145  -1.856   0.000  0.00  0.00    +0.000 C 
BRANCH  90  91
ATOM     91  C   UNL     1      -7.859  -1.444   0.000  0.00  0.00    +0.000 C 
BRANCH  91  92
ATOM     92  C   UNL     1      -8.574  -1.856   0.000  0.00  0.00    +0.000 C 
BRANCH  92  93
ATOM     93  C   UNL     1      -9.288  -1.444   0.000  0.00  0.00    +0.000 C 
BRANCH  93  94
ATOM     94  C   UNL     1     -10.002  -1.856   0.000  0.00  0.00    +0.000 C 
ATOM     95  C   UNL     1     -10.717  -1.444   0.000  0.00  0.00    +0.000 C 
BRANCH  95  96
ATOM     96  C   UNL     1     -10.717  -0.619   0.000  0.00  0.00    +0.000 C 
BRANCH  96  97
ATOM     97  C   UNL     1     -11.431  -0.206   0.000  0.00  0.00    +0.000 C 
BRANCH  97  98
ATOM     98  C   UNL     1     -11.431   0.619   0.000  0.00  0.00    +0.000 C 
BRANCH  98  99
ATOM     99  C   UNL     1     -12.146   1.031   0.000  0.00  0.00    +0.000 C 
BRANCH  99 100
ATOM    100  C   UNL     1     -12.146   1.856   0.000  0.00  0.00    +0.000 C 
ATOM    101  C   UNL     1     -12.860   2.269   0.000  0.00  0.00    +0.000 C 
ENDBRANCH  99 100
ENDBRANCH  98  99
ENDBRANCH  97  98
ENDBRANCH  96  97
ENDBRANCH  95  96
ENDBRANCH  93  94
ENDBRANCH  92  93
ENDBRANCH  91  92
ENDBRANCH  90  91
ENDBRANCH  88  90
ENDBRANCH  80  88
ENDBRANCH  79  80
ENDBRANCH  78  79
ENDBRANCH  77  78
ENDBRANCH   2  77
TORSDOF 66
