REMARK  Name = 
REMARK  3 active torsions:
REMARK  status: ('A' for Active; 'I' for Inactive)
REMARK    1  A    between atoms: N_26  and  O_27
REMARK    2  A    between atoms: O_27  and  C_28
REMARK    3  A    between atoms: C_28  and  C_29
REMARK                            x       y       z     vdW  Elec       q    Type
REMARK                         _______ _______ _______ _____ _____    ______ ____
ROOT
ATOM      1  C   UNL     1       0.794  -0.107   0.000  0.00  0.00    +0.000 C 
ATOM      2  C   UNL     1       0.080   0.305   0.000  0.00  0.00    +0.000 C 
ATOM      3  C   UNL     1      -0.635  -0.107   0.000  0.00  0.00    +0.000 C 
ATOM      4  C   UNL     1      -0.635  -0.932   0.000  0.00  0.00    +0.000 C 
ATOM      5  C   UNL     1       0.080  -1.345   0.000  0.00  0.00    +0.000 C 
ATOM      6  C   UNL     1       0.794  -0.932   0.000  0.00  0.00    +0.000 C 
ATOM      7  C   UNL     1       1.509   0.305   0.000  0.00  0.00    +0.000 C 
ATOM      8  C   UNL     1       2.223  -0.107   0.000  0.00  0.00    +0.000 C 
ATOM      9  C   UNL     1       2.223  -0.932   0.000  0.00  0.00    +0.000 C 
ATOM     10  C   UNL     1       1.509  -1.345   0.000  0.00  0.00    +0.000 C 
ATOM     11  C   UNL     1       1.509   1.130   0.000  0.00  0.00    +0.000 C 
ATOM     12  C   UNL     1       2.223   1.543   0.000  0.00  0.00    +0.000 C 
ATOM     13  C   UNL     1       2.938   1.130   0.000  0.00  0.00    +0.000 C 
ATOM     14  C   UNL     1       2.938   0.305   0.000  0.00  0.00    +0.000 C 
ATOM     15  C   UNL     1       3.722   0.050   0.000  0.00  0.00    +0.000 C 
ATOM     16  C   UNL     1       4.207   0.718   0.000  0.00  0.00    +0.000 C 
ATOM     17  C   UNL     1       3.722   1.385   0.000  0.00  0.00    +0.000 C 
ATOM     18  O   UNL     1       3.977   2.170   0.000  0.00  0.00    +0.000 OA
ATOM     19  C   UNL     1       2.938   1.955   0.000  0.00  0.00    +0.000 C 
ATOM     20  C   UNL     1       0.794   0.718   0.000  0.00  0.00    +0.000 C 
ATOM     21  O   UNL     1       1.509  -2.170   0.000  0.00  0.00    +0.000 OA
ATOM     22  N   UNL     1      -1.349  -1.345   0.000  0.00  0.00    +0.000 NA
ENDROOT
BRANCH  22  23
ATOM     23  O   UNL     1      -2.064  -1.757   0.000  0.00  0.00    +0.000 OA
BRANCH  23  24
ATOM     24  C   UNL     1      -2.778  -1.345   0.000  0.00  0.00    +0.000 C 
BRANCH  24  25
ATOM     25  C   UNL     1      -3.493  -1.757   0.000  0.00  0.00    +0.000 C 
ATOM     26  N   UNL     1      -4.207  -1.345   0.000  0.00  0.00    +0.000 NA
ENDBRANCH  24  25
ENDBRANCH  23  24
ENDBRANCH  22  23
TORSDOF 3
