REMARK  Name = 
REMARK  10 active torsions:
REMARK  status: ('A' for Active; 'I' for Inactive)
REMARK    1  A    between atoms: C_1  and  N_3
REMARK    2  A    between atoms: N_3  and  C_4
REMARK    3  A    between atoms: N_3  and  C_23
REMARK    4  A    between atoms: C_5  and  C_12
REMARK    5  A    between atoms: C_8  and  O_10
REMARK    6  A    between atoms: C_23  and  C_24
REMARK    7  A    between atoms: C_27  and  C_30
REMARK    8  A    between atoms: C_30  and  C_31
REMARK    9  A    between atoms: C_31  and  N_32
REMARK   10  A    between atoms: N_32  and  C_33
REMARK                            x       y       z     vdW  Elec       q    Type
REMARK                         _______ _______ _______ _____ _____    ______ ____
ROOT
ATOM      1  C   UNL     1      -2.266   1.072   0.000  0.00  0.00    +0.000 A 
ATOM      2  C   UNL     1      -2.684   0.360   0.000  0.00  0.00    +0.000 A 
ATOM      3  C   UNL     1      -3.509   0.360   0.000  0.00  0.00    +0.000 A 
ATOM      4  C   UNL     1      -3.917   1.072   0.000  0.00  0.00    +0.000 A 
ATOM      5  C   UNL     1      -3.509   1.783   0.000  0.00  0.00    +0.000 A 
ATOM      6  C   UNL     1      -2.684   1.783   0.000  0.00  0.00    +0.000 A 
ENDROOT
BRANCH   2   7
ATOM      7  C   UNL     1      -2.266  -0.360   0.000  0.00  0.00    +0.000 C 
ATOM      8  C   UNL     1      -1.441  -0.360   0.000  0.00  0.00    +0.000 C 
ATOM      9  C   UNL     1      -1.034  -1.072   0.000  0.00  0.00    +0.000 A 
ATOM     10  C   UNL     1      -0.209  -1.072   0.000  0.00  0.00    +0.000 A 
ATOM     11  C   UNL     1       0.209  -1.783   0.000  0.00  0.00    +0.000 A 
ATOM     12  C   UNL     1      -0.209  -2.504   0.000  0.00  0.00    +0.000 A 
ATOM     13  C   UNL     1      -1.034  -2.504   0.000  0.00  0.00    +0.000 A 
ATOM     14  C   UNL     1      -1.441  -1.783   0.000  0.00  0.00    +0.000 A 
ATOM     15  C   UNL     1      -2.266  -1.783   0.000  0.00  0.00    +0.000 C 
ATOM     16  C   UNL     1      -2.684  -1.072   0.000  0.00  0.00    +0.000 C 
ATOM     17  O   UNL     1       0.209  -3.215   0.000  0.00  0.00    +0.000 OA
ENDBRANCH   2   7
BRANCH   5  18
ATOM     18  O   UNL     1      -3.917   2.494   0.000  0.00  0.00    +0.000 OA
ATOM     19  C   UNL     1      -4.742   2.494   0.000  0.00  0.00    +0.000 C 
ENDBRANCH   5  18
BRANCH   1  20
ATOM     20  N   UNL     1      -1.441   1.072   0.000  0.00  0.00    +0.000 N 
BRANCH  20  21
ATOM     21  C   UNL     1      -1.034   0.360   0.000  0.00  0.00    +0.000 C 
ATOM     22  C   UNL     1      -0.209   0.360   0.000  0.00  0.00    +0.000 C 
ENDBRANCH  20  21
BRANCH  20  23
ATOM     23  C   UNL     1      -1.034   1.783   0.000  0.00  0.00    +0.000 C 
BRANCH  23  24
ATOM     24  C   UNL     1      -0.209   1.783   0.000  0.00  0.00    +0.000 A 
ATOM     25  C   UNL     1       0.209   2.494   0.000  0.00  0.00    +0.000 A 
ATOM     26  C   UNL     1       1.034   2.494   0.000  0.00  0.00    +0.000 A 
ATOM     27  C   UNL     1       1.441   1.783   0.000  0.00  0.00    +0.000 A 
ATOM     28  C   UNL     1       1.034   1.072   0.000  0.00  0.00    +0.000 A 
ATOM     29  C   UNL     1       0.209   1.072   0.000  0.00  0.00    +0.000 A 
BRANCH  27  30
ATOM     30  C   UNL     1       2.266   1.783   0.000  0.00  0.00    +0.000 C 
BRANCH  30  31
ATOM     31  C   UNL     1       2.684   2.494   0.000  0.00  0.00    +0.000 C 
BRANCH  31  32
ATOM     32  N   UNL     1       3.509   2.494   0.000  0.00  0.00    +0.000 NA
BRANCH  32  33
ATOM     33  C   UNL     1       3.917   3.215   0.000  0.00  0.00    +0.000 C 
ATOM     34  C   UNL     1       4.742   3.215   0.000  0.00  0.00    +0.000 C 
ENDBRANCH  32  33
ENDBRANCH  31  32
ENDBRANCH  30  31
ENDBRANCH  27  30
ENDBRANCH  23  24
ENDBRANCH  20  23
ENDBRANCH   1  20
TORSDOF 10
