REMARK  Name = 
REMARK  27 active torsions:
REMARK  status: ('A' for Active; 'I' for Inactive)
REMARK    1  A    between atoms: S_1  and  C_34
REMARK    2  A    between atoms: P_2  and  O_4
REMARK    3  A    between atoms: P_2  and  O_5
REMARK    4  A    between atoms: O_3  and  C_25
REMARK    5  A    between atoms: O_3  and  C_27
REMARK    6  A    between atoms: O_4  and  C_30
REMARK    7  A    between atoms: O_5  and  C_33
REMARK    8  A    between atoms: N_9  and  C_28
REMARK    9  A    between atoms: C_10  and  C_11
REMARK   10  A    between atoms: C_10  and  C_12
REMARK   11  A    between atoms: C_11  and  C_13
REMARK   12  A    between atoms: C_12  and  C_14
REMARK   13  A    between atoms: C_13  and  C_15
REMARK   14  A    between atoms: C_14  and  C_16
REMARK   15  A    between atoms: C_15  and  C_17
REMARK   16  A    between atoms: C_16  and  C_18
REMARK   17  A    between atoms: C_17  and  C_19
REMARK   18  A    between atoms: C_18  and  C_20
REMARK   19  A    between atoms: C_19  and  C_21
REMARK   20  A    between atoms: C_20  and  C_22
REMARK   21  A    between atoms: C_21  and  C_23
REMARK   22  A    between atoms: C_22  and  C_24
REMARK   23  A    between atoms: C_23  and  C_25
REMARK   24  A    between atoms: C_24  and  C_26
REMARK   25  A    between atoms: C_27  and  C_28
REMARK   26  A    between atoms: C_28  and  C_30
REMARK   27  A    between atoms: C_33  and  C_34
REMARK                            x       y       z     vdW  Elec       q    Type
REMARK                         _______ _______ _______ _____ _____    ______ ____
ROOT
ATOM      1  O   UNL     1      -0.762  -4.978   0.000  0.00  0.00    +0.000 OA
ENDROOT
BRANCH   1   2
ATOM      2  C   UNL     1      -0.762  -4.152   0.000  0.00  0.00    +0.000 C 
BRANCH   2   3
ATOM      3  C   UNL     1      -0.048  -3.740   0.000  0.00  0.00    +0.000 C 
BRANCH   3   4
ATOM      4  C   UNL     1      -0.048  -2.915   0.000  0.00  0.00    +0.000 C 
BRANCH   4   5
ATOM      5  C   UNL     1       0.666  -2.502   0.000  0.00  0.00    +0.000 C 
BRANCH   5   6
ATOM      6  C   UNL     1       0.666  -1.677   0.000  0.00  0.00    +0.000 C 
BRANCH   6   7
ATOM      7  C   UNL     1       1.381  -1.265   0.000  0.00  0.00    +0.000 C 
BRANCH   7   8
ATOM      8  C   UNL     1       1.381  -0.440   0.000  0.00  0.00    +0.000 C 
BRANCH   8   9
ATOM      9  C   UNL     1       2.095  -0.028   0.000  0.00  0.00    +0.000 C 
BRANCH   9  10
ATOM     10  C   UNL     1       2.095   0.797   0.000  0.00  0.00    +0.000 C 
BRANCH  10  11
ATOM     11  C   UNL     1       2.810   1.210   0.000  0.00  0.00    +0.000 C 
BRANCH  11  12
ATOM     12  C   UNL     1       2.810   2.035   0.000  0.00  0.00    +0.000 C 
BRANCH  12  13
ATOM     13  C   UNL     1       3.524   2.447   0.000  0.00  0.00    +0.000 C 
BRANCH  13  14
ATOM     14  C   UNL     1       3.524   3.272   0.000  0.00  0.00    +0.000 C 
BRANCH  14  15
ATOM     15  C   UNL     1       4.239   3.685   0.000  0.00  0.00    +0.000 C 
BRANCH  15  16
ATOM     16  C   UNL     1       4.239   4.510   0.000  0.00  0.00    +0.000 C 
BRANCH  16  17
ATOM     17  C   UNL     1       4.953   4.922   0.000  0.00  0.00    +0.000 C 
BRANCH  17  18
ATOM     18  C   UNL     1       4.953   5.747   0.000  0.00  0.00    +0.000 C 
ATOM     19  C   UNL     1       5.668   6.160   0.000  0.00  0.00    +0.000 C 
ENDBRANCH  17  18
ENDBRANCH  16  17
ENDBRANCH  15  16
ENDBRANCH  14  15
ENDBRANCH  13  14
ENDBRANCH  12  13
ENDBRANCH  11  12
ENDBRANCH  10  11
ENDBRANCH   9  10
ENDBRANCH   8   9
ENDBRANCH   7   8
ENDBRANCH   6   7
ENDBRANCH   5   6
ENDBRANCH   4   5
ENDBRANCH   3   4
ENDBRANCH   2   3
ENDBRANCH   1   2
BRANCH   1  20
ATOM     20  C   UNL     1      -1.477  -5.390   0.000  0.00  0.00    +0.000 C 
BRANCH  20  21
ATOM     21  C   UNL     1      -1.477  -6.215   0.000  0.00  0.00    +0.000 C 
BRANCH  21  23
ATOM     22  O   UNL     1      -0.048  -5.390   0.000  0.00  0.00    +0.000 OA
ATOM     23  N   UNL     1      -0.762  -6.627   0.000  0.00  0.00    +0.000 N 
ATOM     24  C   UNL     1      -0.048  -6.215   0.000  0.00  0.00    +0.000 C 
ATOM     25  C   UNL     1       0.666  -6.628   0.000  0.00  0.00    +0.000 C 
ATOM     26  H   UNL     1      -0.762  -7.139   0.000  0.00  0.00    +0.000 HD
ENDBRANCH  21  23
BRANCH  21  27
ATOM     27  C   UNL     1      -2.191  -6.628   0.000  0.00  0.00    +0.000 C 
BRANCH  27  28
ATOM     28  O   UNL     1      -2.906  -6.215   0.000  0.00  0.00    +0.000 OA
BRANCH  28  29
ATOM     29  P   UNL     1      -3.620  -6.628   0.000  0.00  0.00    +0.000 P 
ATOM     30  O   UNL     1      -4.033  -5.913   0.000  0.00  0.00    +0.000 OA
ATOM     31  O   UNL     1      -3.208  -7.342   0.000  0.00  0.00    +0.000 OA
BRANCH  29  32
ATOM     32  O   UNL     1      -4.335  -7.040   0.000  0.00  0.00    +0.000 OA
BRANCH  32  33
ATOM     33  C   UNL     1      -5.049  -6.628   0.000  0.00  0.00    +0.000 C 
BRANCH  33  34
ATOM     34  C   UNL     1      -5.764  -7.040   0.000  0.00  0.00    +0.000 C 
BRANCH  34  35
ATOM     35  S   UNL     1      -6.478  -6.628   0.000  0.00  0.00    +0.000 S 
ATOM     36  C   UNL     1      -7.192  -7.040   0.000  0.00  0.00    +0.000 C 
ENDBRANCH  34  35
ENDBRANCH  33  34
ENDBRANCH  32  33
ENDBRANCH  29  32
ENDBRANCH  28  29
ENDBRANCH  27  28
ENDBRANCH  21  27
ENDBRANCH  20  21
ENDBRANCH   1  20
TORSDOF 27
