REMARK  Name = 
REMARK  5 active torsions:
REMARK  status: ('A' for Active; 'I' for Inactive)
REMARK    1  A    between atoms: C_2  and  C_3
REMARK    2  A    between atoms: N_5  and  C_6
REMARK    3  A    between atoms: N_5  and  C_19
REMARK    4  A    between atoms: N_9  and  C_10
REMARK    5  A    between atoms: C_10  and  C_11
REMARK                            x       y       z     vdW  Elec       q    Type
REMARK                         _______ _______ _______ _____ _____    ______ ____
ROOT
ATOM      1  C   UNL     1       0.000   0.825   0.000  0.00  0.00    +0.000 C 
ATOM      2  C   UNL     1       0.714   0.412   0.000  0.00  0.00    +0.000 C 
ATOM      3  C   UNL     1       0.714  -0.412   0.000  0.00  0.00    +0.000 C 
ATOM      4  N   UNL     1       0.000  -0.825   0.000  0.00  0.00    +0.000 NA
ATOM      5  C   UNL     1      -0.715  -0.412   0.000  0.00  0.00    +0.000 C 
ATOM      6  C   UNL     1      -0.715   0.412   0.000  0.00  0.00    +0.000 C 
ENDROOT
BRANCH   1   9
ATOM      7  C   UNL     1      -0.715   2.062   0.000  0.00  0.00    +0.000 C 
ATOM      8  O   UNL     1      -0.715   2.888   0.000  0.00  0.00    +0.000 OA
ATOM      9  N   UNL     1       0.000   1.650   0.000  0.00  0.00    +0.000 N 
BRANCH   9  10
ATOM     10  C   UNL     1       0.714   2.062   0.000  0.00  0.00    +0.000 A 
ATOM     11  C   UNL     1       0.714   2.888   0.000  0.00  0.00    +0.000 A 
ATOM     12  C   UNL     1       1.429   3.300   0.000  0.00  0.00    +0.000 A 
ATOM     13  C   UNL     1       2.143   2.888   0.000  0.00  0.00    +0.000 A 
ATOM     14  C   UNL     1       2.143   2.062   0.000  0.00  0.00    +0.000 A 
ATOM     15  C   UNL     1       1.429   1.650   0.000  0.00  0.00    +0.000 A 
ENDBRANCH   9  10
BRANCH   7  17
ATOM     16  C   UNL     1      -1.429   0.825   0.000  0.00  0.00    +0.000 C 
ATOM     17  C   UNL     1      -1.429   1.650   0.000  0.00  0.00    +0.000 C 
ENDBRANCH   7  17
ENDBRANCH   1   9
BRANCH   4  18
ATOM     18  C   UNL     1       0.000  -1.650   0.000  0.00  0.00    +0.000 C 
BRANCH  18  19
ATOM     19  C   UNL     1      -0.715  -2.062   0.000  0.00  0.00    +0.000 A 
ATOM     20  C   UNL     1      -0.715  -2.887   0.000  0.00  0.00    +0.000 A 
ATOM     21  C   UNL     1      -1.429  -3.300   0.000  0.00  0.00    +0.000 A 
ATOM     22  C   UNL     1      -2.143  -2.887   0.000  0.00  0.00    +0.000 A 
ATOM     23  C   UNL     1      -2.143  -2.062   0.000  0.00  0.00    +0.000 A 
ATOM     24  C   UNL     1      -1.429  -1.650   0.000  0.00  0.00    +0.000 A 
ENDBRANCH  18  19
ENDBRANCH   4  18
TORSDOF 5
