REMARK  Name = 
REMARK  4 active torsions:
REMARK  status: ('A' for Active; 'I' for Inactive)
REMARK    1  A    between atoms: O_5  and  C_27
REMARK    2  A    between atoms: O_5  and  C_30
REMARK    3  A    between atoms: C_12  and  C_20
REMARK    4  A    between atoms: C_20  and  C_27
REMARK                            x       y       z     vdW  Elec       q    Type
REMARK                         _______ _______ _______ _____ _____    ______ ____
ROOT
ATOM      1  F   UNL     1      -1.013  -1.899   0.000  0.00  0.00    +0.000 F 
ATOM      2  O   UNL     1       1.841   0.537   0.000  0.00  0.00    +0.000 OA
ATOM      3  O   UNL     1      -1.725   0.159   0.000  0.00  0.00    +0.000 OA
ATOM      4  O   UNL     1      -3.867  -2.734   0.000  0.00  0.00    +0.000 OA
ATOM      5  C   UNL     1       0.410  -1.094   0.000  0.00  0.00    +0.000 C 
ATOM      6  C   UNL     1      -0.302  -1.520   0.000  0.00  0.00    +0.000 C 
ATOM      7  C   UNL     1       0.410  -0.259   0.000  0.00  0.00    +0.000 C 
ATOM      8  C   UNL     1      -1.013  -1.094   0.000  0.00  0.00    +0.000 C 
ATOM      9  C   UNL     1       1.121   0.159   0.000  0.00  0.00    +0.000 C 
ATOM     10  C   UNL     1      -1.725  -1.520   0.000  0.00  0.00    +0.000 C 
ATOM     11  C   UNL     1      -1.013  -0.259   0.000  0.00  0.00    +0.000 C 
ATOM     12  C   UNL     1      -0.302   0.159   0.000  0.00  0.00    +0.000 C 
ATOM     13  C   UNL     1       1.841  -1.094   0.000  0.00  0.00    +0.000 C 
ATOM     14  C   UNL     1       1.841  -0.259   0.000  0.00  0.00    +0.000 C 
ATOM     15  C   UNL     1      -0.302  -2.316   0.000  0.00  0.00    +0.000 C 
ATOM     16  C   UNL     1      -1.725  -2.316   0.000  0.00  0.00    +0.000 C 
ATOM     17  C   UNL     1       0.410   0.537   0.000  0.00  0.00    +0.000 C 
ATOM     18  C   UNL     1      -1.013  -2.734   0.000  0.00  0.00    +0.000 C 
ATOM     19  C   UNL     1      -2.444  -1.094   0.000  0.00  0.00    +0.000 C 
ATOM     20  C   UNL     1      -1.725  -0.677   0.000  0.00  0.00    +0.000 C 
ATOM     21  C   UNL     1      -2.444  -2.734   0.000  0.00  0.00    +0.000 C 
ATOM     22  C   UNL     1       2.637  -0.050   0.000  0.00  0.00    +0.000 C 
ATOM     23  C   UNL     1      -3.155  -1.520   0.000  0.00  0.00    +0.000 C 
ATOM     24  C   UNL     1      -3.155  -2.316   0.000  0.00  0.00    +0.000 C 
ENDROOT
BRANCH   9  26
ATOM     25  O   UNL     1       0.325   1.295   0.000  0.00  0.00    +0.000 OA
ATOM     26  C   UNL     1       1.121   0.955   0.000  0.00  0.00    +0.000 C 
BRANCH  26  27
ATOM     27  C   UNL     1       1.670   1.543   0.000  0.00  0.00    +0.000 C 
BRANCH  27  28
ATOM     28  O   UNL     1       2.467   1.334   0.000  0.00  0.00    +0.000 OA
BRANCH  28  30
ATOM     29  O   UNL     1       2.838   2.734   0.000  0.00  0.00    +0.000 OA
ATOM     30  C   UNL     1       3.055   1.929   0.000  0.00  0.00    +0.000 C 
ATOM     31  C   UNL     1       3.867   1.721   0.000  0.00  0.00    +0.000 C 
ENDBRANCH  28  30
ENDBRANCH  27  28
ENDBRANCH  26  27
ENDBRANCH   9  26
TORSDOF 4
