REMARK  Name = 
REMARK  9 active torsions:
REMARK  status: ('A' for Active; 'I' for Inactive)
REMARK    1  A    between atoms: C_2  and  O_3
REMARK    2  A    between atoms: O_3  and  C_4
REMARK    3  A    between atoms: C_4  and  O_6
REMARK    4  A    between atoms: O_6  and  C_7
REMARK    5  A    between atoms: C_7  and  N_9
REMARK    6  A    between atoms: C_13  and  C_14
REMARK    7  A    between atoms: C_15  and  C_20
REMARK    8  A    between atoms: C_23  and  C_27
REMARK    9  A    between atoms: N_29  and  C_30
REMARK                            x       y       z     vdW  Elec       q    Type
REMARK                         _______ _______ _______ _____ _____    ______ ____
ROOT
ATOM      1  C   UNL     1      -3.929   1.004   0.000  0.00  0.00    +0.000 A 
ATOM      2  C   UNL     1      -3.215   0.592   0.000  0.00  0.00    +0.000 A 
ATOM      3  C   UNL     1      -3.215  -0.234   0.000  0.00  0.00    +0.000 A 
ATOM      4  C   UNL     1      -3.929  -0.646   0.000  0.00  0.00    +0.000 A 
ATOM      5  C   UNL     1      -4.644  -0.234   0.000  0.00  0.00    +0.000 A 
ATOM      6  C   UNL     1      -4.644   0.592   0.000  0.00  0.00    +0.000 A 
ATOM      7  F   UNL     1      -5.358   1.004   0.000  0.00  0.00    +0.000 F 
ENDROOT
BRANCH   4   8
ATOM      8  C   UNL     1      -3.929  -1.471   0.000  0.00  0.00    +0.000 C 
ATOM      9  O   UNL     1      -4.644  -1.883   0.000  0.00  0.00    +0.000 OA
ATOM     10  N   UNL     1      -3.215  -1.883   0.000  0.00  0.00    +0.000 N 
ATOM     11  C   UNL     1      -2.500  -1.471   0.000  0.00  0.00    +0.000 A 
ATOM     12  N   UNL     1      -2.500  -0.646   0.000  0.00  0.00    +0.000 NA
ATOM     13  C   UNL     1      -1.786  -0.234   0.000  0.00  0.00    +0.000 A 
ATOM     14  C   UNL     1      -1.071  -0.646   0.000  0.00  0.00    +0.000 A 
ATOM     15  C   UNL     1      -1.071  -1.471   0.000  0.00  0.00    +0.000 A 
ATOM     16  C   UNL     1      -1.786  -1.883   0.000  0.00  0.00    +0.000 A 
ATOM     17 CL   UNL     1      -1.786  -2.708   0.000  0.00  0.00    +0.000 Cl
BRANCH  10  18
ATOM     18  C   UNL     1      -3.215  -2.708   0.000  0.00  0.00    +0.000 C 
ATOM     19  C   UNL     1      -2.500  -3.121   0.000  0.00  0.00    +0.000 C 
ATOM     20  C   UNL     1      -2.500  -3.946   0.000  0.00  0.00    +0.000 C 
ATOM     21  C   UNL     1      -3.215  -4.359   0.000  0.00  0.00    +0.000 C 
ATOM     22  N   UNL     1      -3.929  -3.946   0.000  0.00  0.00    +0.000 NA
ATOM     23  C   UNL     1      -3.929  -3.121   0.000  0.00  0.00    +0.000 C 
ENDBRANCH  10  18
ENDBRANCH   4   8
BRANCH   1  25
ATOM     24  C   UNL     1      -3.262   2.314   0.000  0.00  0.00    +0.000 A 
ATOM     25  C   UNL     1      -3.929   1.829   0.000  0.00  0.00    +0.000 A 
ATOM     26  C   UNL     1      -4.596   2.314   0.000  0.00  0.00    +0.000 A 
ATOM     27  N   UNL     1      -4.341   3.099   0.000  0.00  0.00    +0.000 NA
ATOM     28  N   UNL     1      -3.517   3.099   0.000  0.00  0.00    +0.000 N 
ATOM     29  C   UNL     1      -3.032   3.766   0.000  0.00  0.00    +0.000 C 
BRANCH  24  34
ATOM     30  N   UNL     1      -1.810   2.544   0.000  0.00  0.00    +0.000 N 
ATOM     31  N   UNL     1      -1.142   2.059   0.000  0.00  0.00    +0.000 NA
ATOM     32  N   UNL     1      -1.397   1.274   0.000  0.00  0.00    +0.000 NA
ATOM     33  N   UNL     1      -2.222   1.274   0.000  0.00  0.00    +0.000 NA
ATOM     34  C   UNL     1      -2.477   2.059   0.000  0.00  0.00    +0.000 A 
BRANCH  30  35
ATOM     35  C   UNL     1      -1.810   3.369   0.000  0.00  0.00    +0.000 C 
ATOM     36  C   UNL     1      -2.524   3.781   0.000  0.00  0.00    +0.000 C 
BRANCH  35  37
ATOM     37  O   UNL     1      -1.095   3.781   0.000  0.00  0.00    +0.000 OA
BRANCH  37  38
ATOM     38  C   UNL     1      -1.095   4.606   0.000  0.00  0.00    +0.000 C 
ATOM     39  O   UNL     1      -1.810   5.019   0.000  0.00  0.00    +0.000 OA
BRANCH  38  40
ATOM     40  O   UNL     1      -0.381   5.019   0.000  0.00  0.00    +0.000 OA
BRANCH  40  42
ATOM     41  C   UNL     1       0.334   6.256   0.000  0.00  0.00    +0.000 C 
ATOM     42  C   UNL     1      -0.381   5.844   0.000  0.00  0.00    +0.000 C 
ENDBRANCH  40  42
ENDBRANCH  38  40
ENDBRANCH  37  38
ENDBRANCH  35  37
ENDBRANCH  30  35
ENDBRANCH  24  34
ENDBRANCH   1  25
TORSDOF 9
