REMARK  Name = 
REMARK  10 active torsions:
REMARK  status: ('A' for Active; 'I' for Inactive)
REMARK    1  A    between atoms: C_3  and  C_4
REMARK    2  A    between atoms: C_4  and  C_5
REMARK    3  A    between atoms: C_5  and  C_6
REMARK    4  A    between atoms: C_7  and  C_8
REMARK    5  A    between atoms: C_8  and  C_9
REMARK    6  A    between atoms: C_9  and  C_10
REMARK    7  A    between atoms: C_11  and  C_12
REMARK    8  A    between atoms: C_12  and  S_13
REMARK    9  A    between atoms: S_13  and  C_14
REMARK   10  A    between atoms: C_19  and  C_20
REMARK                            x       y       z     vdW  Elec       q    Type
REMARK                         _______ _______ _______ _____ _____    ______ ____
ROOT
ATOM      1  C   UNL     1       0.715   3.712   0.000  0.00  0.00    +0.000 C 
ATOM      2  C   UNL     1       0.000   3.300   0.000  0.00  0.00    +0.000 C 
ATOM      3  C   UNL     1       1.429   3.300   0.000  0.00  0.00    +0.000 C 
ENDROOT
BRANCH   2   4
ATOM      4  C   UNL     1       0.000   2.475   0.000  0.00  0.00    +0.000 C 
BRANCH   4   5
ATOM      5  S   UNL     1       0.715   2.062   0.000  0.00  0.00    +0.000 S 
BRANCH   5   6
ATOM      6  C   UNL     1       0.715   1.238   0.000  0.00  0.00    +0.000 A 
ATOM      7  C   UNL     1       1.429   0.825   0.000  0.00  0.00    +0.000 A 
ATOM      8  C   UNL     1       1.429   0.000   0.000  0.00  0.00    +0.000 A 
ATOM      9  C   UNL     1       0.715  -0.412   0.000  0.00  0.00    +0.000 A 
ATOM     10  C   UNL     1       0.000   0.000   0.000  0.00  0.00    +0.000 A 
ATOM     11  C   UNL     1       0.000   0.825   0.000  0.00  0.00    +0.000 A 
BRANCH  11  12
ATOM     12  C   UNL     1      -0.715   1.238   0.000  0.00  0.00    +0.000 C 
ATOM     13  O   UNL     1      -0.715   2.062   0.000  0.00  0.00    +0.000 OA
ATOM     14  O   UNL     1      -1.429   0.825   0.000  0.00  0.00    +0.000 OA
ENDBRANCH  11  12
ENDBRANCH   5   6
ENDBRANCH   4   5
ENDBRANCH   2   4
BRANCH   1  15
ATOM     15  C   UNL     1       0.715   4.537   0.000  0.00  0.00    +0.000 C 
BRANCH  15  16
ATOM     16  C   UNL     1       1.429   4.950   0.000  0.00  0.00    +0.000 C 
BRANCH  16  18
ATOM     17  C   UNL     1       2.143   6.188   0.000  0.00  0.00    +0.000 C 
ATOM     18  C   UNL     1       1.429   5.775   0.000  0.00  0.00    +0.000 C 
ATOM     19  C   UNL     1       2.858   5.775   0.000  0.00  0.00    +0.000 C 
BRANCH  17  20
ATOM     20  C   UNL     1       2.143   7.013   0.000  0.00  0.00    +0.000 C 
BRANCH  20  21
ATOM     21  C   UNL     1       2.858   7.425   0.000  0.00  0.00    +0.000 C 
BRANCH  21  24
ATOM     22  C   UNL     1       3.572   9.488   0.000  0.00  0.00    +0.000 C 
ATOM     23  C   UNL     1       3.572   8.662   0.000  0.00  0.00    +0.000 C 
ATOM     24  C   UNL     1       2.858   8.250   0.000  0.00  0.00    +0.000 C 
ATOM     25  C   UNL     1       4.287   8.250   0.000  0.00  0.00    +0.000 C 
ENDBRANCH  21  24
ENDBRANCH  20  21
ENDBRANCH  17  20
ENDBRANCH  16  18
ENDBRANCH  15  16
ENDBRANCH   1  15
TORSDOF 10
