REMARK  Name = 
REMARK  6 active torsions:
REMARK  status: ('A' for Active; 'I' for Inactive)
REMARK    1  A    between atoms: C_1  and  O_12
REMARK    2  A    between atoms: C_4  and  O_12
REMARK    3  A    between atoms: C_5  and  O_14
REMARK    4  A    between atoms: C_6  and  C_22
REMARK    5  A    between atoms: C_11  and  O_14
REMARK    6  A    between atoms: C_13  and  N_23
REMARK                            x       y       z     vdW  Elec       q    Type
REMARK                         _______ _______ _______ _____ _____    ______ ____
ROOT
ATOM      1  C   UNL     1      -1.651   0.598   0.000  0.00  0.00    +0.000 C 
ATOM      2  C   UNL     1      -0.936   1.835   0.000  0.00  0.00    +0.000 C 
ATOM      3  C   UNL     1      -0.936   1.007   0.000  0.00  0.00    +0.000 C 
ATOM      4  C   UNL     1      -2.362   1.007   0.000  0.00  0.00    +0.000 C 
ATOM      5  C   UNL     1      -1.651   2.253   0.000  0.00  0.00    +0.000 C 
ATOM      6  C   UNL     1      -2.362   1.835   0.000  0.00  0.00    +0.000 C 
ATOM      7  O   UNL     1      -0.217   0.594   0.000  0.00  0.00    +0.000 OA
ATOM      8  N   UNL     1      -3.081   0.594   0.000  0.00  0.00    +0.000 NA
ATOM      9  N   UNL     1      -1.651   3.085   0.000  0.00  0.00    +0.000 NA
ENDROOT
BRANCH   2  10
ATOM     10  O   UNL     1      -0.217   2.249   0.000  0.00  0.00    +0.000 OA
BRANCH  10  12
ATOM     11  C   UNL     1       1.020   1.534   0.000  0.00  0.00    +0.000 C 
ATOM     12  C   UNL     1       0.610   2.249   0.000  0.00  0.00    +0.000 C 
ATOM     13  C   UNL     1       1.843   1.534   0.000  0.00  0.00    +0.000 C 
ATOM     14  C   UNL     1       2.257   2.249   0.000  0.00  0.00    +0.000 C 
ATOM     15  O   UNL     1       1.016   2.968   0.000  0.00  0.00    +0.000 OA
ATOM     16  C   UNL     1       1.843   2.964   0.000  0.00  0.00    +0.000 C 
ATOM     17  O   UNL     1       0.606   0.819   0.000  0.00  0.00    +0.000 OA
ATOM     18  O   UNL     1       2.968   2.667   0.000  0.00  0.00    +0.000 OA
ATOM     19  C   UNL     1       2.968   1.835   0.000  0.00  0.00    +0.000 C 
BRANCH  13  20
ATOM     20  N   UNL     1       2.257   0.819   0.000  0.00  0.00    +0.000 NA
ATOM     21  C   UNL     1       3.081   0.819   0.000  0.00  0.00    +0.000 C 
ENDBRANCH  13  20
ENDBRANCH  10  12
ENDBRANCH   2  10
BRANCH   1  22
ATOM     22  O   UNL     1      -1.651  -0.230   0.000  0.00  0.00    +0.000 OA
BRANCH  22  23
ATOM     23  C   UNL     1      -1.237  -0.941   0.000  0.00  0.00    +0.000 C 
ATOM     24  O   UNL     1      -0.414  -0.936   0.000  0.00  0.00    +0.000 OA
ATOM     25  C   UNL     1      -1.647  -1.655   0.000  0.00  0.00    +0.000 C 
ATOM     26  C   UNL     1      -0.004  -1.651   0.000  0.00  0.00    +0.000 C 
ATOM     27  C   UNL     1      -1.242  -2.366   0.000  0.00  0.00    +0.000 C 
ATOM     28  C   UNL     1      -0.418  -2.366   0.000  0.00  0.00    +0.000 C 
ATOM     29  N   UNL     1      -2.475  -1.655   0.000  0.00  0.00    +0.000 NA
ATOM     30  O   UNL     1      -1.655  -3.081   0.000  0.00  0.00    +0.000 OA
ATOM     31  O   UNL     1      -0.004  -3.085   0.000  0.00  0.00    +0.000 OA
BRANCH  26  32
ATOM     32  C   UNL     1       0.824  -1.655   0.000  0.00  0.00    +0.000 C 
ATOM     33  O   UNL     1       1.237  -0.936   0.000  0.00  0.00    +0.000 OA
ATOM     34  C   UNL     1       1.237  -2.366   0.000  0.00  0.00    +0.000 C 
ENDBRANCH  26  32
ENDBRANCH  22  23
ENDBRANCH   1  22
TORSDOF 6
