REMARK  Name = 
REMARK  7 active torsions:
REMARK  status: ('A' for Active; 'I' for Inactive)
REMARK    1  A    between atoms: N_2  and  S_3
REMARK    2  A    between atoms: S_3  and  N_6
REMARK    3  A    between atoms: N_6  and  C_7
REMARK    4  A    between atoms: C_10  and  C_11
REMARK    5  A    between atoms: C_11  and  C_12
REMARK    6  A    between atoms: C_21  and  O_22
REMARK    7  A    between atoms: O_22  and  C_23
REMARK                            x       y       z     vdW  Elec       q    Type
REMARK                         _______ _______ _______ _____ _____    ______ ____
ROOT
ATOM      1  C   UNL     1      -0.715  -1.238   0.000  0.00  0.00    +0.000 A 
ATOM      2  C   UNL     1       0.000  -1.650   0.000  0.00  0.00    +0.000 A 
ATOM      3  C   UNL     1       0.000  -2.475   0.000  0.00  0.00    +0.000 C 
ATOM      4  C   UNL     1       0.715  -1.238   0.000  0.00  0.00    +0.000 A 
ATOM      5  C   UNL     1       0.715  -0.412   0.000  0.00  0.00    +0.000 A 
ATOM      6  O   UNL     1       0.000   0.000   0.000  0.00  0.00    +0.000 OA
ATOM      7  C   UNL     1      -0.715  -0.412   0.000  0.00  0.00    +0.000 A 
ATOM      8  O   UNL     1      -1.429   0.000   0.000  0.00  0.00    +0.000 OA
ATOM      9  C   UNL     1       1.429   0.000   0.000  0.00  0.00    +0.000 A 
ATOM     10  C   UNL     1       2.143  -0.412   0.000  0.00  0.00    +0.000 A 
ATOM     11  C   UNL     1       2.143  -1.238   0.000  0.00  0.00    +0.000 A 
ATOM     12  C   UNL     1       1.429  -1.650   0.000  0.00  0.00    +0.000 A 
ENDROOT
BRANCH  10  13
ATOM     13  O   UNL     1       2.858   0.000   0.000  0.00  0.00    +0.000 OA
BRANCH  13  14
ATOM     14  C   UNL     1       3.572  -0.412   0.000  0.00  0.00    +0.000 A 
ATOM     15  N   UNL     1       4.287   0.000   0.000  0.00  0.00    +0.000 NA
ATOM     16  C   UNL     1       5.001  -0.412   0.000  0.00  0.00    +0.000 A 
ATOM     17  C   UNL     1       5.001  -1.238   0.000  0.00  0.00    +0.000 A 
ATOM     18  C   UNL     1       4.287  -1.650   0.000  0.00  0.00    +0.000 A 
ATOM     19  N   UNL     1       3.572  -1.238   0.000  0.00  0.00    +0.000 NA
ENDBRANCH  13  14
ENDBRANCH  10  13
BRANCH   1  20
ATOM     20  C   UNL     1      -1.429  -1.650   0.000  0.00  0.00    +0.000 C 
BRANCH  20  24
ATOM     21  C   UNL     1      -3.572  -1.238   0.000  0.00  0.00    +0.000 A 
ATOM     22  C   UNL     1      -2.858  -1.650   0.000  0.00  0.00    +0.000 A 
ATOM     23  F   UNL     1      -2.858  -2.475   0.000  0.00  0.00    +0.000 F 
ATOM     24  C   UNL     1      -2.143  -1.238   0.000  0.00  0.00    +0.000 A 
ATOM     25  C   UNL     1      -2.143  -0.412   0.000  0.00  0.00    +0.000 A 
ATOM     26  C   UNL     1      -2.858   0.000   0.000  0.00  0.00    +0.000 A 
ATOM     27  N   UNL     1      -3.572  -0.412   0.000  0.00  0.00    +0.000 NA
BRANCH  21  28
ATOM     28  N   UNL     1      -4.287  -1.650   0.000  0.00  0.00    +0.000 NA
BRANCH  28  29
ATOM     29  S   UNL     1      -4.287  -2.475   0.000  0.00  0.00    +0.000 S 
ATOM     30  O   UNL     1      -3.462  -2.475   0.000  0.00  0.00    +0.000 OA
ATOM     31  O   UNL     1      -5.112  -2.475   0.000  0.00  0.00    +0.000 OA
BRANCH  29  33
ATOM     32  C   UNL     1      -5.001  -3.712   0.000  0.00  0.00    +0.000 C 
ATOM     33  N   UNL     1      -4.287  -3.300   0.000  0.00  0.00    +0.000 NA
ENDBRANCH  29  33
ENDBRANCH  28  29
ENDBRANCH  21  28
ENDBRANCH  20  24
ENDBRANCH   1  20
TORSDOF 7
