REMARK  Name = 
REMARK  5 active torsions:
REMARK  status: ('A' for Active; 'I' for Inactive)
REMARK    1  A    between atoms: S_2  and  N_12
REMARK    2  A    between atoms: S_2  and  C_24
REMARK    3  A    between atoms: N_10  and  C_19
REMARK    4  A    between atoms: N_13  and  C_27
REMARK    5  A    between atoms: N_14  and  C_22
REMARK                            x       y       z     vdW  Elec       q    Type
REMARK                         _______ _______ _______ _____ _____    ______ ____
ROOT
ATOM      1  C   UNL     1      -1.016  -0.191   0.000  0.00  0.00    +0.000 A 
ATOM      2  C   UNL     1      -1.016   0.646   0.000  0.00  0.00    +0.000 A 
ATOM      3  C   UNL     1      -0.311  -0.598   0.000  0.00  0.00    +0.000 A 
ATOM      4  C   UNL     1       0.430   0.646   0.000  0.00  0.00    +0.000 A 
ATOM      5  C   UNL     1      -0.263   1.052   0.000  0.00  0.00    +0.000 A 
ATOM      6  C   UNL     1       0.430  -0.191   0.000  0.00  0.00    +0.000 A 
ENDROOT
BRANCH   1  10
ATOM      7  F   UNL     1      -5.273  -0.191   0.000  0.00  0.00    +0.000 F 
ATOM      8  O   UNL     1      -2.415   0.646   0.000  0.00  0.00    +0.000 OA
ATOM      9  O   UNL     1      -1.016  -1.841   0.000  0.00  0.00    +0.000 OA
ATOM     10  N   UNL     1      -1.722  -0.598   0.000  0.00  0.00    +0.000 N 
ATOM     11  N   UNL     1      -2.415  -1.841   0.000  0.00  0.00    +0.000 NA
ATOM     12  C   UNL     1      -3.121  -0.598   0.000  0.00  0.00    +0.000 A 
ATOM     13  C   UNL     1      -2.415  -0.191   0.000  0.00  0.00    +0.000 A 
ATOM     14  C   UNL     1      -3.121  -1.423   0.000  0.00  0.00    +0.000 A 
ATOM     15  C   UNL     1      -1.722  -1.423   0.000  0.00  0.00    +0.000 A 
ATOM     16  C   UNL     1      -3.874  -0.191   0.000  0.00  0.00    +0.000 A 
ATOM     17  C   UNL     1      -3.874  -1.841   0.000  0.00  0.00    +0.000 A 
ATOM     18  C   UNL     1      -4.567  -1.423   0.000  0.00  0.00    +0.000 A 
ATOM     19  C   UNL     1      -4.567  -0.598   0.000  0.00  0.00    +0.000 A 
BRANCH  18  20
ATOM     20  N   UNL     1      -5.273  -1.841   0.000  0.00  0.00    +0.000 NA
ATOM     21  C   UNL     1      -5.978  -1.423   0.000  0.00  0.00    +0.000 C 
ENDBRANCH  18  20
ENDBRANCH   1  10
BRANCH   4  24
ATOM     22  O   UNL     1       1.841  -0.191   0.000  0.00  0.00    +0.000 OA
ATOM     23  N   UNL     1       2.547   1.052   0.000  0.00  0.00    +0.000 NA
ATOM     24  N   UNL     1       1.136   1.052   0.000  0.00  0.00    +0.000 NA
ATOM     25  C   UNL     1       1.841   0.646   0.000  0.00  0.00    +0.000 C 
BRANCH  23  26
ATOM     26  S   UNL     1       3.252   0.646   0.000  0.00  0.00    +0.000 S 
ATOM     27  O   UNL     1       2.834  -0.203   0.000  0.00  0.00    +0.000 OA
ATOM     28  O   UNL     1       3.659  -0.203   0.000  0.00  0.00    +0.000 OA
BRANCH  26  31
ATOM     29 CL   UNL     1       5.978   0.646   0.000  0.00  0.00    +0.000 Cl
ATOM     30  S   UNL     1       4.615   0.562   0.000  0.00  0.00    +0.000 S 
ATOM     31  C   UNL     1       3.946   1.052   0.000  0.00  0.00    +0.000 A 
ATOM     32  C   UNL     1       4.197   1.841   0.000  0.00  0.00    +0.000 A 
ATOM     33  C   UNL     1       5.273   1.052   0.000  0.00  0.00    +0.000 A 
ATOM     34  C   UNL     1       5.022   1.841   0.000  0.00  0.00    +0.000 A 
ENDBRANCH  26  31
ENDBRANCH  23  26
ENDBRANCH   4  24
TORSDOF 5
