REMARK  Name = 
REMARK  1 active torsions:
REMARK  status: ('A' for Active; 'I' for Inactive)
REMARK    1  A    between atoms: C_13  and  C_23
REMARK                            x       y       z     vdW  Elec       q    Type
REMARK                         _______ _______ _______ _____ _____    ______ ____
ROOT
ATOM      1  C   UNL     1      -0.034   1.442   0.000  0.00  0.00    +0.000 C 
ATOM      2  C   UNL     1      -0.034   0.617   0.000  0.00  0.00    +0.000 C 
ATOM      3  C   UNL     1       0.678   0.208   0.000  0.00  0.00    +0.000 C 
ATOM      4  C   UNL     1       1.390   0.617   0.000  0.00  0.00    +0.000 C 
ATOM      5  C   UNL     1       1.390   1.442   0.000  0.00  0.00    +0.000 C 
ATOM      6  C   UNL     1       0.678   1.859   0.000  0.00  0.00    +0.000 C 
ATOM      7  C   UNL     1      -0.746   0.200   0.000  0.00  0.00    +0.000 C 
ATOM      8  C   UNL     1      -0.746  -0.625   0.000  0.00  0.00    +0.000 C 
ATOM      9  C   UNL     1      -0.034  -1.033   0.000  0.00  0.00    +0.000 C 
ATOM     10  C   UNL     1       0.678  -0.625   0.000  0.00  0.00    +0.000 C 
ATOM     11  C   UNL     1      -2.171   0.200   0.000  0.00  0.00    +0.000 C 
ATOM     12  C   UNL     1      -2.171  -0.625   0.000  0.00  0.00    +0.000 C 
ATOM     13  C   UNL     1      -1.459  -1.033   0.000  0.00  0.00    +0.000 C 
ATOM     14  C   UNL     1      -1.459   0.617   0.000  0.00  0.00    +0.000 C 
ATOM     15  C   UNL     1       1.387  -0.204   0.000  0.00  0.00    +0.000 C 
ATOM     16  C   UNL     1       2.100   1.029   0.000  0.00  0.00    +0.000 C 
ATOM     17  O   UNL     1       2.896   1.246   0.000  0.00  0.00    +0.000 OA
ATOM     18  C   UNL     1       1.383   2.267   0.000  0.00  0.00    +0.000 C 
ATOM     19  C   UNL     1      -0.750   1.025   0.000  0.00  0.00    +0.000 C 
ATOM     20  C   UNL     1      -1.467  -1.859   0.000  0.00  0.00    +0.000 C 
ENDROOT
BRANCH  13  21
ATOM     21  C   UNL     1      -2.179  -1.442   0.000  0.00  0.00    +0.000 C 
ATOM     22  O   UNL     1      -2.183  -2.267   0.000  0.00  0.00    +0.000 OA
ATOM     23  O   UNL     1      -2.896  -1.029   0.000  0.00  0.00    +0.000 OA
ENDBRANCH  13  21
TORSDOF 1
