REMARK  Name = 
REMARK  7 active torsions:
REMARK  status: ('A' for Active; 'I' for Inactive)
REMARK    1  A    between atoms: C_3  and  C_30
REMARK    2  A    between atoms: C_5  and  C_7
REMARK    3  A    between atoms: N_9  and  C_10
REMARK    4  A    between atoms: C_10  and  C_11
REMARK    5  A    between atoms: N_13  and  C_14
REMARK    6  A    between atoms: N_16  and  C_18
REMARK    7  A    between atoms: C_21  and  C_25
REMARK                            x       y       z     vdW  Elec       q    Type
REMARK                         _______ _______ _______ _____ _____    ______ ____
ROOT
ATOM      1  C   UNL     1       4.287  -6.117   0.000  0.00  0.00    +0.000 C 
ATOM      2  O   UNL     1       4.287  -6.942   0.000  0.00  0.00    +0.000 OA
ATOM      3  N   UNL     1       5.001  -5.704   0.000  0.00  0.00    +0.000 NA
ENDROOT
BRANCH   3   4
ATOM      4  C   UNL     1       5.716  -6.117   0.000  0.00  0.00    +0.000 C 
ATOM      5  C   UNL     1       6.513  -5.903   0.000  0.00  0.00    +0.000 C 
ATOM      6  N   UNL     1       6.726  -6.700   0.000  0.00  0.00    +0.000 NA
ATOM      7  C   UNL     1       5.929  -6.914   0.000  0.00  0.00    +0.000 C 
BRANCH   6   8
ATOM      8  C   UNL     1       7.441  -7.113   0.000  0.00  0.00    +0.000 C 
ATOM      9  C   UNL     1       8.155  -6.700   0.000  0.00  0.00    +0.000 C 
ATOM     10  C   UNL     1       8.870  -7.113   0.000  0.00  0.00    +0.000 C 
ATOM     11  C   UNL     1       8.870  -7.938   0.000  0.00  0.00    +0.000 C 
ATOM     12  C   UNL     1       8.155  -8.350   0.000  0.00  0.00    +0.000 C 
ATOM     13  C   UNL     1       7.441  -7.938   0.000  0.00  0.00    +0.000 C 
ATOM     14  O   UNL     1       9.694  -7.966   0.000  0.00  0.00    +0.000 OA
BRANCH  11  15
ATOM     15  C   UNL     1       9.307  -8.637   0.000  0.00  0.00    +0.000 A 
ATOM     16  S   UNL     1      10.130  -8.695   0.000  0.00  0.00    +0.000 S 
ATOM     17  C   UNL     1      10.329  -9.495   0.000  0.00  0.00    +0.000 A 
ATOM     18  N   UNL     1       9.630  -9.932   0.000  0.00  0.00    +0.000 NA
ATOM     19  C   UNL     1       8.998  -9.402   0.000  0.00  0.00    +0.000 A 
ENDBRANCH  11  15
ENDBRANCH   6   8
ENDBRANCH   3   4
BRANCH   1  20
ATOM     20  C   UNL     1       3.572  -5.704   0.000  0.00  0.00    +0.000 C 
BRANCH  20  23
ATOM     21  C   UNL     1       2.143  -5.704   0.000  0.00  0.00    +0.000 C 
ATOM     22  O   UNL     1       2.143  -4.879   0.000  0.00  0.00    +0.000 OA
ATOM     23  N   UNL     1       2.858  -6.117   0.000  0.00  0.00    +0.000 NA
BRANCH  21  28
ATOM     24  C   UNL     1       0.715  -7.354   0.000  0.00  0.00    +0.000 A 
ATOM     25  C   UNL     1       0.000  -6.942   0.000  0.00  0.00    +0.000 A 
ATOM     26  C   UNL     1       0.000  -6.117   0.000  0.00  0.00    +0.000 A 
ATOM     27  C   UNL     1       0.715  -5.704   0.000  0.00  0.00    +0.000 A 
ATOM     28  C   UNL     1       1.429  -6.117   0.000  0.00  0.00    +0.000 A 
ATOM     29  C   UNL     1       1.429  -6.942   0.000  0.00  0.00    +0.000 A 
BRANCH  26  30
ATOM     30  C   UNL     1      -0.715  -5.704   0.000  0.00  0.00    +0.000 C 
ATOM     31  F   UNL     1      -1.429  -5.292   0.000  0.00  0.00    +0.000 F 
ATOM     32  F   UNL     1      -0.302  -4.990   0.000  0.00  0.00    +0.000 F 
ATOM     33  F   UNL     1      -1.127  -6.419   0.000  0.00  0.00    +0.000 F 
ENDBRANCH  26  30
ENDBRANCH  21  28
ENDBRANCH  20  23
ENDBRANCH   1  20
TORSDOF 7
