REMARK  Name = 
REMARK  6 active torsions:
REMARK  status: ('A' for Active; 'I' for Inactive)
REMARK    1  A    between atoms: C_2  and  C_4
REMARK    2  A    between atoms: C_4  and  C_5
REMARK    3  A    between atoms: C_9  and  C_11
REMARK    4  A    between atoms: C_11  and  C_12
REMARK    5  A    between atoms: C_16  and  C_18
REMARK    6  A    between atoms: C_18  and  C_19
REMARK                            x       y       z     vdW  Elec       q    Type
REMARK                         _______ _______ _______ _____ _____    ______ ____
ROOT
ATOM      1  C   UNL     1      -0.268   0.361   0.000  0.00  0.00    +0.000 C 
ENDROOT
BRANCH   1   3
ATOM      2  C   UNL     1      -1.697   0.361   0.000  0.00  0.00    +0.000 C 
ATOM      3  C   UNL     1      -0.982  -0.052   0.000  0.00  0.00    +0.000 C 
ATOM      4  O   UNL     1      -0.982  -0.877   0.000  0.00  0.00    +0.000 OA
ENDBRANCH   1   3
BRANCH   1   5
ATOM      5  C   UNL     1       0.447  -0.052   0.000  0.00  0.00    +0.000 C 
ATOM      6  O   UNL     1       0.447  -0.877   0.000  0.00  0.00    +0.000 OA
ATOM      7  O   UNL     1       1.161   0.361   0.000  0.00  0.00    +0.000 OA
ENDBRANCH   1   5
TORSDOF 2
REMARK  Name = 
REMARK  6 active torsions:
REMARK  status: ('A' for Active; 'I' for Inactive)
REMARK    1  A    between atoms: C_2  and  C_4
REMARK    2  A    between atoms: C_4  and  C_5
REMARK    3  A    between atoms: C_9  and  C_11
REMARK    4  A    between atoms: C_11  and  C_12
REMARK    5  A    between atoms: C_16  and  C_18
REMARK    6  A    between atoms: C_18  and  C_19
REMARK                            x       y       z     vdW  Elec       q    Type
REMARK                         _______ _______ _______ _____ _____    ______ ____
ROOT
ATOM      1  C   UNL     1       5.352   0.000   0.000  0.00  0.00    +0.000 C 
ENDROOT
BRANCH   1   3
ATOM      2  C   UNL     1       5.352   1.429   0.000  0.00  0.00    +0.000 C 
ATOM      3  C   UNL     1       4.940   0.715   0.000  0.00  0.00    +0.000 C 
ATOM      4  O   UNL     1       4.115   0.715   0.000  0.00  0.00    +0.000 OA
ENDBRANCH   1   3
BRANCH   1   5
ATOM      5  C   UNL     1       4.940  -0.715   0.000  0.00  0.00    +0.000 C 
ATOM      6  O   UNL     1       5.352  -1.429   0.000  0.00  0.00    +0.000 OA
ATOM      7  O   UNL     1       4.115  -0.715   0.000  0.00  0.00    +0.000 OA
ENDBRANCH   1   5
TORSDOF 2
REMARK  Name = 
REMARK  6 active torsions:
REMARK  status: ('A' for Active; 'I' for Inactive)
REMARK    1  A    between atoms: C_2  and  C_4
REMARK    2  A    between atoms: C_4  and  C_5
REMARK    3  A    between atoms: C_9  and  C_11
REMARK    4  A    between atoms: C_11  and  C_12
REMARK    5  A    between atoms: C_16  and  C_18
REMARK    6  A    between atoms: C_18  and  C_19
REMARK                            x       y       z     vdW  Elec       q    Type
REMARK                         _______ _______ _______ _____ _____    ______ ____
ROOT
ATOM      1  C   UNL     1       0.471  -4.508   0.000  0.00  0.00    +0.000 C 
ENDROOT
BRANCH   1   3
ATOM      2  C   UNL     1       0.471  -3.079   0.000  0.00  0.00    +0.000 C 
ATOM      3  C   UNL     1       0.059  -3.793   0.000  0.00  0.00    +0.000 C 
ATOM      4  O   UNL     1      -0.766  -3.793   0.000  0.00  0.00    +0.000 OA
ENDBRANCH   1   3
BRANCH   1   5
ATOM      5  C   UNL     1       0.059  -5.222   0.000  0.00  0.00    +0.000 C 
ATOM      6  O   UNL     1       0.471  -5.937   0.000  0.00  0.00    +0.000 OA
ATOM      7  O   UNL     1      -0.766  -5.222   0.000  0.00  0.00    +0.000 OA
ENDBRANCH   1   5
TORSDOF 2
REMARK  Name = 
REMARK  6 active torsions:
REMARK  status: ('A' for Active; 'I' for Inactive)
REMARK    1  A    between atoms: C_2  and  C_4
REMARK    2  A    between atoms: C_4  and  C_5
REMARK    3  A    between atoms: C_9  and  C_11
REMARK    4  A    between atoms: C_11  and  C_12
REMARK    5  A    between atoms: C_16  and  C_18
REMARK    6  A    between atoms: C_18  and  C_19
REMARK                            x       y       z     vdW  Elec       q    Type
REMARK                         _______ _______ _______ _____ _____    ______ ____
ROOT
ATOM      1 AL   UNL     1       1.875   0.773   0.000  0.00  0.00    +0.000 Al
ENDROOT
TORSDOF 0
