REMARK  Name = 
REMARK  14 active torsions:
REMARK  status: ('A' for Active; 'I' for Inactive)
REMARK    1  A    between atoms: C_1  and  C_4
REMARK    2  A    between atoms: C_1  and  N_8
REMARK    3  A    between atoms: C_4  and  O_5
REMARK    4  A    between atoms: O_5  and  C_6
REMARK    5  A    between atoms: N_8  and  P_25
REMARK    6  A    between atoms: C_10  and  C_20
REMARK    7  A    between atoms: C_13  and  C_17
REMARK    8  A    between atoms: C_16  and  C_17
REMARK    9  A    between atoms: C_23  and  P_25
REMARK   10  A    between atoms: P_25  and  N_27
REMARK   11  A    between atoms: N_27  and  C_28
REMARK   12  A    between atoms: C_28  and  C_30
REMARK   13  A    between atoms: C_30  and  O_32
REMARK   14  A    between atoms: O_32  and  C_33
REMARK                            x       y       z     vdW  Elec       q    Type
REMARK                         _______ _______ _______ _____ _____    ______ ____
ROOT
ATOM      1  P   UNL     1       0.671  -0.723   0.000  0.00  0.00    +0.000 P 
ATOM      2  O   UNL     1       0.353  -1.484   0.000  0.00  0.00    +0.000 OA
ENDROOT
BRANCH   1   6
ATOM      3  C   UNL     1      -1.351  -0.036   0.000  0.00  0.00    +0.000 A 
ATOM      4  C   UNL     1      -1.461  -0.850   0.000  0.00  0.00    +0.000 A 
ATOM      5  C   UNL     1      -0.717  -1.210   0.000  0.00  0.00    +0.000 A 
ATOM      6  C   UNL     1      -0.146  -0.612   0.000  0.00  0.00    +0.000 A 
ATOM      7  O   UNL     1      -0.539   0.114   0.000  0.00  0.00    +0.000 OA
BRANCH   3   8
ATOM      8  C   UNL     1      -1.946   0.535   0.000  0.00  0.00    +0.000 A 
ATOM      9  N   UNL     1      -1.833   1.357   0.000  0.00  0.00    +0.000 NA
ATOM     10  C   UNL     1      -2.579   1.718   0.000  0.00  0.00    +0.000 A 
ATOM     11  C   UNL     1      -2.762   0.388   0.000  0.00  0.00    +0.000 A 
ATOM     12  S   UNL     1      -3.156   1.124   0.000  0.00  0.00    +0.000 S 
ATOM     13  N   UNL     1      -2.723   2.531   0.000  0.00  0.00    +0.000 NA
BRANCH  11  14
ATOM     14  C   UNL     1      -3.197  -0.321   0.000  0.00  0.00    +0.000 C 
BRANCH  14  16
ATOM     15  C   UNL     1      -4.427   0.443   0.000  0.00  0.00    +0.000 C 
ATOM     16  C   UNL     1      -4.033  -0.292   0.000  0.00  0.00    +0.000 C 
ATOM     17  C   UNL     1      -4.469  -0.993   0.000  0.00  0.00    +0.000 C 
ENDBRANCH  14  16
ENDBRANCH  11  14
ENDBRANCH   3   8
ENDBRANCH   1   6
BRANCH   1  18
ATOM     18  N   UNL     1       1.496  -0.725   0.000  0.00  0.00    +0.000 NA
BRANCH  18  19
ATOM     19  C   UNL     1       1.708  -1.519   0.000  0.00  0.00    +0.000 C 
ATOM     20  C   UNL     1       1.669  -2.268   0.000  0.00  0.00    +0.000 C 
BRANCH  19  21
ATOM     21  C   UNL     1       2.504  -1.734   0.000  0.00  0.00    +0.000 C 
ATOM     22  O   UNL     1       2.716  -2.531   0.000  0.00  0.00    +0.000 OA
BRANCH  21  23
ATOM     23  O   UNL     1       3.088  -1.151   0.000  0.00  0.00    +0.000 OA
BRANCH  23  24
ATOM     24  C   UNL     1       3.885  -1.366   0.000  0.00  0.00    +0.000 C 
ATOM     25  C   UNL     1       4.469  -0.784   0.000  0.00  0.00    +0.000 C 
ENDBRANCH  23  24
ENDBRANCH  21  23
ENDBRANCH  19  21
ENDBRANCH  18  19
ENDBRANCH   1  18
BRANCH   1  26
ATOM     26  N   UNL     1       1.174  -0.069   0.000  0.00  0.00    +0.000 NA
BRANCH  26  27
ATOM     27  C   UNL     1       1.886   0.339   0.000  0.00  0.00    +0.000 C 
ATOM     28  C   UNL     1       2.298  -0.375   0.000  0.00  0.00    +0.000 C 
BRANCH  27  29
ATOM     29  C   UNL     1       1.886   1.164   0.000  0.00  0.00    +0.000 C 
ATOM     30  O   UNL     1       1.174   1.581   0.000  0.00  0.00    +0.000 OA
BRANCH  29  31
ATOM     31  O   UNL     1       2.598   1.577   0.000  0.00  0.00    +0.000 OA
BRANCH  31  32
ATOM     32  C   UNL     1       3.311   1.164   0.000  0.00  0.00    +0.000 C 
ATOM     33  C   UNL     1       4.023   1.577   0.000  0.00  0.00    +0.000 C 
ENDBRANCH  31  32
ENDBRANCH  29  31
ENDBRANCH  27  29
ENDBRANCH  26  27
ENDBRANCH   1  26
TORSDOF 14
