REMARK  Name = 
REMARK  3 active torsions:
REMARK  status: ('A' for Active; 'I' for Inactive)
REMARK    1  A    between atoms: C_13  and  C_16
REMARK    2  A    between atoms: C_14  and  S_26
REMARK    3  A    between atoms: C_18  and  S_26
REMARK                            x       y       z     vdW  Elec       q    Type
REMARK                         _______ _______ _______ _____ _____    ______ ____
ROOT
ATOM      1  C   UNL     1       0.339   1.952   0.000  0.00  0.00    +0.000 A 
ATOM      2  C   UNL     1      -0.375   2.365   0.000  0.00  0.00    +0.000 A 
ATOM      3  C   UNL     1       0.339   1.127   0.000  0.00  0.00    +0.000 A 
ATOM      4  C   UNL     1      -1.090   1.952   0.000  0.00  0.00    +0.000 A 
ATOM      5  C   UNL     1      -1.874   0.872   0.000  0.00  0.00    +0.000 A 
ATOM      6  N   UNL     1      -1.874   2.207   0.000  0.00  0.00    +0.000 NA
ATOM      7  N   UNL     1      -2.359   1.540   0.000  0.00  0.00    +0.000 NA
ATOM      8  N   UNL     1      -0.375   0.715   0.000  0.00  0.00    +0.000 NA
ATOM      9  N   UNL     1      -1.090   1.127   0.000  0.00  0.00    +0.000 N 
ENDROOT
BRANCH   3  13
ATOM     10  C   UNL     1       2.282  -1.031   0.000  0.00  0.00    +0.000 C 
ATOM     11  C   UNL     1       1.807   1.050   0.000  0.00  0.00    +0.000 A 
ATOM     12  C   UNL     1       1.140  -0.106   0.000  0.00  0.00    +0.000 A 
ATOM     13  C   UNL     1       1.054   0.715   0.000  0.00  0.00    +0.000 A 
ATOM     14  N   UNL     1       2.359   0.437   0.000  0.00  0.00    +0.000 NA
ATOM     15  N   UNL     1       1.947  -0.277   0.000  0.00  0.00    +0.000 N 
ENDBRANCH   3  13
BRANCH   5  16
ATOM     16  S   UNL     1      -2.129   0.088   0.000  0.00  0.00    +0.000 S 
BRANCH  16  24
ATOM     17  C   UNL     1       1.141  -1.409   0.000  0.00  0.00    +0.000 A 
ATOM     18  C   UNL     1       0.589  -0.795   0.000  0.00  0.00    +0.000 A 
ATOM     19  C   UNL     1      -1.832  -1.310   0.000  0.00  0.00    +0.000 A 
ATOM     20  C   UNL     1      -1.280  -1.923   0.000  0.00  0.00    +0.000 A 
ATOM     21  C   UNL     1       0.886  -2.193   0.000  0.00  0.00    +0.000 A 
ATOM     22  C   UNL     1      -0.770  -0.354   0.000  0.00  0.00    +0.000 A 
ATOM     23  C   UNL     1      -0.218  -0.967   0.000  0.00  0.00    +0.000 A 
ATOM     24  C   UNL     1      -1.577  -0.525   0.000  0.00  0.00    +0.000 A 
ATOM     25  C   UNL     1      -0.473  -1.752   0.000  0.00  0.00    +0.000 A 
ATOM     26  N   UNL     1       0.079  -2.365   0.000  0.00  0.00    +0.000 NA
ENDBRANCH  16  24
ENDBRANCH   5  16
TORSDOF 3
