REMARK  Name = 
REMARK  4 active torsions:
REMARK  status: ('A' for Active; 'I' for Inactive)
REMARK    1  A    between atoms: C_2  and  C_4
REMARK    2  A    between atoms: C_2  and  C_6
REMARK    3  A    between atoms: C_9  and  N_12
REMARK    4  A    between atoms: C_16  and  C_27
REMARK                            x       y       z     vdW  Elec       q    Type
REMARK                         _______ _______ _______ _____ _____    ______ ____
ROOT
ATOM      1  N   UNL     1      -2.959   5.090   0.000  0.00  0.00    +0.000 N 
ATOM      2  C   UNL     1      -3.572   4.537   0.000  0.00  0.00    +0.000 A 
ATOM      3  C   UNL     1      -3.572   3.712   0.000  0.00  0.00    +0.000 A 
ATOM      4  C   UNL     1      -2.858   3.300   0.000  0.00  0.00    +0.000 A 
ATOM      5  C   UNL     1      -2.858   2.475   0.000  0.00  0.00    +0.000 A 
ATOM      6  C   UNL     1      -3.572   2.062   0.000  0.00  0.00    +0.000 A 
ATOM      7  C   UNL     1      -4.287   2.475   0.000  0.00  0.00    +0.000 A 
ATOM      8  C   UNL     1      -4.287   3.300   0.000  0.00  0.00    +0.000 A 
ATOM      9  N   UNL     1      -5.001   3.712   0.000  0.00  0.00    +0.000 NA
ATOM     10  C   UNL     1      -5.001   4.537   0.000  0.00  0.00    +0.000 A 
ATOM     11  C   UNL     1      -4.287   4.950   0.000  0.00  0.00    +0.000 A 
ATOM     12  N   UNL     1      -4.115   5.757   0.000  0.00  0.00    +0.000 N 
ATOM     13  C   UNL     1      -3.295   5.843   0.000  0.00  0.00    +0.000 A 
ATOM     14  O   UNL     1      -2.882   6.558   0.000  0.00  0.00    +0.000 OA
ATOM     15  C   UNL     1      -4.667   6.370   0.000  0.00  0.00    +0.000 C 
ENDROOT
BRANCH   5  16
ATOM     16  C   UNL     1      -2.143   2.062   0.000  0.00  0.00    +0.000 A 
ATOM     17  C   UNL     1      -1.429   2.475   0.000  0.00  0.00    +0.000 A 
ATOM     18  C   UNL     1      -0.715   2.062   0.000  0.00  0.00    +0.000 A 
ATOM     19  C   UNL     1       0.000   2.475   0.000  0.00  0.00    +0.000 A 
ATOM     20  C   UNL     1       0.715   2.062   0.000  0.00  0.00    +0.000 A 
ATOM     21  C   UNL     1       0.715   1.238   0.000  0.00  0.00    +0.000 A 
ATOM     22  C   UNL     1       0.000   0.825   0.000  0.00  0.00    +0.000 A 
ATOM     23  C   UNL     1      -0.715   1.238   0.000  0.00  0.00    +0.000 A 
ATOM     24  N   UNL     1      -1.429   0.825   0.000  0.00  0.00    +0.000 NA
ATOM     25  C   UNL     1      -2.143   1.238   0.000  0.00  0.00    +0.000 A 
ENDBRANCH   5  16
BRANCH   1  29
ATOM     26  C   UNL     1      -0.538   4.575   0.000  0.00  0.00    +0.000 A 
ATOM     27  C   UNL     1      -1.090   3.962   0.000  0.00  0.00    +0.000 A 
ATOM     28  C   UNL     1      -1.897   4.133   0.000  0.00  0.00    +0.000 A 
ATOM     29  C   UNL     1      -2.152   4.918   0.000  0.00  0.00    +0.000 A 
ATOM     30  C   UNL     1      -1.600   5.531   0.000  0.00  0.00    +0.000 A 
ATOM     31  C   UNL     1      -0.793   5.360   0.000  0.00  0.00    +0.000 A 
BRANCH  26  33
ATOM     32  C   UNL     1       0.440   5.210   0.000  0.00  0.00    +0.000 C 
ATOM     33  C   UNL     1       0.269   4.403   0.000  0.00  0.00    +0.000 C 
ATOM     34  C   UNL     1       0.097   3.596   0.000  0.00  0.00    +0.000 C 
BRANCH  33  35
ATOM     35  C   UNL     1       1.076   4.232   0.000  0.00  0.00    +0.000 C 
ATOM     36  N   UNL     1       1.883   4.060   0.000  0.00  0.00    +0.000 NA
ENDBRANCH  33  35
ENDBRANCH  26  33
ENDBRANCH   1  29
TORSDOF 4
