REMARK  Name = 
REMARK  5 active torsions:
REMARK  status: ('A' for Active; 'I' for Inactive)
REMARK    1  A    between atoms: C_4  and  C_11
REMARK    2  A    between atoms: C_12  and  C_18
REMARK    3  A    between atoms: N_20  and  C_27
REMARK    4  A    between atoms: N_30  and  C_33
REMARK    5  A    between atoms: C_33  and  C_34
REMARK                            x       y       z     vdW  Elec       q    Type
REMARK                         _______ _______ _______ _____ _____    ______ ____
ROOT
ATOM      1  C   UNL     1       1.139  -1.365   0.000  0.00  0.00    +0.000 A 
ATOM      2  C   UNL     1       0.654  -0.698   0.000  0.00  0.00    +0.000 A 
ATOM      3  N   UNL     1       1.139  -0.030   0.000  0.00  0.00    +0.000 N 
ATOM      4  C   UNL     1       1.923  -0.285   0.000  0.00  0.00    +0.000 A 
ATOM      5  C   UNL     1       2.638   0.127   0.000  0.00  0.00    +0.000 A 
ATOM      6  C   UNL     1       3.352  -0.285   0.000  0.00  0.00    +0.000 A 
ATOM      7  C   UNL     1       3.352  -1.110   0.000  0.00  0.00    +0.000 A 
ATOM      8  C   UNL     1       2.638  -1.523   0.000  0.00  0.00    +0.000 A 
ATOM      9  C   UNL     1       1.923  -1.110   0.000  0.00  0.00    +0.000 A 
ENDROOT
BRANCH   1  11
ATOM     10  C   UNL     1       0.099  -2.405   0.000  0.00  0.00    +0.000 C 
ATOM     11  C   UNL     1       0.884  -2.150   0.000  0.00  0.00    +0.000 C 
ATOM     12  C   UNL     1       1.369  -2.817   0.000  0.00  0.00    +0.000 C 
ATOM     13  O   UNL     1       2.194  -2.817   0.000  0.00  0.00    +0.000 OA
ATOM     14  N   UNL     1       0.884  -3.485   0.000  0.00  0.00    +0.000 NA
ATOM     15  C   UNL     1       0.099  -3.230   0.000  0.00  0.00    +0.000 C 
ATOM     16  O   UNL     1      -0.568  -3.715   0.000  0.00  0.00    +0.000 OA
BRANCH  10  20
ATOM     17  C   UNL     1      -1.608  -0.056   0.000  0.00  0.00    +0.000 C 
ATOM     18  N   UNL     1      -1.353  -0.840   0.000  0.00  0.00    +0.000 N 
ATOM     19  C   UNL     1      -0.568  -1.095   0.000  0.00  0.00    +0.000 A 
ATOM     20  C   UNL     1      -0.568  -1.920   0.000  0.00  0.00    +0.000 A 
ATOM     21  C   UNL     1      -1.353  -2.175   0.000  0.00  0.00    +0.000 A 
ATOM     22  C   UNL     1      -1.688  -2.929   0.000  0.00  0.00    +0.000 A 
ATOM     23  C   UNL     1      -2.509  -3.015   0.000  0.00  0.00    +0.000 A 
ATOM     24  C   UNL     1      -2.994  -2.347   0.000  0.00  0.00    +0.000 A 
ATOM     25  C   UNL     1      -2.658  -1.594   0.000  0.00  0.00    +0.000 A 
ATOM     26  C   UNL     1      -1.838  -1.508   0.000  0.00  0.00    +0.000 A 
ENDBRANCH  10  20
ENDBRANCH   1  11
BRANCH   3  27
ATOM     27  C   UNL     1       0.884   0.754   0.000  0.00  0.00    +0.000 C 
ATOM     28  C   UNL     1       0.077   0.926   0.000  0.00  0.00    +0.000 C 
ATOM     29  C   UNL     1      -0.178   1.710   0.000  0.00  0.00    +0.000 C 
ATOM     30  N   UNL     1       0.374   2.323   0.000  0.00  0.00    +0.000 NA
ATOM     31  C   UNL     1       1.181   2.152   0.000  0.00  0.00    +0.000 C 
ATOM     32  C   UNL     1       1.436   1.367   0.000  0.00  0.00    +0.000 C 
BRANCH  30  33
ATOM     33  C   UNL     1       0.119   3.108   0.000  0.00  0.00    +0.000 C 
BRANCH  33  34
ATOM     34  C   UNL     1       0.671   3.721   0.000  0.00  0.00    +0.000 A 
ATOM     35  C   UNL     1       0.416   4.506   0.000  0.00  0.00    +0.000 A 
ATOM     36  C   UNL     1       0.968   5.119   0.000  0.00  0.00    +0.000 A 
ATOM     37  C   UNL     1       1.775   4.947   0.000  0.00  0.00    +0.000 A 
ATOM     38  C   UNL     1       2.030   4.163   0.000  0.00  0.00    +0.000 A 
ATOM     39  N   UNL     1       1.478   3.550   0.000  0.00  0.00    +0.000 NA
ENDBRANCH  33  34
ENDBRANCH  30  33
ENDBRANCH   3  27
TORSDOF 5
