REMARK  Name = 
REMARK  17 active torsions:
REMARK  status: ('A' for Active; 'I' for Inactive)
REMARK    1  A    between atoms: CB_2  and  CA_4
REMARK    2  A    between atoms: CA_7  and  CB_64
REMARK    3  A    between atoms: CA_10  and  CB_61
REMARK    4  A    between atoms: CA_16  and  CB_50
REMARK    5  A    between atoms: CA_19  and  CB_43
REMARK    6  A    between atoms: CA_22  and  CB_37
REMARK    7  A    between atoms: CA_25  and  CB_29
REMARK    8  A    between atoms: CB_29  and  CG_30
REMARK    9  A    between atoms: CG_30  and  CD_31
REMARK   10  A    between atoms: CD_31  and  NE_32
REMARK   11  A    between atoms: CB_37  and  CG_38
REMARK   12  A    between atoms: CG_38  and  CD_39
REMARK   13  A    between atoms: CB_43  and  CG_44
REMARK   14  A    between atoms: CB_50  and  CG_51
REMARK   15  A    between atoms: CG_51  and  CD_52
REMARK   16  A    between atoms: CB_64  and  CG_65
REMARK   17  A    between atoms: CG_65  and  CD_66
REMARK                            x       y       z     vdW  Elec       q    Type
REMARK                         _______ _______ _______ _____ _____    ______ ____
ROOT
ATOM      1  CA  VAL A   8      -2.118   1.735   0.000  0.00  0.00    +0.000 C 
ATOM      2  C   VAL A   8      -1.441   1.940   0.000  0.00  0.00    +0.000 C 
ATOM      3  N   GLN A   1      -0.903   2.831   0.000  0.00  0.00    +0.000 NA
ATOM      4  CA  GLN A   1      -0.123   3.106   0.000  0.00  0.00    +0.000 C 
ATOM      5  C   GLN A   1       0.697   2.540   0.000  0.00  0.00    +0.000 C 
ATOM      6  N   SER A   2       1.508   3.021   0.000  0.00  0.00    +0.000 NA
ATOM      7  CA  SER A   2       2.255   2.669   0.000  0.00  0.00    +0.000 C 
ATOM      8  C   SER A   2       2.565   1.957   0.000  0.00  0.00    +0.000 C 
ATOM      9  N   PRO A   3       3.350   1.455   0.000  0.00  0.00    +0.000 N 
ATOM     10  CA  PRO A   3       3.626   0.674   0.000  0.00  0.00    +0.000 C 
ATOM     11  C   PRO A   3       3.693  -0.146   0.000  0.00  0.00    +0.000 C 
ATOM     12  N   GLU A   4       3.541  -0.962   0.000  0.00  0.00    +0.000 NA
ATOM     13  CA  GLU A   4       3.188  -1.708   0.000  0.00  0.00    +0.000 C 
ATOM     14  C   GLU A   4       2.618  -1.908   0.000  0.00  0.00    +0.000 C 
ATOM     15  N   HIS A   5       1.969  -2.803   0.000  0.00  0.00    +0.000 NA
ATOM     16  CA  HIS A   5       1.194  -3.079   0.000  0.00  0.00    +0.000 C 
ATOM     17  C   HIS A   5       0.439  -2.473   0.000  0.00  0.00    +0.000 C 
ATOM     18  N   GLN A   6      -0.442  -2.994   0.000  0.00  0.00    +0.000 NA
ATOM     19  CA  GLN A   6      -1.188  -2.637   0.000  0.00  0.00    +0.000 C 
ATOM     20  C   GLN A   6      -1.534  -1.961   0.000  0.00  0.00    +0.000 C 
ATOM     21  N   ARG A   7      -2.284  -1.423   0.000  0.00  0.00    +0.000 NA
ATOM     22  CA  ARG A   7      -2.560  -0.642   0.000  0.00  0.00    +0.000 C 
ATOM     23  C   ARG A   7      -2.094   0.182   0.000  0.00  0.00    +0.000 C 
ATOM     24  N   VAL A   8      -2.474   0.993   0.000  0.00  0.00    +0.000 NA
ATOM     25  O   ARG A   7      -1.266   0.041   0.000  0.00  0.00    +0.000 OA
ATOM     26  O   GLN A   6      -0.879  -1.387   0.000  0.00  0.00    +0.000 OA
ATOM     27  O   HIS A   5       0.369  -1.393   0.000  0.00  0.00    +0.000 OA
ATOM     28  O   GLU A   4       1.933  -0.976   0.000  0.00  0.00    +0.000 OA
ATOM     29  O   PRO A   3       4.973  -0.216   0.000  0.00  0.00    +0.000 OA
ATOM     30  CB  PRO A   3       4.449   0.674   0.000  0.00  0.00    +0.000 C 
ATOM     31  CG  PRO A   3       4.686   1.488   0.000  0.00  0.00    +0.000 C 
ATOM     32  CD  PRO A   3       4.007   1.956   0.000  0.00  0.00    +0.000 C 
ATOM     33  O   SER A   2       1.805   1.383   0.000  0.00  0.00    +0.000 OA
ATOM     34  O   GLN A   1       0.697   1.671   0.000  0.00  0.00    +0.000 OA
ATOM     35  O   VAL A   8      -0.480   1.215   0.000  0.00  0.00    +0.000 OA
ENDROOT
BRANCH   1  37
ATOM     36  CG1 VAL A   8      -4.065   2.149   0.000  0.00  0.00    +0.000 C 
ATOM     37  CB  VAL A   8      -3.330   2.524   0.000  0.00  0.00    +0.000 C 
ATOM     38  CG2 VAL A   8      -3.330   3.346   0.000  0.00  0.00    +0.000 C 
ENDBRANCH   1  37
BRANCH   7  39
ATOM     39  CB  SER A   2       2.702   3.358   0.000  0.00  0.00    +0.000 C 
ATOM     40  OG  SER A   2       2.327   4.098   0.000  0.00  0.00    +0.000 OA
ENDBRANCH   7  39
BRANCH  19  41
ATOM     41  CB  GLN A   6      -1.636  -3.326   0.000  0.00  0.00    +0.000 C 
BRANCH  41  42
ATOM     42  CG  GLN A   6      -1.261  -4.066   0.000  0.00  0.00    +0.000 C 
BRANCH  42  43
ATOM     43  CD  GLN A   6      -1.713  -4.755   0.000  0.00  0.00    +0.000 C 
ATOM     44  NE2 GLN A   6      -1.339  -5.491   0.000  0.00  0.00    +0.000 NA
ATOM     45  OE1 GLN A   6      -2.536  -4.755   0.000  0.00  0.00    +0.000 OA
ENDBRANCH  42  43
ENDBRANCH  41  42
ENDBRANCH  19  41
BRANCH  13  46
ATOM     46  CB  GLU A   4       3.878  -2.155   0.000  0.00  0.00    +0.000 C 
BRANCH  46  47
ATOM     47  CG  GLU A   4       4.613  -1.781   0.000  0.00  0.00    +0.000 C 
BRANCH  47  48
ATOM     48  CD  GLU A   4       5.307  -2.228   0.000  0.00  0.00    +0.000 C 
ATOM     49  OE1 GLU A   4       6.042  -1.854   0.000  0.00  0.00    +0.000 OA
ATOM     50  OE2 GLU A   4       5.307  -3.055   0.000  0.00  0.00    +0.000 OA
ENDBRANCH  47  48
ENDBRANCH  46  47
ENDBRANCH  13  46
BRANCH  22  51
ATOM     51  CB  ARG A   7      -3.364  -0.816   0.000  0.00  0.00    +0.000 C 
BRANCH  51  52
ATOM     52  CG  ARG A   7      -3.620  -1.599   0.000  0.00  0.00    +0.000 C 
BRANCH  52  53
ATOM     53  CD  ARG A   7      -4.429  -1.773   0.000  0.00  0.00    +0.000 C 
BRANCH  53  54
ATOM     54  NE  ARG A   7      -4.685  -2.555   0.000  0.00  0.00    +0.000 NA
ATOM     55  CZ  ARG A   7      -5.489  -2.729   0.000  0.00  0.00    +0.000 C 
ATOM     56  NH1 ARG A   7      -5.745  -3.517   0.000  0.00  0.00    +0.000 NA
ATOM     57  NH2 ARG A   7      -6.042  -2.116   0.000  0.00  0.00    +0.000 NA
ENDBRANCH  53  54
ENDBRANCH  52  53
ENDBRANCH  51  52
ENDBRANCH  22  51
BRANCH   4  58
ATOM     58  CB  GLN A   1      -0.297   3.915   0.000  0.00  0.00    +0.000 C 
BRANCH  58  59
ATOM     59  CG  GLN A   1      -1.084   4.171   0.000  0.00  0.00    +0.000 C 
BRANCH  59  60
ATOM     60  CD  GLN A   1      -1.253   4.975   0.000  0.00  0.00    +0.000 C 
ATOM     61  NE2 GLN A   1      -2.041   5.231   0.000  0.00  0.00    +0.000 NA
ATOM     62  OE1 GLN A   1      -0.640   5.528   0.000  0.00  0.00    +0.000 OA
ENDBRANCH  59  60
ENDBRANCH  58  59
ENDBRANCH   4  58
BRANCH  16  63
ATOM     63  CB  HIS A   5       1.491  -4.489   0.000  0.00  0.00    +0.000 C 
BRANCH  63  64
ATOM     64  CG  HIS A   5       2.278  -4.745   0.000  0.00  0.00    +0.000 A 
ATOM     65  ND1 HIS A   5       2.944  -4.259   0.000  0.00  0.00    +0.000 NA
ATOM     66  CE1 HIS A   5       3.613  -4.745   0.000  0.00  0.00    +0.000 A 
ATOM     67  NE2 HIS A   5       3.357  -5.528   0.000  0.00  0.00    +0.000 NA
ATOM     68  CD2 HIS A   5       2.531  -5.528   0.000  0.00  0.00    +0.000 A 
ENDBRANCH  63  64
ENDBRANCH  16  63
TORSDOF 17
