REMARK  Name = 
REMARK  1 active torsions:
REMARK  status: ('A' for Active; 'I' for Inactive)
REMARK    1  A    between atoms: C_3  and  C_4
REMARK                            x       y       z     vdW  Elec       q    Type
REMARK                         _______ _______ _______ _____ _____    ______ ____
ROOT
ATOM      1  O   UNL     1       1.072   0.618   0.000  0.00  0.00    +0.000 OA
ATOM      2  C   UNL     1       0.358   0.207   0.000  0.00  0.00    +0.000 C 
ATOM      3  C   UNL     1       0.358  -0.618   0.000  0.00  0.00    +0.000 C 
ENDROOT
BRANCH   2   5
ATOM      4 BR   UNL     1      -1.072   0.207   0.000  0.00  0.00    +0.000 Br
ATOM      5  C   UNL     1      -0.358   0.618   0.000  0.00  0.00    +0.000 C 
ENDBRANCH   2   5
TORSDOF 1
