REMARK  Name = 
REMARK  12 active torsions:
REMARK  status: ('A' for Active; 'I' for Inactive)
REMARK    1  A    between atoms: N_2  and  S_3
REMARK    2  A    between atoms: S_3  and  C_6
REMARK    3  A    between atoms: C_11  and  C_14
REMARK    4  A    between atoms: C_20  and  C_64
REMARK    5  A    between atoms: C_26  and  C_51
REMARK    6  A    between atoms: C_32  and  C_38
REMARK    7  A    between atoms: C_41  and  S_46
REMARK    8  A    between atoms: S_46  and  N_49
REMARK    9  A    between atoms: C_54  and  S_59
REMARK   10  A    between atoms: S_59  and  N_62
REMARK   11  A    between atoms: C_67  and  S_72
REMARK   12  A    between atoms: S_72  and  N_75
REMARK                            x       y       z     vdW  Elec       q    Type
REMARK                         _______ _______ _______ _____ _____    ______ ____
ROOT
ATOM      1  C   UNL     1       0.011  -2.049   0.000  0.00  0.00    +0.000 C 
ATOM      2  C   UNL     1      -0.724  -1.646   0.000  0.00  0.00    +0.000 C 
ATOM      3  C   UNL     1      -1.482  -2.062   0.000  0.00  0.00    +0.000 C 
ATOM      4  C   UNL     1      -2.043  -1.511   0.000  0.00  0.00    +0.000 C 
ATOM      5  C   UNL     1      -1.669  -0.747   0.000  0.00  0.00    +0.000 C 
ATOM      6  N   UNL     1      -0.848  -0.886   0.000  0.00  0.00    +0.000 NA
ATOM      7  C   UNL     1      -2.056  -0.047   0.000  0.00  0.00    +0.000 C 
ATOM      8  C   UNL     1      -1.682   0.717   0.000  0.00  0.00    +0.000 A 
ATOM      9  N   UNL     1      -0.893   0.871   0.000  0.00  0.00    +0.000 NA
ATOM     10  C   UNL     1      -0.724   1.663   0.000  0.00  0.00    +0.000 A 
ATOM     11  C   UNL     1      -1.459   2.008   0.000  0.00  0.00    +0.000 A 
ATOM     12  C   UNL     1      -2.039   1.417   0.000  0.00  0.00    +0.000 A 
ATOM     13  C   UNL     1       0.005   2.050   0.000  0.00  0.00    +0.000 C 
ATOM     14  C   UNL     1       0.711   1.675   0.000  0.00  0.00    +0.000 C 
ATOM     15  N   UNL     1       0.864   0.857   0.000  0.00  0.00    +0.000 NA
ATOM     16  C   UNL     1       1.627   0.746   0.000  0.00  0.00    +0.000 C 
ATOM     17  C   UNL     1       2.030   1.511   0.000  0.00  0.00    +0.000 C 
ATOM     18  C   UNL     1       1.469   2.062   0.000  0.00  0.00    +0.000 C 
ATOM     19  C   UNL     1       2.043   0.018   0.000  0.00  0.00    +0.000 C 
ATOM     20  C   UNL     1       1.668  -0.688   0.000  0.00  0.00    +0.000 A 
ATOM     21  C   UNL     1       2.056  -1.475   0.000  0.00  0.00    +0.000 A 
ATOM     22  C   UNL     1       1.504  -2.036   0.000  0.00  0.00    +0.000 A 
ATOM     23  C   UNL     1       0.711  -1.663   0.000  0.00  0.00    +0.000 A 
ATOM     24  N   UNL     1       0.850  -0.871   0.000  0.00  0.00    +0.000 NA
ENDROOT
BRANCH  19  25
ATOM     25  C   UNL     1       2.868   0.031   0.000  0.00  0.00    +0.000 A 
ATOM     26  C   UNL     1       3.269   0.752   0.000  0.00  0.00    +0.000 A 
ATOM     27  F   UNL     1       2.845   1.460   0.000  0.00  0.00    +0.000 F 
ATOM     28  C   UNL     1       4.094   0.765   0.000  0.00  0.00    +0.000 A 
ATOM     29  C   UNL     1       4.517   0.057   0.000  0.00  0.00    +0.000 A 
ATOM     30  C   UNL     1       4.116  -0.664   0.000  0.00  0.00    +0.000 A 
ATOM     31  C   UNL     1       3.291  -0.677   0.000  0.00  0.00    +0.000 A 
ATOM     32  F   UNL     1       2.890  -1.398   0.000  0.00  0.00    +0.000 F 
BRANCH  28  33
ATOM     33  S   UNL     1       4.495   1.486   0.000  0.00  0.00    +0.000 S 
ATOM     34  O   UNL     1       3.774   1.887   0.000  0.00  0.00    +0.000 OA
ATOM     35  O   UNL     1       5.216   1.085   0.000  0.00  0.00    +0.000 OA
BRANCH  33  36
ATOM     36  N   UNL     1       4.896   2.207   0.000  0.00  0.00    +0.000 NA
ATOM     37  C   UNL     1       5.721   2.220   0.000  0.00  0.00    +0.000 C 
ENDBRANCH  33  36
ENDBRANCH  28  33
ENDBRANCH  19  25
BRANCH  13  38
ATOM     38  C   UNL     1       0.004   2.875   0.000  0.00  0.00    +0.000 A 
ATOM     39  C   UNL     1      -0.710   3.287   0.000  0.00  0.00    +0.000 A 
ATOM     40  F   UNL     1      -1.425   2.874   0.000  0.00  0.00    +0.000 F 
ATOM     41  C   UNL     1      -0.710   4.112   0.000  0.00  0.00    +0.000 A 
ATOM     42  C   UNL     1       0.004   4.525   0.000  0.00  0.00    +0.000 A 
ATOM     43  C   UNL     1       0.719   4.112   0.000  0.00  0.00    +0.000 A 
ATOM     44  C   UNL     1       0.719   3.287   0.000  0.00  0.00    +0.000 A 
ATOM     45  F   UNL     1       1.433   2.875   0.000  0.00  0.00    +0.000 F 
BRANCH  41  46
ATOM     46  S   UNL     1      -1.425   4.524   0.000  0.00  0.00    +0.000 S 
ATOM     47  O   UNL     1      -1.013   5.239   0.000  0.00  0.00    +0.000 OA
ATOM     48  O   UNL     1      -1.837   3.810   0.000  0.00  0.00    +0.000 OA
BRANCH  46  49
ATOM     49  N   UNL     1      -2.139   4.936   0.000  0.00  0.00    +0.000 NA
ATOM     50  C   UNL     1      -2.854   4.524   0.000  0.00  0.00    +0.000 C 
ENDBRANCH  46  49
ENDBRANCH  41  46
ENDBRANCH  13  38
BRANCH   1  56
ATOM     51  C   UNL     1       0.729  -4.111   0.000  0.00  0.00    +0.000 A 
ATOM     52  C   UNL     1       0.015  -4.524   0.000  0.00  0.00    +0.000 A 
ATOM     53  C   UNL     1      -0.700  -4.113   0.000  0.00  0.00    +0.000 A 
ATOM     54  C   UNL     1      -0.701  -3.288   0.000  0.00  0.00    +0.000 A 
ATOM     55  F   UNL     1      -1.416  -2.877   0.000  0.00  0.00    +0.000 F 
ATOM     56  C   UNL     1       0.013  -2.874   0.000  0.00  0.00    +0.000 A 
ATOM     57  C   UNL     1       0.728  -3.286   0.000  0.00  0.00    +0.000 A 
ATOM     58  F   UNL     1       1.442  -2.872   0.000  0.00  0.00    +0.000 F 
BRANCH  51  59
ATOM     59  S   UNL     1       1.444  -4.522   0.000  0.00  0.00    +0.000 S 
ATOM     60  O   UNL     1       1.855  -3.807   0.000  0.00  0.00    +0.000 OA
ATOM     61  O   UNL     1       1.033  -5.237   0.000  0.00  0.00    +0.000 OA
BRANCH  59  63
ATOM     62  C   UNL     1       2.161  -5.758   0.000  0.00  0.00    +0.000 C 
ATOM     63  N   UNL     1       2.159  -4.933   0.000  0.00  0.00    +0.000 NA
ENDBRANCH  59  63
ENDBRANCH  51  59
ENDBRANCH   1  56
BRANCH   7  64
ATOM     64  C   UNL     1      -2.881  -0.068   0.000  0.00  0.00    +0.000 A 
ATOM     65  C   UNL     1      -3.275  -0.793   0.000  0.00  0.00    +0.000 A 
ATOM     66  F   UNL     1      -2.845  -1.496   0.000  0.00  0.00    +0.000 F 
ATOM     67  C   UNL     1      -4.100  -0.813   0.000  0.00  0.00    +0.000 A 
ATOM     68  C   UNL     1      -4.530  -0.110   0.000  0.00  0.00    +0.000 A 
ATOM     69  C   UNL     1      -4.136   0.615   0.000  0.00  0.00    +0.000 A 
ATOM     70  C   UNL     1      -3.311   0.636   0.000  0.00  0.00    +0.000 A 
ATOM     71  F   UNL     1      -2.917   1.361   0.000  0.00  0.00    +0.000 F 
BRANCH  67  72
ATOM     72  S   UNL     1      -4.494  -1.538   0.000  0.00  0.00    +0.000 S 
ATOM     73  O   UNL     1      -3.769  -1.932   0.000  0.00  0.00    +0.000 OA
ATOM     74  O   UNL     1      -5.219  -1.143   0.000  0.00  0.00    +0.000 OA
BRANCH  72  75
ATOM     75  N   UNL     1      -4.888  -2.263   0.000  0.00  0.00    +0.000 NA
ATOM     76  C   UNL     1      -5.713  -2.283   0.000  0.00  0.00    +0.000 C 
ENDBRANCH  72  75
ENDBRANCH  67  72
ENDBRANCH   7  64
TORSDOF 12
