REMARK  Name = 
REMARK  8 active torsions:
REMARK  status: ('A' for Active; 'I' for Inactive)
REMARK    1  A    between atoms: C_2  and  C_3
REMARK    2  A    between atoms: N_5  and  S_6
REMARK    3  A    between atoms: S_6  and  C_9
REMARK    4  A    between atoms: C_11  and  N_12
REMARK    5  A    between atoms: N_19  and  C_20
REMARK    6  A    between atoms: C_23  and  O_24
REMARK    7  A    between atoms: O_24  and  C_25
REMARK    8  A    between atoms: C_25  and  C_26
REMARK                            x       y       z     vdW  Elec       q    Type
REMARK                         _______ _______ _______ _____ _____    ______ ____
ROOT
ATOM      1  N   UNL     1      -2.501  -2.475   0.000  0.00  0.00    +0.000 NA
ATOM      2  C   UNL     1      -1.786  -2.062   0.000  0.00  0.00    +0.000 A 
ATOM      3  N   UNL     1      -1.786  -1.238   0.000  0.00  0.00    +0.000 NA
ATOM      4  C   UNL     1      -1.072  -0.825   0.000  0.00  0.00    +0.000 A 
ATOM      5  C   UNL     1      -0.357  -1.238   0.000  0.00  0.00    +0.000 A 
ATOM      6  F   UNL     1       0.357  -0.825   0.000  0.00  0.00    +0.000 F 
ATOM      7  C   UNL     1      -0.357  -2.062   0.000  0.00  0.00    +0.000 A 
ATOM      8  N   UNL     1       0.357  -2.475   0.000  0.00  0.00    +0.000 NA
ATOM      9  N   UNL     1      -1.072  -2.475   0.000  0.00  0.00    +0.000 NA
ENDROOT
BRANCH   1  12
ATOM     10  C   UNL     1      -3.929  -0.825   0.000  0.00  0.00    +0.000 A 
ATOM     11  C   UNL     1      -3.215  -1.238   0.000  0.00  0.00    +0.000 A 
ATOM     12  C   UNL     1      -3.215  -2.062   0.000  0.00  0.00    +0.000 A 
ATOM     13  C   UNL     1      -3.929  -2.475   0.000  0.00  0.00    +0.000 A 
ATOM     14  C   UNL     1      -4.644  -2.062   0.000  0.00  0.00    +0.000 A 
ATOM     15  C   UNL     1      -4.644  -1.238   0.000  0.00  0.00    +0.000 A 
ATOM     16  C   UNL     1      -5.359  -0.825   0.000  0.00  0.00    +0.000 C 
BRANCH  10  17
ATOM     17  S   UNL     1      -3.929   0.000   0.000  0.00  0.00    +0.000 S 
ATOM     18  O   UNL     1      -4.755   0.000   0.000  0.00  0.00    +0.000 OA
ATOM     19  O   UNL     1      -3.104   0.000   0.000  0.00  0.00    +0.000 OA
BRANCH  17  22
ATOM     20  C   UNL     1      -4.644   1.238   0.000  0.00  0.00    +0.000 C 
ATOM     21  O   UNL     1      -5.359   0.825   0.000  0.00  0.00    +0.000 OA
ATOM     22  N   UNL     1      -3.929   0.825   0.000  0.00  0.00    +0.000 NA
BRANCH  20  24
ATOM     23  C   UNL     1      -5.359   2.475   0.000  0.00  0.00    +0.000 C 
ATOM     24  C   UNL     1      -4.644   2.062   0.000  0.00  0.00    +0.000 C 
ENDBRANCH  20  24
ENDBRANCH  17  22
ENDBRANCH  10  17
ENDBRANCH   1  12
BRANCH   8  25
ATOM     25  C   UNL     1       1.072  -2.062   0.000  0.00  0.00    +0.000 A 
ATOM     26  C   UNL     1       1.072  -1.238   0.000  0.00  0.00    +0.000 A 
ATOM     27  C   UNL     1       1.786  -0.825   0.000  0.00  0.00    +0.000 A 
ATOM     28  C   UNL     1       2.501  -1.238   0.000  0.00  0.00    +0.000 A 
ATOM     29  C   UNL     1       2.501  -2.062   0.000  0.00  0.00    +0.000 A 
ATOM     30  C   UNL     1       1.786  -2.475   0.000  0.00  0.00    +0.000 A 
BRANCH  28  31
ATOM     31  O   UNL     1       3.215  -0.825   0.000  0.00  0.00    +0.000 OA
BRANCH  31  32
ATOM     32  C   UNL     1       3.929  -1.238   0.000  0.00  0.00    +0.000 C 
BRANCH  32  33
ATOM     33  C   UNL     1       4.644  -0.825   0.000  0.00  0.00    +0.000 C 
ATOM     34  C   UNL     1       5.359  -0.412   0.000  0.00  0.00    +0.000 C 
ENDBRANCH  32  33
ENDBRANCH  31  32
ENDBRANCH  28  31
ENDBRANCH   8  25
TORSDOF 8
