REMARK  Name = 
REMARK  9 active torsions:
REMARK  status: ('A' for Active; 'I' for Inactive)
REMARK    1  A    between atoms: C_8  and  C_10
REMARK    2  A    between atoms: C_15  and  C_17
REMARK    3  A    between atoms: C_21  and  C_23
REMARK    4  A    between atoms: C_28  and  C_29
REMARK    5  A    between atoms: C_35  and  C_36
REMARK    6  A    between atoms: C_46  and  C_48
REMARK    7  A    between atoms: C_54  and  C_55
REMARK    8  A    between atoms: C_59  and  C_60
REMARK    9  A    between atoms: C_70  and  C_71
REMARK                            x       y       z     vdW  Elec       q    Type
REMARK                         _______ _______ _______ _____ _____    ______ ____
ROOT
ATOM      1  N   UNL     1       0.742   4.973   0.000  0.00  0.00    +0.000 NA
ATOM      2  C   UNL     1      -0.064   5.150   0.000  0.00  0.00    +0.000 C 
ATOM      3  C   UNL     1      -0.620   4.541   0.000  0.00  0.00    +0.000 C 
ATOM      4  O   UNL     1      -0.313   5.937   0.000  0.00  0.00    +0.000 OA
ATOM      5  C   UNL     1      -1.426   4.718   0.000  0.00  0.00    +0.000 C 
ATOM      6  O   UNL     1      -0.370   3.755   0.000  0.00  0.00    +0.000 OA
ATOM      7  C   UNL     1      -0.927   3.146   0.000  0.00  0.00    +0.000 C 
ATOM      8  C   UNL     1      -0.677   2.359   0.000  0.00  0.00    +0.000 C 
ATOM      9  O   UNL     1      -1.732   3.323   0.000  0.00  0.00    +0.000 OA
ATOM     10  N   UNL     1      -1.234   1.750   0.000  0.00  0.00    +0.000 NA
ATOM     11  C   UNL     1      -0.984   0.964   0.000  0.00  0.00    +0.000 C 
ATOM     12  C   UNL     1      -1.541   0.354   0.000  0.00  0.00    +0.000 C 
ATOM     13  O   UNL     1      -0.179   0.786   0.000  0.00  0.00    +0.000 OA
ATOM     14  O   UNL     1      -1.291  -0.432   0.000  0.00  0.00    +0.000 OA
ATOM     15  C   UNL     1       1.299   5.582   0.000  0.00  0.00    +0.000 C 
ATOM     16  C   UNL     1       2.104   5.405   0.000  0.00  0.00    +0.000 C 
ATOM     17  O   UNL     1       2.661   6.014   0.000  0.00  0.00    +0.000 OA
ATOM     18  O   UNL     1       2.354   4.619   0.000  0.00  0.00    +0.000 OA
ATOM     19  C   UNL     1       1.797   4.010   0.000  0.00  0.00    +0.000 C 
ATOM     20  C   UNL     1       2.047   3.223   0.000  0.00  0.00    +0.000 C 
ATOM     21  O   UNL     1       2.852   3.046   0.000  0.00  0.00    +0.000 OA
ATOM     22  N   UNL     1       1.490   2.614   0.000  0.00  0.00    +0.000 NA
ATOM     23  C   UNL     1       1.740   1.828   0.000  0.00  0.00    +0.000 C 
ATOM     24  C   UNL     1       1.183   1.218   0.000  0.00  0.00    +0.000 C 
ATOM     25  O   UNL     1       0.378   1.396   0.000  0.00  0.00    +0.000 OA
ATOM     26  O   UNL     1       1.433   0.432   0.000  0.00  0.00    +0.000 OA
ATOM     27  C   UNL     1       0.877  -0.177   0.000  0.00  0.00    +0.000 C 
ATOM     28  C   UNL     1       1.126  -0.964   0.000  0.00  0.00    +0.000 C 
ATOM     29  O   UNL     1       1.932  -1.141   0.000  0.00  0.00    +0.000 OA
ATOM     30  N   UNL     1       0.570  -1.573   0.000  0.00  0.00    +0.000 NA
ATOM     31  C   UNL     1       0.819  -2.359   0.000  0.00  0.00    +0.000 C 
ATOM     32  C   UNL     1       0.263  -2.968   0.000  0.00  0.00    +0.000 C 
ATOM     33  C   UNL     1       0.071   0.000   0.000  0.00  0.00    +0.000 C 
ATOM     34  O   UNL     1      -0.543  -2.791   0.000  0.00  0.00    +0.000 OA
ATOM     35  O   UNL     1       0.512  -3.755   0.000  0.00  0.00    +0.000 OA
ATOM     36  C   UNL     1      -0.044  -4.364   0.000  0.00  0.00    +0.000 C 
ATOM     37  C   UNL     1       0.205  -5.150   0.000  0.00  0.00    +0.000 C 
ATOM     38  O   UNL     1       1.011  -5.327   0.000  0.00  0.00    +0.000 OA
ATOM     39  N   UNL     1      -0.351  -5.760   0.000  0.00  0.00    +0.000 NA
ATOM     40  C   UNL     1      -1.157  -5.582   0.000  0.00  0.00    +0.000 C 
ATOM     41  C   UNL     1      -1.406  -4.796   0.000  0.00  0.00    +0.000 C 
ATOM     42  O   UNL     1      -0.850  -4.187   0.000  0.00  0.00    +0.000 OA
ATOM     43  O   UNL     1      -2.212  -4.619   0.000  0.00  0.00    +0.000 OA
ATOM     44  C   UNL     1      -1.848  -1.041   0.000  0.00  0.00    +0.000 C 
ATOM     45  O   UNL     1      -2.653  -0.864   0.000  0.00  0.00    +0.000 OA
ATOM     46  C   UNL     1      -1.598  -1.827   0.000  0.00  0.00    +0.000 C 
ATOM     47  N   UNL     1      -2.155  -2.437   0.000  0.00  0.00    +0.000 NA
ATOM     48  C   UNL     1      -1.905  -3.223   0.000  0.00  0.00    +0.000 C 
ATOM     49  C   UNL     1      -2.462  -3.832   0.000  0.00  0.00    +0.000 C 
ATOM     50  O   UNL     1      -1.099  -3.400   0.000  0.00  0.00    +0.000 OA
ATOM     51  C   UNL     1      -3.267  -3.655   0.000  0.00  0.00    +0.000 C 
ENDROOT
BRANCH   8  52
ATOM     52  C   UNL     1      -1.483   2.536   0.000  0.00  0.00    +0.000 C 
ATOM     53  C   UNL     1      -2.039   1.927   0.000  0.00  0.00    +0.000 C 
ATOM     54  C   UNL     1      -2.147   3.026   0.000  0.00  0.00    +0.000 C 
ENDBRANCH   8  52
BRANCH  12  55
ATOM     55  C   UNL     1      -2.346   0.532   0.000  0.00  0.00    +0.000 C 
ATOM     56  C   UNL     1      -2.596   1.318   0.000  0.00  0.00    +0.000 C 
ATOM     57  C   UNL     1      -2.903  -0.077   0.000  0.00  0.00    +0.000 C 
ENDBRANCH  12  55
BRANCH  15  58
ATOM     58  C   UNL     1       1.049   6.369   0.000  0.00  0.00    +0.000 C 
ATOM     59  C   UNL     1       1.606   6.978   0.000  0.00  0.00    +0.000 C 
ATOM     60  C   UNL     1       0.243   6.546   0.000  0.00  0.00    +0.000 C 
ENDBRANCH  15  58
BRANCH  19  61
ATOM     61  C   UNL     1       2.603   3.832   0.000  0.00  0.00    +0.000 C 
ATOM     62  C   UNL     1       3.267   3.343   0.000  0.00  0.00    +0.000 C 
ATOM     63  C   UNL     1       3.159   4.441   0.000  0.00  0.00    +0.000 C 
ENDBRANCH  19  61
BRANCH  23  64
ATOM     64  C   UNL     1       2.546   1.650   0.000  0.00  0.00    +0.000 C 
ATOM     65  C   UNL     1       2.795   0.864   0.000  0.00  0.00    +0.000 C 
ATOM     66  C   UNL     1       3.102   2.260   0.000  0.00  0.00    +0.000 C 
ENDBRANCH  23  64
BRANCH  31  67
ATOM     67  C   UNL     1       1.625  -2.536   0.000  0.00  0.00    +0.000 C 
ATOM     68  C   UNL     1       2.181  -1.927   0.000  0.00  0.00    +0.000 C 
ATOM     69  C   UNL     1       1.874  -3.323   0.000  0.00  0.00    +0.000 C 
ENDBRANCH  31  67
BRANCH  36  70
ATOM     70  C   UNL     1       0.761  -4.541   0.000  0.00  0.00    +0.000 C 
ATOM     71  C   UNL     1       1.425  -5.031   0.000  0.00  0.00    +0.000 C 
ATOM     72  C   UNL     1       1.318  -3.932   0.000  0.00  0.00    +0.000 C 
ENDBRANCH  36  70
BRANCH  40  73
ATOM     73  C   UNL     1      -1.713  -6.191   0.000  0.00  0.00    +0.000 C 
ATOM     74  C   UNL     1      -2.519  -6.014   0.000  0.00  0.00    +0.000 C 
ATOM     75  C   UNL     1      -1.464  -6.978   0.000  0.00  0.00    +0.000 C 
ENDBRANCH  40  73
BRANCH  46  76
ATOM     76  C   UNL     1      -2.404  -1.650   0.000  0.00  0.00    +0.000 C 
ATOM     77  C   UNL     1      -2.960  -2.259   0.000  0.00  0.00    +0.000 C 
ATOM     78  C   UNL     1      -3.068  -1.161   0.000  0.00  0.00    +0.000 C 
ENDBRANCH  46  76
TORSDOF 9
