REMARK  Name = 
REMARK  2 active torsions:
REMARK  status: ('A' for Active; 'I' for Inactive)
REMARK    1  A    between atoms: N_1  and  C_2
REMARK    2  A    between atoms: C_2  and  C_5
REMARK                            x       y       z     vdW  Elec       q    Type
REMARK                         _______ _______ _______ _____ _____    ______ ____
ROOT
ATOM      1  C   UNL     1       0.012   0.463   0.000  0.00  0.00    +0.000 C 
ATOM      2  C   UNL     1       0.020   1.288   0.000  0.00  0.00    +0.000 C 
ENDROOT
BRANCH   1   3
ATOM      3  C   UNL     1      -0.707   0.058   0.000  0.00  0.00    +0.000 A 
ATOM      4  C   UNL     1      -1.418   0.471   0.000  0.00  0.00    +0.000 A 
ATOM      5  C   UNL     1      -0.707  -0.769   0.000  0.00  0.00    +0.000 A 
ATOM      6  C   UNL     1      -2.134   0.060   0.000  0.00  0.00    +0.000 A 
ATOM      7  C   UNL     1      -1.422  -1.179   0.000  0.00  0.00    +0.000 A 
ATOM      8  C   UNL     1      -2.139  -0.765   0.000  0.00  0.00    +0.000 A 
ATOM      9 CL   UNL     1      -2.846   0.476   0.000  0.00  0.00    +0.000 Cl
ATOM     10 CL   UNL     1      -2.850  -1.184   0.000  0.00  0.00    +0.000 Cl
ENDBRANCH   1   3
BRANCH   1  11
ATOM     11  N   UNL     1       0.722   0.043   0.000  0.00  0.00    +0.000 N 
ATOM     12  C   UNL     1       0.816  -0.776   0.000  0.00  0.00    +0.000 C 
ATOM     13  N   UNL     1       1.473   0.386   0.000  0.00  0.00    +0.000 NA
ATOM     14  C   UNL     1       1.625  -0.940   0.000  0.00  0.00    +0.000 C 
ATOM     15  O   UNL     1       0.169  -1.288   0.000  0.00  0.00    +0.000 OA
ATOM     16  C   UNL     1       2.030  -0.221   0.000  0.00  0.00    +0.000 C 
ATOM     17  N   UNL     1       2.850  -0.127   0.000  0.00  0.00    +0.000 NA
ENDBRANCH   1  11
TORSDOF 2
