REMARK  Name = 
REMARK  12 active torsions:
REMARK  status: ('A' for Active; 'I' for Inactive)
REMARK    1  A    between atoms: C_2  and  C_3
REMARK    2  A    between atoms: C_8  and  C_50
REMARK    3  A    between atoms: C_16  and  C_29
REMARK    4  A    between atoms: C_18  and  C_26
REMARK    5  A    between atoms: C_29  and  C_30
REMARK    6  A    between atoms: N_32  and  CA_33
REMARK    7  A    between atoms: CA_33  and  CB_34
REMARK    8  A    between atoms: CA_33  and  C_38
REMARK    9  A    between atoms: CB_34  and  CG_35
REMARK   10  A    between atoms: C_41  and  C_44
REMARK   11  A    between atoms: C_44  and  C_45
REMARK   12  A    between atoms: C_45  and  C_46
REMARK                            x       y       z     vdW  Elec       q    Type
REMARK                         _______ _______ _______ _____ _____    ______ ____
ROOT
ATOM      1  C   UNK A   0      -2.043  -1.511   0.000  0.00  0.00    +0.000 C 
ATOM      2  C   UNK A   0      -1.482  -2.062   0.000  0.00  0.00    +0.000 C 
ATOM      3  C   UNK A   0      -0.724  -1.646   0.000  0.00  0.00    +0.000 C 
ATOM      4  C   UNK A   0       0.011  -2.049   0.000  0.00  0.00    +0.000 C 
ATOM      5  C   UNK A   0       0.711  -1.663   0.000  0.00  0.00    +0.000 A 
ATOM      6  C   UNK A   0       1.504  -2.036   0.000  0.00  0.00    +0.000 A 
ATOM      7  C   UNK A   0       2.056  -1.475   0.000  0.00  0.00    +0.000 A 
ATOM      8  C   UNK A   0       1.668  -0.688   0.000  0.00  0.00    +0.000 A 
ATOM      9  N   UNK A   0       0.850  -0.871   0.000  0.00  0.00    +0.000 NA
ATOM     10  C   UNK A   0       2.043   0.018   0.000  0.00  0.00    +0.000 C 
ATOM     11  C   UNK A   0       1.627   0.746   0.000  0.00  0.00    +0.000 C 
ATOM     12  N   UNK A   0       0.864   0.857   0.000  0.00  0.00    +0.000 NA
ATOM     13  C   UNK A   0       0.711   1.675   0.000  0.00  0.00    +0.000 C 
ATOM     14  C   UNK A   0       0.005   2.050   0.000  0.00  0.00    +0.000 C 
ATOM     15  C   UNK A   0      -0.724   1.663   0.000  0.00  0.00    +0.000 A 
ATOM     16  C   UNK A   0      -1.459   2.008   0.000  0.00  0.00    +0.000 A 
ATOM     17  C   UNK A   0      -2.039   1.417   0.000  0.00  0.00    +0.000 A 
ATOM     18  C   UNK A   0      -1.682   0.717   0.000  0.00  0.00    +0.000 A 
ATOM     19  N   UNK A   0      -0.893   0.871   0.000  0.00  0.00    +0.000 NA
ATOM     20  C   UNK A   0      -2.056  -0.047   0.000  0.00  0.00    +0.000 C 
ATOM     21  C   UNK A   0      -1.669  -0.747   0.000  0.00  0.00    +0.000 C 
ATOM     22  N   UNK A   0      -0.848  -0.886   0.000  0.00  0.00    +0.000 NA
ATOM     23  C   UNK A   0      -2.855   1.542   0.000  0.00  0.00    +0.000 C 
ATOM     24  C   UNK A   0       1.469   2.062   0.000  0.00  0.00    +0.000 C 
ATOM     25  C   UNK A   0       2.030   1.511   0.000  0.00  0.00    +0.000 C 
ATOM     26  C   UNK A   0       2.845   1.638   0.000  0.00  0.00    +0.000 C 
ATOM     27  C   UNK A   0       2.870  -1.606   0.000  0.00  0.00    +0.000 C 
ATOM     28  C   UNK A   0      -1.595  -2.880   0.000  0.00  0.00    +0.000 C 
ENDROOT
BRANCH  16  29
ATOM     29  C   UNK A   0      -1.687   2.737   0.000  0.00  0.00    +0.000 C 
ATOM     30  O   UNK A   0      -2.381   3.099   0.000  0.00  0.00    +0.000 OA
ATOM     31  O   UNK A   0      -1.170   3.521   0.000  0.00  0.00    +0.000 OA
ENDBRANCH  16  29
BRANCH   6  32
ATOM     32  C   UNK A   0       1.650  -2.849   0.000  0.00  0.00    +0.000 C 
ATOM     33  C   UNK A   0       2.426  -3.129   0.000  0.00  0.00    +0.000 C 
ENDBRANCH   6  32
BRANCH   1  35
ATOM     34  C   UNK A   0      -3.142  -2.424   0.000  0.00  0.00    +0.000 C 
ATOM     35  C   UNK A   0      -2.856  -1.650   0.000  0.00  0.00    +0.000 C 
ENDBRANCH   1  35
BRANCH  14  36
ATOM     36  C   UNK A   0       0.004   2.875   0.000  0.00  0.00    +0.000 C 
BRANCH  36  37
ATOM     37  C   UNK A   0      -0.710   3.287   0.000  0.00  0.00    +0.000 C 
ATOM     38  O   UNK A   0      -1.425   2.874   0.000  0.00  0.00    +0.000 OA
ATOM     39  N   ASP A   1      -0.710   4.112   0.000  0.00  0.00    +0.000 NA
BRANCH  39  40
ATOM     40  CA  ASP A   1      -1.425   4.524   0.000  0.00  0.00    +0.000 C 
BRANCH  40  41
ATOM     41  C   ASP A   1      -2.139   4.112   0.000  0.00  0.00    +0.000 C 
ATOM     42  O   ASP A   1      -2.854   4.524   0.000  0.00  0.00    +0.000 OA
ATOM     43  OXT ASP A   1      -2.139   3.287   0.000  0.00  0.00    +0.000 OA
ENDBRANCH  40  41
BRANCH  40  44
ATOM     44  CB  ASP A   1      -1.425   5.349   0.000  0.00  0.00    +0.000 C 
BRANCH  44  45
ATOM     45  CG  ASP A   1      -2.140   5.761   0.000  0.00  0.00    +0.000 C 
ATOM     46  OD1 ASP A   1      -2.140   6.587   0.000  0.00  0.00    +0.000 OA
ATOM     47  OD2 ASP A   1      -2.854   5.349   0.000  0.00  0.00    +0.000 OA
ENDBRANCH  44  45
ENDBRANCH  40  44
ENDBRANCH  39  40
ENDBRANCH  36  37
ENDBRANCH  14  36
BRANCH  24  48
ATOM     48  C   UNK A   0       1.594   2.878   0.000  0.00  0.00    +0.000 C 
BRANCH  48  49
ATOM     49  C   UNK A   0       2.362   3.177   0.000  0.00  0.00    +0.000 C 
BRANCH  49  50
ATOM     50  C   UNK A   0       2.487   3.993   0.000  0.00  0.00    +0.000 C 
ATOM     51  O   UNK A   0       1.844   4.509   0.000  0.00  0.00    +0.000 OA
ATOM     52  O   UNK A   0       3.256   4.292   0.000  0.00  0.00    +0.000 OA
ENDBRANCH  49  50
ENDBRANCH  48  49
ENDBRANCH  24  48
TORSDOF 12
