REMARK  Name = 
REMARK  2 active torsions:
REMARK  status: ('A' for Active; 'I' for Inactive)
REMARK    1  A    between atoms: C_3  and  C_11
REMARK    2  A    between atoms: C_4  and  C_5
REMARK                            x       y       z     vdW  Elec       q    Type
REMARK                         _______ _______ _______ _____ _____    ______ ____
ROOT
ATOM      1  O   UNL     1       0.715  -0.412   0.000  0.00  0.00    +0.000 OA
ATOM      2  C   UNL     1       0.715  -1.238   0.000  0.00  0.00    +0.000 C 
ATOM      3  C   UNL     1       1.127  -1.952   0.000  0.00  0.00    +0.000 C 
ATOM      4  C   UNL     1       0.302  -1.952   0.000  0.00  0.00    +0.000 C 
ENDROOT
BRANCH   4   5
ATOM      5  C   UNL     1      -0.412  -2.365   0.000  0.00  0.00    +0.000 A 
ATOM      6  C   UNL     1      -0.412  -3.189   0.000  0.00  0.00    +0.000 A 
ATOM      7  C   UNL     1      -1.127  -3.602   0.000  0.00  0.00    +0.000 A 
ATOM      8  C   UNL     1      -1.841  -3.189   0.000  0.00  0.00    +0.000 A 
ATOM      9  C   UNL     1      -1.841  -2.365   0.000  0.00  0.00    +0.000 A 
ATOM     10  C   UNL     1      -1.127  -1.952   0.000  0.00  0.00    +0.000 A 
ENDBRANCH   4   5
BRANCH   3  11
ATOM     11  C   UNL     1       1.841  -2.365   0.000  0.00  0.00    +0.000 A 
ATOM     12  C   UNL     1       2.556  -1.952   0.000  0.00  0.00    +0.000 A 
ATOM     13  C   UNL     1       3.270  -2.365   0.000  0.00  0.00    +0.000 A 
ATOM     14  C   UNL     1       3.270  -3.189   0.000  0.00  0.00    +0.000 A 
ATOM     15  C   UNL     1       2.556  -3.602   0.000  0.00  0.00    +0.000 A 
ATOM     16  C   UNL     1       1.841  -3.189   0.000  0.00  0.00    +0.000 A 
ENDBRANCH   3  11
TORSDOF 2
