REMARK  Name = 
REMARK  3 active torsions:
REMARK  status: ('A' for Active; 'I' for Inactive)
REMARK    1  A    between atoms: C_9  and  O_18
REMARK    2  A    between atoms: C_10  and  S_19
REMARK    3  A    between atoms: N_15  and  S_19
REMARK                            x       y       z     vdW  Elec       q    Type
REMARK                         _______ _______ _______ _____ _____    ______ ____
ROOT
ATOM      1  O   UNL     1       2.033   4.950   0.000  0.00  0.00    +0.000 OA
ATOM      2  O   UNL     1       3.683   4.950   0.000  0.00  0.00    +0.000 OA
ATOM      3  S   UNL     1       2.858   4.950   0.000  0.00  0.00    +0.000 S 
ENDROOT
BRANCH   3   9
ATOM      4  C   UNL     1       3.572   2.888   0.000  0.00  0.00    +0.000 A 
ATOM      5  C   UNL     1       2.143   2.888   0.000  0.00  0.00    +0.000 A 
ATOM      6  C   UNL     1       3.572   3.712   0.000  0.00  0.00    +0.000 A 
ATOM      7  C   UNL     1       2.143   3.712   0.000  0.00  0.00    +0.000 A 
ATOM      8  C   UNL     1       2.858   2.475   0.000  0.00  0.00    +0.000 A 
ATOM      9  C   UNL     1       2.858   4.125   0.000  0.00  0.00    +0.000 A 
ATOM     10  N   UNL     1       2.858   1.650   0.000  0.00  0.00    +0.000 NA
ENDBRANCH   3   9
BRANCH   3  17
ATOM     11  C   UNL     1       1.429   7.425   0.000  0.00  0.00    +0.000 A 
ATOM     12  C   UNL     1       0.715   6.188   0.000  0.00  0.00    +0.000 A 
ATOM     13  C   UNL     1       0.715   7.013   0.000  0.00  0.00    +0.000 A 
ATOM     14  C   UNL     1       2.143   6.188   0.000  0.00  0.00    +0.000 A 
ATOM     15  N   UNL     1       2.143   7.013   0.000  0.00  0.00    +0.000 NA
ATOM     16  N   UNL     1       1.429   5.775   0.000  0.00  0.00    +0.000 NA
ATOM     17  N   UNL     1       2.858   5.775   0.000  0.00  0.00    +0.000 NA
BRANCH  13  19
ATOM     18  C   UNL     1      -0.715   7.013   0.000  0.00  0.00    +0.000 C 
ATOM     19  O   UNL     1       0.000   7.425   0.000  0.00  0.00    +0.000 OA
ENDBRANCH  13  19
ENDBRANCH   3  17
TORSDOF 3
