REMARK  Name = 
REMARK  6 active torsions:
REMARK  status: ('A' for Active; 'I' for Inactive)
REMARK    1  A    between atoms: C_9  and  C_10
REMARK    2  A    between atoms: C_9  and  C_19
REMARK    3  A    between atoms: C_10  and  N_25
REMARK    4  A    between atoms: C_18  and  N_26
REMARK    5  A    between atoms: C_22  and  O_27
REMARK    6  A    between atoms: C_23  and  O_28
REMARK                            x       y       z     vdW  Elec       q    Type
REMARK                         _______ _______ _______ _____ _____    ______ ____
ROOT
ATOM      1  C   UNL     1       0.884   0.754   0.000  0.00  0.00    +0.000 C 
ENDROOT
BRANCH   1   6
ATOM      2  C   UNL     1      -0.171  -0.698   0.000  0.00  0.00    +0.000 C 
ATOM      3  C   UNL     1       2.638   0.127   0.000  0.00  0.00    +0.000 A 
ATOM      4  C   UNL     1       2.638  -1.523   0.000  0.00  0.00    +0.000 A 
ATOM      5  C   UNL     1       0.654  -0.698   0.000  0.00  0.00    +0.000 A 
ATOM      6  C   UNL     1       1.139  -0.030   0.000  0.00  0.00    +0.000 A 
ATOM      7  C   UNL     1       1.923  -0.285   0.000  0.00  0.00    +0.000 A 
ATOM      8  C   UNL     1       1.923  -1.110   0.000  0.00  0.00    +0.000 A 
ATOM      9  C   UNL     1       3.352  -0.285   0.000  0.00  0.00    +0.000 A 
ATOM     10  C   UNL     1       3.352  -1.110   0.000  0.00  0.00    +0.000 A 
ATOM     11  N   UNL     1       1.139  -1.365   0.000  0.00  0.00    +0.000 NA
BRANCH  10  13
ATOM     12  C   UNL     1       4.781  -1.110   0.000  0.00  0.00    +0.000 C 
ATOM     13  O   UNL     1       4.067  -1.523   0.000  0.00  0.00    +0.000 OA
ENDBRANCH  10  13
BRANCH   9  15
ATOM     14  C   UNL     1       4.781  -0.285   0.000  0.00  0.00    +0.000 C 
ATOM     15  O   UNL     1       4.067   0.127   0.000  0.00  0.00    +0.000 OA
ENDBRANCH   9  15
ENDBRANCH   1   6
BRANCH   1  16
ATOM     16  C   UNL     1       1.436   1.367   0.000  0.00  0.00    +0.000 C 
BRANCH  16  21
ATOM     17  C   UNL     1       1.733   2.765   0.000  0.00  0.00    +0.000 C 
ATOM     18  C   UNL     1       0.374   2.323   0.000  0.00  0.00    +0.000 C 
ATOM     19  C   UNL     1       1.478   3.550   0.000  0.00  0.00    +0.000 C 
ATOM     20  C   UNL     1       0.119   3.108   0.000  0.00  0.00    +0.000 C 
ATOM     21  N   UNL     1       1.181   2.152   0.000  0.00  0.00    +0.000 NA
ATOM     22  N   UNL     1       0.671   3.721   0.000  0.00  0.00    +0.000 N 
BRANCH  22  28
ATOM     23  C   UNL     1      -0.094   6.075   0.000  0.00  0.00    +0.000 A 
ATOM     24  C   UNL     1      -0.646   5.462   0.000  0.00  0.00    +0.000 A 
ATOM     25  C   UNL     1       0.713   5.903   0.000  0.00  0.00    +0.000 A 
ATOM     26  C   UNL     1      -0.391   4.677   0.000  0.00  0.00    +0.000 A 
ATOM     27  C   UNL     1       0.968   5.119   0.000  0.00  0.00    +0.000 A 
ATOM     28  C   UNL     1       0.416   4.506   0.000  0.00  0.00    +0.000 A 
ENDBRANCH  22  28
ENDBRANCH  16  21
ENDBRANCH   1  16
TORSDOF 6
