REMARK  Name = 
REMARK  9 active torsions:
REMARK  status: ('A' for Active; 'I' for Inactive)
REMARK    1  A    between atoms: P_1  and  C_9
REMARK    2  A    between atoms: P_1  and  C_10
REMARK    3  A    between atoms: N_6  and  C_19
REMARK    4  A    between atoms: C_9  and  C_11
REMARK    5  A    between atoms: C_10  and  C_12
REMARK    6  A    between atoms: C_11  and  C_14
REMARK    7  A    between atoms: C_11  and  C_15
REMARK    8  A    between atoms: C_12  and  C_13
REMARK    9  A    between atoms: C_13  and  C_16
REMARK                            x       y       z     vdW  Elec       q    Type
REMARK                         _______ _______ _______ _____ _____    ______ ____
ROOT
ATOM      1  C   UNL     1      -0.714  -0.619   0.000  0.00  0.00    +0.000 C 
ENDROOT
BRANCH   1   2
ATOM      2  C   UNL     1      -0.714  -1.444   0.000  0.00  0.00    +0.000 A 
ATOM      3  C   UNL     1      -1.429  -1.856   0.000  0.00  0.00    +0.000 A 
ATOM      4  C   UNL     1       0.000  -1.856   0.000  0.00  0.00    +0.000 A 
ATOM      5  C   UNL     1      -1.429  -2.681   0.000  0.00  0.00    +0.000 A 
ATOM      6  C   UNL     1       0.000  -2.681   0.000  0.00  0.00    +0.000 A 
ATOM      7  C   UNL     1      -0.714  -3.094   0.000  0.00  0.00    +0.000 A 
BRANCH   5   8
ATOM      8  N   UNL     1      -2.143  -3.094   0.000  0.00  0.00    +0.000 NA
ATOM      9  N   UNL     1      -2.858  -4.331   0.000  0.00  0.00    +0.000 NA
ATOM     10  N   UNL     1      -1.429  -4.331   0.000  0.00  0.00    +0.000 NA
ATOM     11  C   UNL     1      -2.143  -3.919   0.000  0.00  0.00    +0.000 C 
ENDBRANCH   5   8
ENDBRANCH   1   2
BRANCH   1  14
ATOM     12  O   UNL     1      -1.429   0.619   0.000  0.00  0.00    +0.000 OA
ATOM     13  O   UNL     1      -2.143  -0.619   0.000  0.00  0.00    +0.000 OA
ATOM     14  C   UNL     1      -1.429  -0.206   0.000  0.00  0.00    +0.000 C 
ENDBRANCH   1  14
BRANCH   1  15
ATOM     15  C   UNL     1       0.000  -0.206   0.000  0.00  0.00    +0.000 C 
BRANCH  15  16
ATOM     16  P   UNL     1       0.000   0.619   0.000  0.00  0.00    +0.000 P 
ATOM     17  O   UNL     1       0.825   0.619   0.000  0.00  0.00    +0.000 OA
ATOM     18  O   UNL     1      -0.825   0.619   0.000  0.00  0.00    +0.000 OA
BRANCH  16  19
ATOM     19  C   UNL     1       0.000   1.444   0.000  0.00  0.00    +0.000 C 
BRANCH  19  20
ATOM     20  C   UNL     1       0.714   1.856   0.000  0.00  0.00    +0.000 C 
BRANCH  20  21
ATOM     21  C   UNL     1       0.714   2.681   0.000  0.00  0.00    +0.000 C 
BRANCH  21  22
ATOM     22  C   UNL     1       1.429   3.094   0.000  0.00  0.00    +0.000 A 
ATOM     23  C   UNL     1       2.143   2.681   0.000  0.00  0.00    +0.000 A 
ATOM     24  C   UNL     1       1.429   3.919   0.000  0.00  0.00    +0.000 A 
ATOM     25  C   UNL     1       2.858   3.094   0.000  0.00  0.00    +0.000 A 
ATOM     26  C   UNL     1       2.143   4.331   0.000  0.00  0.00    +0.000 A 
ATOM     27  C   UNL     1       2.858   3.919   0.000  0.00  0.00    +0.000 A 
ENDBRANCH  21  22
ENDBRANCH  20  21
ENDBRANCH  19  20
ENDBRANCH  16  19
ENDBRANCH  15  16
ENDBRANCH   1  15
TORSDOF 9
