REMARK  Name = 
REMARK  4 active torsions:
REMARK  status: ('A' for Active; 'I' for Inactive)
REMARK    1  A    between atoms: C_12  and  C_22
REMARK    2  A    between atoms: C_21  and  C_22
REMARK    3  A    between atoms: C_21  and  O_30
REMARK    4  A    between atoms: O_30  and  P_31
REMARK                            x       y       z     vdW  Elec       q    Type
REMARK                         _______ _______ _______ _____ _____    ______ ____
ROOT
ATOM      1  C   UNL     1      -2.516  -0.741   0.000  0.00  0.00    +0.000 C 
ATOM      2  C   UNL     1      -3.238  -1.138   0.000  0.00  0.00    +0.000 C 
ATOM      3  C   UNL     1      -3.238  -1.977   0.000  0.00  0.00    +0.000 C 
ATOM      4  C   UNL     1      -2.516  -2.389   0.000  0.00  0.00    +0.000 C 
ATOM      5  C   UNL     1      -1.816  -1.977   0.000  0.00  0.00    +0.000 C 
ATOM      6  C   UNL     1      -1.101  -2.389   0.000  0.00  0.00    +0.000 C 
ATOM      7  C   UNL     1      -1.816  -1.138   0.000  0.00  0.00    +0.000 C 
ATOM      8  C   UNL     1      -0.370   0.487   0.000  0.00  0.00    +0.000 C 
ATOM      9  C   UNL     1       0.329   0.067   0.000  0.00  0.00    +0.000 C 
ATOM     10  C   UNL     1       0.329  -0.741   0.000  0.00  0.00    +0.000 C 
ATOM     11  C   UNL     1       1.114  -0.998   0.000  0.00  0.00    +0.000 C 
ATOM     12  C   UNL     1       1.114   0.323   0.000  0.00  0.00    +0.000 C 
ATOM     13  C   UNL     1       0.329   0.914   0.000  0.00  0.00    +0.000 C 
ATOM     14  C   UNL     1      -1.816  -0.330   0.000  0.00  0.00    +0.000 C 
ATOM     15  O   UNL     1      -3.972  -2.408   0.000  0.00  0.00    +0.000 OA
ATOM     16  C   UNL     1      -1.101  -0.741   0.000  0.00  0.00    +0.000 C 
ATOM     17  C   UNL     1      -0.370  -1.138   0.000  0.00  0.00    +0.000 C 
ATOM     18  C   UNL     1      -0.370  -1.977   0.000  0.00  0.00    +0.000 C 
ATOM     19  F   UNL     1      -1.101  -1.566   0.000  0.00  0.00    +0.000 F 
ATOM     20  C   UNL     1      -1.101   0.067   0.000  0.00  0.00    +0.000 C 
ATOM     21  O   UNL     1      -1.816   0.479   0.000  0.00  0.00    +0.000 OA
ATOM     22  C   UNL     1       1.580  -0.345   0.000  0.00  0.00    +0.000 C 
ATOM     23  C   UNL     1       2.405  -0.345   0.000  0.00  0.00    +0.000 C 
ATOM     24  O   UNL     1       1.834   0.726   0.000  0.00  0.00    +0.000 OA
ENDROOT
BRANCH  12  25
ATOM     25  C   UNL     1       1.114   1.170   0.000  0.00  0.00    +0.000 C 
ATOM     26  O   UNL     1       0.399   1.583   0.000  0.00  0.00    +0.000 OA
BRANCH  25  27
ATOM     27  C   UNL     1       1.828   1.583   0.000  0.00  0.00    +0.000 C 
BRANCH  27  28
ATOM     28  O   UNL     1       2.543   1.170   0.000  0.00  0.00    +0.000 OA
BRANCH  28  29
ATOM     29  P   UNL     1       3.257   1.583   0.000  0.00  0.00    +0.000 P 
ATOM     30  O   UNL     1       3.972   1.170   0.000  0.00  0.00    +0.000 OA
ATOM     31  O   UNL     1       3.257   2.408   0.000  0.00  0.00    +0.000 OA
ATOM     32  O   UNL     1       3.257   0.758   0.000  0.00  0.00    +0.000 OA
ENDBRANCH  28  29
ENDBRANCH  27  28
ENDBRANCH  25  27
ENDBRANCH  12  25
TORSDOF 4
