REMARK  Name = 
REMARK  5 active torsions:
REMARK  status: ('A' for Active; 'I' for Inactive)
REMARK    1  A    between atoms: C_2  and  N_22
REMARK    2  A    between atoms: C_5  and  O_8
REMARK    3  A    between atoms: O_8  and  C_9
REMARK    4  A    between atoms: C_16  and  O_19
REMARK    5  A    between atoms: C_17  and  O_20
REMARK                            x       y       z     vdW  Elec       q    Type
REMARK                         _______ _______ _______ _____ _____    ______ ____
ROOT
ATOM      1  C   UNL     1      -1.455  -0.687   0.000  0.00  0.00    +0.000 A 
ATOM      2  C   UNL     1      -1.453   0.138   0.000  0.00  0.00    +0.000 A 
ATOM      3  C   UNL     1      -0.738   0.548   0.000  0.00  0.00    +0.000 A 
ATOM      4  C   UNL     1      -0.024   0.134   0.000  0.00  0.00    +0.000 A 
ATOM      5  C   UNL     1      -0.026  -0.691   0.000  0.00  0.00    +0.000 A 
ATOM      6  C   UNL     1      -0.742  -1.102   0.000  0.00  0.00    +0.000 A 
ATOM      7 CL   UNL     1      -2.027  -1.016   0.000  0.00  0.00    +0.000 Cl
ENDROOT
BRANCH   2   8
ATOM      8  N   UNL     1      -2.166   0.554   0.000  0.00  0.00    +0.000 NA
ATOM      9  C   UNL     1      -2.163   1.379   0.000  0.00  0.00    +0.000 C 
ATOM     10  N   UNL     1      -2.876   1.795   0.000  0.00  0.00    +0.000 NA
ATOM     11  O   UNL     1      -1.590   1.707   0.000  0.00  0.00    +0.000 OA
ATOM     12  C   UNL     1      -2.873   2.621   0.000  0.00  0.00    +0.000 A 
ATOM     13  N   UNL     1      -3.537   3.098   0.000  0.00  0.00    +0.000 NA
ATOM     14  O   UNL     1      -3.278   3.881   0.000  0.00  0.00    +0.000 OA
ATOM     15  C   UNL     1      -2.453   3.876   0.000  0.00  0.00    +0.000 A 
ATOM     16  C   UNL     1      -2.203   3.090   0.000  0.00  0.00    +0.000 A 
ATOM     17  C   UNL     1      -2.062   4.408   0.000  0.00  0.00    +0.000 C 
ENDBRANCH   2   8
BRANCH   5  18
ATOM     18  O   UNL     1       0.687  -1.107   0.000  0.00  0.00    +0.000 OA
BRANCH  18  19
ATOM     19  C   UNL     1       0.684  -1.932   0.000  0.00  0.00    +0.000 A 
ATOM     20  C   UNL     1      -0.039  -2.344   0.000  0.00  0.00    +0.000 A 
ATOM     21  C   UNL     1      -0.039  -3.168   0.000  0.00  0.00    +0.000 A 
ATOM     22  N   UNL     1       0.684  -3.580   0.000  0.00  0.00    +0.000 NA
ATOM     23  C   UNL     1       1.397  -2.344   0.000  0.00  0.00    +0.000 A 
ATOM     24  C   UNL     1       1.397  -3.168   0.000  0.00  0.00    +0.000 A 
ATOM     25  C   UNL     1       2.110  -3.580   0.000  0.00  0.00    +0.000 A 
ATOM     26  C   UNL     1       2.823  -3.168   0.000  0.00  0.00    +0.000 A 
ATOM     27  C   UNL     1       2.823  -2.344   0.000  0.00  0.00    +0.000 A 
ATOM     28  C   UNL     1       2.110  -1.932   0.000  0.00  0.00    +0.000 A 
BRANCH  26  29
ATOM     29  O   UNL     1       3.537  -3.582   0.000  0.00  0.00    +0.000 OA
ATOM     30  C   UNL     1       3.536  -4.408   0.000  0.00  0.00    +0.000 C 
ENDBRANCH  26  29
BRANCH  27  31
ATOM     31  O   UNL     1       3.537  -1.930   0.000  0.00  0.00    +0.000 OA
ATOM     32  C   UNL     1       3.536  -1.104   0.000  0.00  0.00    +0.000 C 
ENDBRANCH  27  31
ENDBRANCH  18  19
ENDBRANCH   5  18
TORSDOF 5
