REMARK  Name = 
REMARK  4 active torsions:
REMARK  status: ('A' for Active; 'I' for Inactive)
REMARK    1  A    between atoms: C_1  and  O_8
REMARK    2  A    between atoms: N_4  and  C_9
REMARK    3  A    between atoms: C_7  and  C_20
REMARK    4  A    between atoms: O_8  and  C_16
REMARK                            x       y       z     vdW  Elec       q    Type
REMARK                         _______ _______ _______ _____ _____    ______ ____
ROOT
ATOM      1  C   UNL     1      -0.750   0.828   0.000  0.00  0.00    +0.000 C 
ATOM      2  C   UNL     1      -0.750   0.003   0.000  0.00  0.00    +0.000 C 
ATOM      3  C   UNL     1      -1.475  -0.409   0.000  0.00  0.00    +0.000 C 
ATOM      4  O   UNL     1      -1.475   1.241   0.000  0.00  0.00    +0.000 OA
ATOM      5  C   UNL     1      -2.191   0.003   0.000  0.00  0.00    +0.000 C 
ATOM      6  C   UNL     1      -2.191   0.828   0.000  0.00  0.00    +0.000 C 
ATOM      7  O   UNL     1      -0.037  -0.409   0.000  0.00  0.00    +0.000 OA
ATOM      8  O   UNL     1      -1.475  -1.242   0.000  0.00  0.00    +0.000 OA
ATOM      9  O   UNL     1      -2.904  -0.409   0.000  0.00  0.00    +0.000 OA
ENDROOT
BRANCH   6  10
ATOM     10  C   UNL     1      -2.904   1.241   0.000  0.00  0.00    +0.000 C 
ATOM     11  O   UNL     1      -3.537   0.716   0.000  0.00  0.00    +0.000 OA
ENDBRANCH   6  10
BRANCH   1  12
ATOM     12  O   UNL     1      -0.037   1.241   0.000  0.00  0.00    +0.000 OA
BRANCH  12  16
ATOM     13  C   UNL     1       2.109   0.008   0.000  0.00  0.00    +0.000 A 
ATOM     14  C   UNL     1       1.387  -0.404   0.000  0.00  0.00    +0.000 A 
ATOM     15  C   UNL     1       2.106   0.832   0.000  0.00  0.00    +0.000 A 
ATOM     16  C   UNL     1       0.678   0.830   0.000  0.00  0.00    +0.000 A 
ATOM     17  C   UNL     1       0.681   0.007   0.000  0.00  0.00    +0.000 A 
ATOM     18  C   UNL     1       1.391   1.242   0.000  0.00  0.00    +0.000 A 
BRANCH  13  19
ATOM     19  N   UNL     1       2.825  -0.402   0.000  0.00  0.00    +0.000 N 
ATOM     20  O   UNL     1       3.537   0.010   0.000  0.00  0.00    +0.000 OA
ATOM     21  O   UNL     1       2.828  -1.226   0.000  0.00  0.00    +0.000 OA
ENDBRANCH  13  19
ENDBRANCH  12  16
ENDBRANCH   1  12
TORSDOF 4
