REMARK  Name = 
REMARK  12 active torsions:
REMARK  status: ('A' for Active; 'I' for Inactive)
REMARK    1  A    between atoms: C_1  and  O_36
REMARK    2  A    between atoms: N_2  and  C_3
REMARK    3  A    between atoms: C_3  and  C_4
REMARK    4  A    between atoms: C_4  and  O_5
REMARK    5  A    between atoms: O_5  and  C_6
REMARK    6  A    between atoms: C_6  and  C_7
REMARK    7  A    between atoms: C_6  and  C_28
REMARK    8  A    between atoms: N_15  and  C_16
REMARK    9  A    between atoms: C_16  and  C_17
REMARK   10  A    between atoms: C_17  and  C_18
REMARK   11  A    between atoms: C_17  and  N_25
REMARK   12  A    between atoms: C_18  and  C_19
REMARK                            x       y       z     vdW  Elec       q    Type
REMARK                         _______ _______ _______ _____ _____    ______ ____
ROOT
ATOM      1  C   UNL     1      -1.785   0.000   0.000  0.00  0.00    +0.000 C 
ATOM      2  C   UNL     1      -1.070  -0.412   0.000  0.00  0.00    +0.000 C 
ATOM      3  N   UNL     1      -1.070  -1.236   0.000  0.00  0.00    +0.000 N 
ATOM      4  C   UNL     1      -1.785  -1.647   0.000  0.00  0.00    +0.000 C 
ATOM      5  C   UNL     1      -2.500  -1.236   0.000  0.00  0.00    +0.000 C 
ATOM      6  C   UNL     1      -2.500  -0.412   0.000  0.00  0.00    +0.000 C 
ATOM      7  C   UNL     1      -0.355  -1.647   0.000  0.00  0.00    +0.000 C 
ATOM      8  O   UNL     1      -0.355  -2.476   0.000  0.00  0.00    +0.000 OA
ATOM      9  N   UNL     1       0.360  -1.236   0.000  0.00  0.00    +0.000 NA
ENDROOT
BRANCH   1  10
ATOM     10  C   UNL     1      -1.785   0.824   0.000  0.00  0.00    +0.000 C 
BRANCH  10  11
ATOM     11  C   UNL     1      -2.500   1.236   0.000  0.00  0.00    +0.000 A 
ATOM     12  C   UNL     1      -3.215   0.824   0.000  0.00  0.00    +0.000 A 
ATOM     13  C   UNL     1      -3.929   1.236   0.000  0.00  0.00    +0.000 A 
ATOM     14  C   UNL     1      -3.929   2.064   0.000  0.00  0.00    +0.000 A 
ATOM     15  C   UNL     1      -3.215   2.476   0.000  0.00  0.00    +0.000 A 
ATOM     16  C   UNL     1      -2.500   2.064   0.000  0.00  0.00    +0.000 A 
ATOM     17 CL   UNL     1      -4.644   0.824   0.000  0.00  0.00    +0.000 Cl
ENDBRANCH  10  11
BRANCH  10  18
ATOM     18  O   UNL     1      -1.070   1.236   0.000  0.00  0.00    +0.000 OA
BRANCH  18  19
ATOM     19  C   UNL     1      -0.355   0.824   0.000  0.00  0.00    +0.000 C 
BRANCH  19  20
ATOM     20  C   UNL     1       0.360   1.236   0.000  0.00  0.00    +0.000 C 
BRANCH  20  22
ATOM     21  C   UNL     1       1.785   1.236   0.000  0.00  0.00    +0.000 C 
ATOM     22  N   UNL     1       1.070   0.824   0.000  0.00  0.00    +0.000 NA
ATOM     23  O   UNL     1       1.785   2.064   0.000  0.00  0.00    +0.000 OA
BRANCH  21  24
ATOM     24  O   UNL     1       2.500   0.824   0.000  0.00  0.00    +0.000 OA
ATOM     25  C   UNL     1       3.215   1.236   0.000  0.00  0.00    +0.000 C 
ENDBRANCH  21  24
ENDBRANCH  20  22
ENDBRANCH  19  20
ENDBRANCH  18  19
ENDBRANCH  10  18
ENDBRANCH   1  10
BRANCH   9  26
ATOM     26  C   UNL     1       1.070  -1.647   0.000  0.00  0.00    +0.000 C 
BRANCH  26  27
ATOM     27  C   UNL     1       1.785  -1.236   0.000  0.00  0.00    +0.000 C 
BRANCH  27  28
ATOM     28  N   UNL     1       1.785  -0.412   0.000  0.00  0.00    +0.000 NA
ATOM     29  C   UNL     1       2.500   0.000   0.000  0.00  0.00    +0.000 C 
ENDBRANCH  27  28
BRANCH  27  30
ATOM     30  C   UNL     1       2.500  -1.647   0.000  0.00  0.00    +0.000 C 
BRANCH  30  31
ATOM     31  C   UNL     1       3.215  -1.236   0.000  0.00  0.00    +0.000 C 
ATOM     32  C   UNL     1       3.215  -0.412   0.000  0.00  0.00    +0.000 C 
ATOM     33  O   UNL     1       3.929   0.000   0.000  0.00  0.00    +0.000 OA
ATOM     34  C   UNL     1       4.644  -0.412   0.000  0.00  0.00    +0.000 C 
ATOM     35  C   UNL     1       4.644  -1.236   0.000  0.00  0.00    +0.000 C 
ATOM     36  C   UNL     1       3.929  -1.647   0.000  0.00  0.00    +0.000 C 
ENDBRANCH  30  31
ENDBRANCH  27  30
ENDBRANCH  26  27
ENDBRANCH   9  26
TORSDOF 12
