REMARK  Name = 
REMARK  3 active torsions:
REMARK  status: ('A' for Active; 'I' for Inactive)
REMARK    1  A    between atoms: C_2  and  C_25
REMARK    2  A    between atoms: C_4  and  C_12
REMARK    3  A    between atoms: C_11  and  C_21
REMARK                            x       y       z     vdW  Elec       q    Type
REMARK                         _______ _______ _______ _____ _____    ______ ____
ROOT
ATOM      1  N   UNL     1      -2.450  -0.450   0.000  0.00  0.00    +0.000 NA
ATOM      2  N   UNL     1      -2.045   0.259   0.000  0.00  0.00    +0.000 NA
ATOM      3  C   UNL     1      -1.120  -0.709   0.000  0.00  0.00    +0.000 A 
ATOM      4  C   UNL     1      -1.230   0.108   0.000  0.00  0.00    +0.000 A 
ATOM      5  C   UNL     1      -1.862  -1.078   0.000  0.00  0.00    +0.000 A 
ATOM      6  C   UNL     1      -2.005  -1.869   0.000  0.00  0.00    +0.000 C 
ENDROOT
BRANCH   3  14
ATOM      7  O   UNL     1       1.709  -0.679   0.000  0.00  0.00    +0.000 OA
ATOM      8  C   UNL     1       2.442  -1.091   0.000  0.00  0.00    +0.000 C 
ATOM      9  C   UNL     1       2.450  -1.903   0.000  0.00  0.00    +0.000 C 
ATOM     10  O   UNL     1       1.740  -2.334   0.000  0.00  0.00    +0.000 OA
ATOM     11  C   UNL     1       1.007  -1.922   0.000  0.00  0.00    +0.000 A 
ATOM     12  C   UNL     1       1.007  -1.087   0.000  0.00  0.00    +0.000 A 
ATOM     13  C   UNL     1       0.291  -0.706   0.000  0.00  0.00    +0.000 A 
ATOM     14  C   UNL     1      -0.411  -1.114   0.000  0.00  0.00    +0.000 A 
ATOM     15  C   UNL     1      -0.411  -1.949   0.000  0.00  0.00    +0.000 A 
ATOM     16  C   UNL     1       0.322  -2.361   0.000  0.00  0.00    +0.000 A 
ENDBRANCH   3  14
BRANCH   4  20
ATOM     17  C   UNL     1       0.575   1.790   0.000  0.00  0.00    +0.000 A 
ATOM     18  C   UNL     1       0.763   0.974   0.000  0.00  0.00    +0.000 A 
ATOM     19  C   UNL     1       0.151   0.434   0.000  0.00  0.00    +0.000 A 
ATOM     20  C   UNL     1      -0.634   0.679   0.000  0.00  0.00    +0.000 A 
ATOM     21  C   UNL     1      -0.830   1.472   0.000  0.00  0.00    +0.000 A 
ATOM     22  C   UNL     1      -0.210   2.035   0.000  0.00  0.00    +0.000 A 
ATOM     23  O   UNL     1       1.171   2.361   0.000  0.00  0.00    +0.000 OA
ATOM     24  O   UNL     1      -1.615   1.717   0.000  0.00  0.00    +0.000 OA
BRANCH  18  25
ATOM     25  C   UNL     1       1.572   0.721   0.000  0.00  0.00    +0.000 C 
ATOM     26  C   UNL     1       2.168   1.292   0.000  0.00  0.00    +0.000 C 
ENDBRANCH  18  25
ENDBRANCH   4  20
TORSDOF 3
