REMARK  Name = 
REMARK  4 active torsions:
REMARK  status: ('A' for Active; 'I' for Inactive)
REMARK    1  A    between atoms: O_4  and  C_23
REMARK    2  A    between atoms: C_8  and  C_13
REMARK    3  A    between atoms: C_9  and  C_12
REMARK    4  A    between atoms: C_13  and  C_15
REMARK                            x       y       z     vdW  Elec       q    Type
REMARK                         _______ _______ _______ _____ _____    ______ ____
ROOT
ATOM      1  N   UNL     1      -0.155  -1.930   0.000  0.00  0.00    +0.000 NA
ATOM      2  N   UNL     1      -1.650  -2.091   0.000  0.00  0.00    +0.000 NA
ATOM      3  C   UNL     1      -0.936  -0.854   0.000  0.00  0.00    +0.000 A 
ATOM      4  C   UNL     1      -0.155  -0.603   0.000  0.00  0.00    +0.000 A 
ATOM      5  C   UNL     1      -1.650  -0.441   0.000  0.00  0.00    +0.000 A 
ATOM      6  C   UNL     1      -0.936  -1.679   0.000  0.00  0.00    +0.000 A 
ATOM      7  C   UNL     1       0.326  -1.266   0.000  0.00  0.00    +0.000 A 
ATOM      8  C   UNL     1      -2.365  -0.854   0.000  0.00  0.00    +0.000 A 
ATOM      9  C   UNL     1      -2.365  -1.679   0.000  0.00  0.00    +0.000 A 
ENDROOT
BRANCH   5  12
ATOM     10  F   UNL     1      -1.650   2.417   0.000  0.00  0.00    +0.000 F 
ATOM     11  F   UNL     1      -4.125   0.988   0.000  0.00  0.00    +0.000 F 
ATOM     12  C   UNL     1      -2.063   0.273   0.000  0.00  0.00    +0.000 A 
ATOM     13  C   UNL     1      -2.888   0.273   0.000  0.00  0.00    +0.000 A 
ATOM     14  C   UNL     1      -1.650   0.988   0.000  0.00  0.00    +0.000 A 
ATOM     15  C   UNL     1      -2.063   1.702   0.000  0.00  0.00    +0.000 A 
ATOM     16  C   UNL     1      -3.300   0.988   0.000  0.00  0.00    +0.000 A 
ATOM     17  C   UNL     1      -2.888   1.702   0.000  0.00  0.00    +0.000 A 
ENDBRANCH   5  12
BRANCH   4  19
ATOM     18  O   UNL     1      -0.136   0.989   0.000  0.00  0.00    +0.000 OA
ATOM     19  C   UNL     1       0.101   0.182   0.000  0.00  0.00    +0.000 C 
BRANCH  19  20
ATOM     20  C   UNL     1       0.908   0.352   0.000  0.00  0.00    +0.000 A 
ATOM     21  C   UNL     1       1.459  -0.262   0.000  0.00  0.00    +0.000 A 
ATOM     22  C   UNL     1       1.165   1.136   0.000  0.00  0.00    +0.000 A 
ATOM     23  C   UNL     1       2.267  -0.092   0.000  0.00  0.00    +0.000 A 
ATOM     24  C   UNL     1       1.972   1.306   0.000  0.00  0.00    +0.000 A 
ATOM     25  C   UNL     1       2.523   0.692   0.000  0.00  0.00    +0.000 A 
BRANCH  23  26
ATOM     26  O   UNL     1       2.818  -0.706   0.000  0.00  0.00    +0.000 OA
ATOM     27  C   UNL     1       3.625  -0.536   0.000  0.00  0.00    +0.000 C 
ENDBRANCH  23  26
ENDBRANCH  19  20
ENDBRANCH   4  19
TORSDOF 4
