REMARK  Name = 
REMARK  2 active torsions:
REMARK  status: ('A' for Active; 'I' for Inactive)
REMARK    1  A    between atoms: C_17  and  C_26
REMARK    2  A    between atoms: C_26  and  C_27
REMARK                            x       y       z     vdW  Elec       q    Type
REMARK                         _______ _______ _______ _____ _____    ______ ____
ROOT
ATOM      1  C   UNL     1      -2.454  -1.155   0.000  0.00  0.00    +0.000 C 
ATOM      2  C   UNL     1      -2.454  -1.980   0.000  0.00  0.00    +0.000 C 
ATOM      3  C   UNL     1      -1.753  -2.352   0.000  0.00  0.00    +0.000 C 
ATOM      4  C   UNL     1      -1.052  -1.980   0.000  0.00  0.00    +0.000 C 
ATOM      5  C   UNL     1      -1.052  -1.155   0.000  0.00  0.00    +0.000 C 
ATOM      6  C   UNL     1      -1.753  -0.743   0.000  0.00  0.00    +0.000 C 
ATOM      7  C   UNL     1      -0.351  -2.352   0.000  0.00  0.00    +0.000 C 
ATOM      8  C   UNL     1       0.392  -1.980   0.000  0.00  0.00    +0.000 C 
ATOM      9  C   UNL     1       0.392  -1.155   0.000  0.00  0.00    +0.000 C 
ATOM     10  C   UNL     1      -0.351  -0.743   0.000  0.00  0.00    +0.000 C 
ATOM     11  C   UNL     1       1.093  -0.743   0.000  0.00  0.00    +0.000 C 
ATOM     12  C   UNL     1       1.093   0.082   0.000  0.00  0.00    +0.000 C 
ATOM     13  C   UNL     1       0.392   0.495   0.000  0.00  0.00    +0.000 C 
ATOM     14  C   UNL     1      -0.351   0.082   0.000  0.00  0.00    +0.000 C 
ATOM     15  C   UNL     1       1.836  -0.990   0.000  0.00  0.00    +0.000 C 
ATOM     16  C   UNL     1       2.331  -0.330   0.000  0.00  0.00    +0.000 C 
ATOM     17  C   UNL     1       1.836   0.330   0.000  0.00  0.00    +0.000 C 
ATOM     18  O   UNL     1      -3.156  -2.352   0.000  0.00  0.00    +0.000 OA
ATOM     19  C   UNL     1      -1.052  -0.330   0.000  0.00  0.00    +0.000 C 
ATOM     20  O   UNL     1      -1.052   0.495   0.000  0.00  0.00    +0.000 OA
ATOM     21  C   UNL     1       1.093   0.908   0.000  0.00  0.00    +0.000 C 
ATOM     22  C   UNL     1       3.156  -0.330   0.000  0.00  0.00    +0.000 C 
ATOM     23  O   UNL     1       2.550   0.743   0.000  0.00  0.00    +0.000 OA
ATOM     24 CL   UNL     1       1.106  -2.393   0.000  0.00  0.00    +0.000 Cl
ENDROOT
BRANCH  17  25
ATOM     25  C   UNL     1       1.836   1.155   0.000  0.00  0.00    +0.000 C 
ATOM     26  O   UNL     1       2.550   1.568   0.000  0.00  0.00    +0.000 OA
BRANCH  25  27
ATOM     27  C   UNL     1       1.121   1.568   0.000  0.00  0.00    +0.000 C 
ATOM     28  O   UNL     1       1.121   2.393   0.000  0.00  0.00    +0.000 OA
ENDBRANCH  25  27
ENDBRANCH  17  25
TORSDOF 2
