REMARK  Name = 
REMARK  13 active torsions:
REMARK  status: ('A' for Active; 'I' for Inactive)
REMARK    1  A    between atoms: C_1  and  CA_3
REMARK    2  A    between atoms: CA_3  and  N_5
REMARK    3  A    between atoms: C_6  and  C_7
REMARK    4  A    between atoms: C_7  and  N_9
REMARK    5  A    between atoms: C_7  and  C_11
REMARK    6  A    between atoms: S_10  and  C_11
REMARK    7  A    between atoms: S_10  and  C_13
REMARK    8  A    between atoms: N_18  and  C_19
REMARK    9  A    between atoms: N_21  and  C_22
REMARK   10  A    between atoms: C_25  and  C_28
REMARK   11  A    between atoms: C_26  and  C_31
REMARK   12  A    between atoms: C_28  and  C_30
REMARK   13  A    between atoms: C_30  and  C_31
REMARK                            x       y       z     vdW  Elec       q    Type
REMARK                         _______ _______ _______ _____ _____    ______ ____
ROOT
ATOM      1  C   UNK A   1       0.359   0.430   0.000  0.00  0.00    +0.000 C 
ENDROOT
BRANCH   1   3
ATOM      2  N   GLY A   2       1.076   1.650   0.000  0.00  0.00    +0.000 NA
ATOM      3  C   UNK A   1       0.359   1.256   0.000  0.00  0.00    +0.000 C 
ATOM      4  O   UNK A   1      -0.359   1.650   0.000  0.00  0.00    +0.000 OA
BRANCH   2   5
ATOM      5  CA  GLY A   2       1.794   1.256   0.000  0.00  0.00    +0.000 C 
BRANCH   5   6
ATOM      6  C   GLY A   2       2.511   1.650   0.000  0.00  0.00    +0.000 C 
ATOM      7  O   GLY A   2       2.547   2.511   0.000  0.00  0.00    +0.000 OA
ATOM      8  OXT GLY A   2       3.228   1.256   0.000  0.00  0.00    +0.000 OA
ENDBRANCH   5   6
ENDBRANCH   2   5
ENDBRANCH   1   3
BRANCH   1   9
ATOM      9  N   UNK A   1       1.112   0.000   0.000  0.00  0.00    +0.000 NA
ATOM     10  C   UNK A   1       1.794   0.430   0.000  0.00  0.00    +0.000 C 
ATOM     11  O   UNK A   1       2.080   1.030   0.000  0.00  0.00    +0.000 OA
BRANCH  10  12
ATOM     12  C   UNK A   1       2.511   0.036   0.000  0.00  0.00    +0.000 C 
BRANCH  12  13
ATOM     13  C   UNK A   1       3.228   0.466   0.000  0.00  0.00    +0.000 C 
BRANCH  13  14
ATOM     14  C   UNK A   1       3.946   0.072   0.000  0.00  0.00    +0.000 C 
ATOM     15  N   UNK A   1       3.982  -0.753   0.000  0.00  0.00    +0.000 NA
BRANCH  14  16
ATOM     16  C   UNK A   1       4.663   0.502   0.000  0.00  0.00    +0.000 C 
ATOM     17  O   UNK A   1       5.381   0.108   0.000  0.00  0.00    +0.000 OA
ATOM     18  O   UNK A   1       4.663   1.327   0.000  0.00  0.00    +0.000 OA
ENDBRANCH  14  16
ENDBRANCH  13  14
ENDBRANCH  12  13
ENDBRANCH  10  12
ENDBRANCH   1   9
BRANCH   1  19
ATOM     19  C   UNK A   1      -0.323   0.000   0.000  0.00  0.00    +0.000 C 
BRANCH  19  20
ATOM     20  S   UNK A   1      -1.076   0.395   0.000  0.00  0.00    +0.000 S 
BRANCH  20  22
ATOM     21  N   UNK A   1      -2.511   0.359   0.000  0.00  0.00    +0.000 NA
ATOM     22  C   UNK A   1      -1.794  -0.036   0.000  0.00  0.00    +0.000 A 
ATOM     23  N   UNK A   1      -1.794  -0.861   0.000  0.00  0.00    +0.000 NA
ATOM     24  C   UNK A   1      -2.475  -1.291   0.000  0.00  0.00    +0.000 A 
ATOM     25  N   UNK A   1      -3.228  -0.897   0.000  0.00  0.00    +0.000 NA
ATOM     26  C   UNK A   1      -3.228  -0.072   0.000  0.00  0.00    +0.000 A 
ATOM     27  N   UNK A   1      -2.475  -2.116   0.000  0.00  0.00    +0.000 NA
ATOM     28  N   UNK A   1      -3.946   0.323   0.000  0.00  0.00    +0.000 NA
BRANCH  28  29
ATOM     29  C   UNK A   1      -4.628  -0.072   0.000  0.00  0.00    +0.000 C 
ATOM     30  C   UNK A   1      -4.628  -0.897   0.000  0.00  0.00    +0.000 C 
ATOM     31  C   UNK A   1      -5.381   0.323   0.000  0.00  0.00    +0.000 C 
ENDBRANCH  28  29
BRANCH  27  32
ATOM     32  C   UNK A   1      -1.722  -2.511   0.000  0.00  0.00    +0.000 C 
ATOM     33  C   UNK A   1      -1.040  -2.081   0.000  0.00  0.00    +0.000 C 
ENDBRANCH  27  32
ENDBRANCH  20  22
ENDBRANCH  19  20
ENDBRANCH   1  19
TORSDOF 13
