REMARK  Name = 
REMARK  12 active torsions:
REMARK  status: ('A' for Active; 'I' for Inactive)
REMARK    1  A    between atoms: C_1  and  C_2
REMARK    2  A    between atoms: C_2  and  C_3
REMARK    3  A    between atoms: C_3  and  C_4
REMARK    4  A    between atoms: C_4  and  C_5
REMARK    5  A    between atoms: C_6  and  C_7
REMARK    6  A    between atoms: C_7  and  C_8
REMARK    7  A    between atoms: C_9  and  S_15
REMARK    8  A    between atoms: S_15  and  C_16
REMARK    9  A    between atoms: C_16  and  C_17
REMARK   10  A    between atoms: C_17  and  C_18
REMARK   11  A    between atoms: C_18  and  O_19
REMARK   12  A    between atoms: O_19  and  C_20
REMARK                            x       y       z     vdW  Elec       q    Type
REMARK                         _______ _______ _______ _____ _____    ______ ____
ROOT
ATOM      1  C   UNL     1      -2.378  -1.567   0.000  0.00  0.00    +0.000 C 
ATOM      2  C   UNL     1      -1.625  -1.902   0.000  0.00  0.00    +0.000 C 
ATOM      3  C   UNL     1      -1.711  -2.723   0.000  0.00  0.00    +0.000 C 
ATOM      4  C   UNL     1      -2.518  -2.894   0.000  0.00  0.00    +0.000 C 
ATOM      5  C   UNL     1      -2.930  -2.180   0.000  0.00  0.00    +0.000 C 
ATOM      6  O   UNL     1      -3.751  -2.094   0.000  0.00  0.00    +0.000 OA
ATOM      7  O   UNL     1      -1.098  -3.275   0.000  0.00  0.00    +0.000 OA
ENDROOT
BRANCH   1   8
ATOM      8  C   UNL     1      -2.550  -0.760   0.000  0.00  0.00    +0.000 C 
BRANCH   8  10
ATOM      9  C   UNL     1      -3.506   0.302   0.000  0.00  0.00    +0.000 C 
ATOM     10  C   UNL     1      -3.335  -0.505   0.000  0.00  0.00    +0.000 C 
BRANCH   9  11
ATOM     11  C   UNL     1      -2.893   0.854   0.000  0.00  0.00    +0.000 C 
BRANCH  11  12
ATOM     12  C   UNL     1      -3.065   1.661   0.000  0.00  0.00    +0.000 C 
BRANCH  12  13
ATOM     13  C   UNL     1      -3.849   1.916   0.000  0.00  0.00    +0.000 C 
BRANCH  13  14
ATOM     14  C   UNL     1      -4.021   2.723   0.000  0.00  0.00    +0.000 C 
ATOM     15  O   UNL     1      -4.805   2.978   0.000  0.00  0.00    +0.000 OA
ATOM     16  O   UNL     1      -3.408   3.275   0.000  0.00  0.00    +0.000 OA
ENDBRANCH  13  14
ENDBRANCH  12  13
ENDBRANCH  11  12
ENDBRANCH   9  11
ENDBRANCH   8  10
ENDBRANCH   1   8
BRANCH   2  17
ATOM     17  S   UNL     1      -0.910  -1.490   0.000  0.00  0.00    +0.000 S 
BRANCH  17  18
ATOM     18  C   UNL     1      -0.196  -1.902   0.000  0.00  0.00    +0.000 C 
BRANCH  18  19
ATOM     19  C   UNL     1       0.518  -1.490   0.000  0.00  0.00    +0.000 C 
ATOM     20  O   UNL     1       0.518  -0.665   0.000  0.00  0.00    +0.000 OA
BRANCH  19  21
ATOM     21  C   UNL     1       1.233  -1.902   0.000  0.00  0.00    +0.000 C 
BRANCH  21  22
ATOM     22  O   UNL     1       1.948  -1.490   0.000  0.00  0.00    +0.000 OA
BRANCH  22  23
ATOM     23  C   UNL     1       2.662  -1.902   0.000  0.00  0.00    +0.000 A 
ATOM     24  C   UNL     1       3.376  -1.490   0.000  0.00  0.00    +0.000 A 
ATOM     25  C   UNL     1       4.091  -1.902   0.000  0.00  0.00    +0.000 A 
ATOM     26  C   UNL     1       4.091  -2.727   0.000  0.00  0.00    +0.000 A 
ATOM     27  C   UNL     1       3.376  -3.140   0.000  0.00  0.00    +0.000 A 
ATOM     28  C   UNL     1       2.662  -2.727   0.000  0.00  0.00    +0.000 A 
ATOM     29 CL   UNL     1       4.805  -1.490   0.000  0.00  0.00    +0.000 Cl
ENDBRANCH  22  23
ENDBRANCH  21  22
ENDBRANCH  19  21
ENDBRANCH  18  19
ENDBRANCH  17  18
ENDBRANCH   2  17
TORSDOF 12
