REMARK  Name = 
REMARK  5 active torsions:
REMARK  status: ('A' for Active; 'I' for Inactive)
REMARK    1  A    between atoms: C_12  and  C_15
REMARK    2  A    between atoms: C_12  and  N_22
REMARK    3  A    between atoms: C_13  and  C_20
REMARK    4  A    between atoms: C_13  and  O_25
REMARK    5  A    between atoms: C_17  and  O_25
REMARK                            x       y       z     vdW  Elec       q    Type
REMARK                         _______ _______ _______ _____ _____    ______ ____
ROOT
ATOM      1  C   UNL     1       6.137  -0.412   0.000  0.00  0.00    +0.000 C 
ATOM      2  C   UNL     1       5.422   0.825   0.000  0.00  0.00    +0.000 C 
ATOM      3  C   UNL     1       6.851   0.000   0.000  0.00  0.00    +0.000 C 
ATOM      4  C   UNL     1       6.137   1.238   0.000  0.00  0.00    +0.000 C 
ATOM      5  C   UNL     1       7.566   1.238   0.000  0.00  0.00    +0.000 C 
ATOM      6  N   UNL     1       5.422   0.000   0.000  0.00  0.00    +0.000 NA
ATOM      7  N   UNL     1       6.851   0.825   0.000  0.00  0.00    +0.000 N 
ATOM      8  O   UNL     1       7.566   2.062   0.000  0.00  0.00    +0.000 OA
ENDROOT
BRANCH   6   9
ATOM      9  C   UNL     1       4.708  -0.412   0.000  0.00  0.00    +0.000 C 
BRANCH   9  14
ATOM     10  C   UNL     1       3.993   0.825   0.000  0.00  0.00    +0.000 A 
ATOM     11  C   UNL     1       3.279   1.238   0.000  0.00  0.00    +0.000 A 
ATOM     12  C   UNL     1       3.279  -0.412   0.000  0.00  0.00    +0.000 A 
ATOM     13  C   UNL     1       1.295   0.412   0.000  0.00  0.00    +0.000 C 
ATOM     14  C   UNL     1       3.993   0.000   0.000  0.00  0.00    +0.000 A 
ATOM     15  C   UNL     1       2.564   0.825   0.000  0.00  0.00    +0.000 A 
ATOM     16  C   UNL     1       2.564   0.000   0.000  0.00  0.00    +0.000 A 
ATOM     17  O   UNL     1       1.780   1.080   0.000  0.00  0.00    +0.000 OA
ATOM     18  O   UNL     1       1.780  -0.255   0.000  0.00  0.00    +0.000 OA
ENDBRANCH   9  14
ENDBRANCH   6   9
BRANCH   5  19
ATOM     19  C   UNL     1       8.280   0.825   0.000  0.00  0.00    +0.000 C 
BRANCH  19  20
ATOM     20  O   UNL     1       8.995   1.238   0.000  0.00  0.00    +0.000 OA
BRANCH  20  26
ATOM     21  C   UNL     1      11.138   0.825   0.000  0.00  0.00    +0.000 A 
ATOM     22  C   UNL     1      10.424  -0.412   0.000  0.00  0.00    +0.000 A 
ATOM     23  C   UNL     1      10.424   1.238   0.000  0.00  0.00    +0.000 A 
ATOM     24  C   UNL     1       9.709   0.000   0.000  0.00  0.00    +0.000 A 
ATOM     25  C   UNL     1      11.138   0.000   0.000  0.00  0.00    +0.000 A 
ATOM     26  C   UNL     1       9.709   0.825   0.000  0.00  0.00    +0.000 A 
ATOM     27 CL   UNL     1      11.853  -0.412   0.000  0.00  0.00    +0.000 Cl
ENDBRANCH  20  26
ENDBRANCH  19  20
ENDBRANCH   5  19
TORSDOF 5
