REMARK  Name = 
REMARK  12 active torsions:
REMARK  status: ('A' for Active; 'I' for Inactive)
REMARK    1  A    between atoms: C_2  and  C_3
REMARK    2  A    between atoms: C_3  and  C_4
REMARK    3  A    between atoms: C_4  and  C_5
REMARK    4  A    between atoms: C_5  and  C_6
REMARK    5  A    between atoms: C_5  and  C_8
REMARK    6  A    between atoms: C_8  and  O_9
REMARK    7  A    between atoms: O_9  and  C_10
REMARK    8  A    between atoms: C_10  and  C_12
REMARK    9  A    between atoms: C_12  and  C_28
REMARK   10  A    between atoms: C_13  and  C_14
REMARK   11  A    between atoms: C_13  and  C_20
REMARK   12  A    between atoms: C_23  and  O_26
REMARK                            x       y       z     vdW  Elec       q    Type
REMARK                         _______ _______ _______ _____ _____    ______ ____
ROOT
ATOM      1  C   UNL     1       0.707  -0.617   0.000  0.00  0.00    +0.000 C 
ATOM      2  C   UNL     1       1.424  -0.209   0.000  0.00  0.00    +0.000 C 
ENDROOT
BRANCH   2   3
ATOM      3  C   UNL     1       2.131  -0.617   0.000  0.00  0.00    +0.000 A 
ATOM      4  C   UNL     1       2.848  -0.209   0.000  0.00  0.00    +0.000 A 
ATOM      5  C   UNL     1       3.555  -0.617   0.000  0.00  0.00    +0.000 A 
ATOM      6  C   UNL     1       3.555  -1.444   0.000  0.00  0.00    +0.000 A 
ATOM      7  C   UNL     1       2.848  -1.852   0.000  0.00  0.00    +0.000 A 
ATOM      8  C   UNL     1       2.131  -1.444   0.000  0.00  0.00    +0.000 A 
BRANCH   6   9
ATOM      9  O   UNL     1       4.272  -1.852   0.000  0.00  0.00    +0.000 OA
ATOM     10  C   UNL     1       4.979  -1.444   0.000  0.00  0.00    +0.000 C 
ENDBRANCH   6   9
ENDBRANCH   2   3
BRANCH   2  11
ATOM     11  C   UNL     1       1.424   0.617   0.000  0.00  0.00    +0.000 A 
ATOM     12  C   UNL     1       0.707   1.026   0.000  0.00  0.00    +0.000 A 
ATOM     13  C   UNL     1       0.707   1.842   0.000  0.00  0.00    +0.000 A 
ATOM     14  C   UNL     1       1.424   2.260   0.000  0.00  0.00    +0.000 A 
ATOM     15  C   UNL     1       2.131   1.842   0.000  0.00  0.00    +0.000 A 
ATOM     16  C   UNL     1       2.131   1.026   0.000  0.00  0.00    +0.000 A 
ENDBRANCH   2  11
BRANCH   1  17
ATOM     17  C   UNL     1       0.707  -1.444   0.000  0.00  0.00    +0.000 C 
ATOM     18  N   UNL     1       0.707  -2.260   0.000  0.00  0.00    +0.000 NA
ENDBRANCH   1  17
BRANCH   1  19
ATOM     19  C   UNL     1       0.000  -0.209   0.000  0.00  0.00    +0.000 C 
ATOM     20  O   UNL     1       0.000   0.617   0.000  0.00  0.00    +0.000 OA
BRANCH  19  21
ATOM     21  O   UNL     1      -0.707  -0.617   0.000  0.00  0.00    +0.000 OA
BRANCH  21  22
ATOM     22  C   UNL     1      -1.424  -0.209   0.000  0.00  0.00    +0.000 C 
BRANCH  22  23
ATOM     23  C   UNL     1      -2.131  -0.617   0.000  0.00  0.00    +0.000 C 
BRANCH  23  24
ATOM     24  C   UNL     1      -2.131  -1.444   0.000  0.00  0.00    +0.000 C 
ATOM     25  C   UNL     1      -2.848  -1.852   0.000  0.00  0.00    +0.000 C 
ENDBRANCH  23  24
BRANCH  23  26
ATOM     26  C   UNL     1      -2.848  -0.209   0.000  0.00  0.00    +0.000 C 
BRANCH  26  27
ATOM     27  C   UNL     1      -3.555  -0.617   0.000  0.00  0.00    +0.000 C 
BRANCH  27  29
ATOM     28  C   UNL     1      -4.979  -0.617   0.000  0.00  0.00    +0.000 C 
ATOM     29  C   UNL     1      -4.272  -0.209   0.000  0.00  0.00    +0.000 C 
ENDBRANCH  27  29
ENDBRANCH  26  27
ENDBRANCH  23  26
ENDBRANCH  22  23
ENDBRANCH  21  22
ENDBRANCH  19  21
ENDBRANCH   1  19
TORSDOF 12
