REMARK  Name = 
REMARK  7 active torsions:
REMARK  status: ('A' for Active; 'I' for Inactive)
REMARK    1  A    between atoms: S_4  and  C_12
REMARK    2  A    between atoms: P_5  and  C_12
REMARK    3  A    between atoms: C_12  and  C_13
REMARK    4  A    between atoms: C_13  and  C_14
REMARK    5  A    between atoms: C_14  and  C_15
REMARK    6  A    between atoms: C_15  and  C_16
REMARK    7  A    between atoms: C_19  and  C_22
REMARK                            x       y       z     vdW  Elec       q    Type
REMARK                         _______ _______ _______ _____ _____    ______ ____
ROOT
ATOM      1  K   UNL     1      -1.459  -4.064   0.000  0.00  0.00    +0.000 K 
ENDROOT
TORSDOF 0
REMARK  Name = 
REMARK  7 active torsions:
REMARK  status: ('A' for Active; 'I' for Inactive)
REMARK    1  A    between atoms: S_4  and  C_12
REMARK    2  A    between atoms: P_5  and  C_12
REMARK    3  A    between atoms: C_12  and  C_13
REMARK    4  A    between atoms: C_13  and  C_14
REMARK    5  A    between atoms: C_14  and  C_15
REMARK    6  A    between atoms: C_15  and  C_16
REMARK    7  A    between atoms: C_19  and  C_22
REMARK                            x       y       z     vdW  Elec       q    Type
REMARK                         _______ _______ _______ _____ _____    ______ ____
ROOT
ATOM      1  K   UNL     1       0.493  -4.587   0.000  0.00  0.00    +0.000 K 
ENDROOT
TORSDOF 0
REMARK  Name = 
REMARK  7 active torsions:
REMARK  status: ('A' for Active; 'I' for Inactive)
REMARK    1  A    between atoms: S_4  and  C_12
REMARK    2  A    between atoms: P_5  and  C_12
REMARK    3  A    between atoms: C_12  and  C_13
REMARK    4  A    between atoms: C_13  and  C_14
REMARK    5  A    between atoms: C_14  and  C_15
REMARK    6  A    between atoms: C_15  and  C_16
REMARK    7  A    between atoms: C_19  and  C_22
REMARK                            x       y       z     vdW  Elec       q    Type
REMARK                         _______ _______ _______ _____ _____    ______ ____
ROOT
ATOM      1  K   UNL     1      -2.365  -2.112   0.000  0.00  0.00    +0.000 K 
ENDROOT
TORSDOF 0
REMARK  Name = 
REMARK  7 active torsions:
REMARK  status: ('A' for Active; 'I' for Inactive)
REMARK    1  A    between atoms: S_4  and  C_12
REMARK    2  A    between atoms: P_5  and  C_12
REMARK    3  A    between atoms: C_12  and  C_13
REMARK    4  A    between atoms: C_13  and  C_14
REMARK    5  A    between atoms: C_14  and  C_15
REMARK    6  A    between atoms: C_15  and  C_16
REMARK    7  A    between atoms: C_19  and  C_22
REMARK                            x       y       z     vdW  Elec       q    Type
REMARK                         _______ _______ _______ _____ _____    ______ ____
ROOT
ATOM      1  C   UNL     1       1.207  -0.875   0.000  0.00  0.00    +0.000 C 
ENDROOT
BRANCH   1   2
ATOM      2  C   UNL     1       1.207  -0.050   0.000  0.00  0.00    +0.000 A 
ATOM      3  C   UNL     1       1.922   0.363   0.000  0.00  0.00    +0.000 A 
ATOM      4  C   UNL     1       0.493   0.363   0.000  0.00  0.00    +0.000 A 
ATOM      5  C   UNL     1       1.207   1.601   0.000  0.00  0.00    +0.000 A 
ATOM      6  C   UNL     1       1.922   1.188   0.000  0.00  0.00    +0.000 A 
ATOM      7  C   UNL     1       0.493   1.188   0.000  0.00  0.00    +0.000 A 
BRANCH   5   8
ATOM      8  C   UNL     1       1.207   2.425   0.000  0.00  0.00    +0.000 A 
ATOM      9  C   UNL     1       0.493   2.838   0.000  0.00  0.00    +0.000 A 
ATOM     10  C   UNL     1       1.922   2.838   0.000  0.00  0.00    +0.000 A 
ATOM     11  C   UNL     1       0.493   3.663   0.000  0.00  0.00    +0.000 A 
ATOM     12  C   UNL     1       1.922   3.663   0.000  0.00  0.00    +0.000 A 
ATOM     13  C   UNL     1       1.207   4.075   0.000  0.00  0.00    +0.000 A 
ENDBRANCH   5   8
ENDBRANCH   1   2
BRANCH   1  14
ATOM     14  C   UNL     1       0.493  -1.287   0.000  0.00  0.00    +0.000 C 
BRANCH  14  15
ATOM     15  C   UNL     1       0.493  -2.112   0.000  0.00  0.00    +0.000 C 
BRANCH  15  16
ATOM     16  C   UNL     1      -0.221  -2.525   0.000  0.00  0.00    +0.000 C 
BRANCH  16  17
ATOM     17  S   UNL     1      -0.936  -2.112   0.000  0.00  0.00    +0.000 S 
ATOM     18  O   UNL     1      -1.650  -1.700   0.000  0.00  0.00    +0.000 OA
ATOM     19  O   UNL     1      -0.523  -1.397   0.000  0.00  0.00    +0.000 OA
ATOM     20  O   UNL     1      -1.349  -2.826   0.000  0.00  0.00    +0.000 OA
ENDBRANCH  16  17
BRANCH  16  21
ATOM     21  P   UNL     1      -0.221  -3.349   0.000  0.00  0.00    +0.000 P 
ATOM     22  O   UNL     1      -1.046  -3.349   0.000  0.00  0.00    +0.000 OA
ATOM     23  O   UNL     1      -0.221  -4.175   0.000  0.00  0.00    +0.000 OA
ATOM     24  O   UNL     1       0.604  -3.349   0.000  0.00  0.00    +0.000 OA
ENDBRANCH  16  21
ENDBRANCH  15  16
ENDBRANCH  14  15
ENDBRANCH   1  14
TORSDOF 7
