REMARK  Name = 
REMARK  22 active torsions:
REMARK  status: ('A' for Active; 'I' for Inactive)
REMARK    1  A    between atoms: O_3  and  C_35
REMARK    2  A    between atoms: O_5  and  C_41
REMARK    3  A    between atoms: O_5  and  C_61
REMARK    4  A    between atoms: C_12  and  C_18
REMARK    5  A    between atoms: C_17  and  C_35
REMARK    6  A    between atoms: C_18  and  C_29
REMARK    7  A    between atoms: C_23  and  C_34
REMARK    8  A    between atoms: C_29  and  C_41
REMARK    9  A    between atoms: C_39  and  C_44
REMARK   10  A    between atoms: C_45  and  C_46
REMARK   11  A    between atoms: C_45  and  C_50
REMARK   12  A    between atoms: C_46  and  C_48
REMARK   13  A    between atoms: C_47  and  C_49
REMARK   14  A    between atoms: C_47  and  C_51
REMARK   15  A    between atoms: C_48  and  C_49
REMARK   16  A    between atoms: C_50  and  C_52
REMARK   17  A    between atoms: C_51  and  C_53
REMARK   18  A    between atoms: C_52  and  C_55
REMARK   19  A    between atoms: C_53  and  C_60
REMARK   20  A    between atoms: C_55  and  C_59
REMARK   21  A    between atoms: C_60  and  C_62
REMARK   22  A    between atoms: C_61  and  C_63
REMARK                            x       y       z     vdW  Elec       q    Type
REMARK                         _______ _______ _______ _____ _____    ______ ____
ROOT
ATOM      1 MG   UNL     1      -6.413  -0.098   0.000  0.00  0.00    +0.000 Mg
ENDROOT
TORSDOF 0
REMARK  Name = 
REMARK  22 active torsions:
REMARK  status: ('A' for Active; 'I' for Inactive)
REMARK    1  A    between atoms: O_3  and  C_35
REMARK    2  A    between atoms: O_5  and  C_41
REMARK    3  A    between atoms: O_5  and  C_61
REMARK    4  A    between atoms: C_12  and  C_18
REMARK    5  A    between atoms: C_17  and  C_35
REMARK    6  A    between atoms: C_18  and  C_29
REMARK    7  A    between atoms: C_23  and  C_34
REMARK    8  A    between atoms: C_29  and  C_41
REMARK    9  A    between atoms: C_39  and  C_44
REMARK   10  A    between atoms: C_45  and  C_46
REMARK   11  A    between atoms: C_45  and  C_50
REMARK   12  A    between atoms: C_46  and  C_48
REMARK   13  A    between atoms: C_47  and  C_49
REMARK   14  A    between atoms: C_47  and  C_51
REMARK   15  A    between atoms: C_48  and  C_49
REMARK   16  A    between atoms: C_50  and  C_52
REMARK   17  A    between atoms: C_51  and  C_53
REMARK   18  A    between atoms: C_52  and  C_55
REMARK   19  A    between atoms: C_53  and  C_60
REMARK   20  A    between atoms: C_55  and  C_59
REMARK   21  A    between atoms: C_60  and  C_62
REMARK   22  A    between atoms: C_61  and  C_63
REMARK                            x       y       z     vdW  Elec       q    Type
REMARK                         _______ _______ _______ _____ _____    ______ ____
ROOT
ATOM      1  O   UNL     1      -5.260  -3.710   0.000  0.00  0.00    +0.000 OA
ATOM      2  N   UNL     1      -6.382  -1.166   0.000  0.00  0.00    +0.000 NA
ATOM      3  N   UNL     1      -5.187  -0.076   0.000  0.00  0.00    +0.000 NA
ATOM      4  N   UNL     1      -6.409   1.014   0.000  0.00  0.00    +0.000 NA
ATOM      5  N   UNL     1      -7.579  -0.076   0.000  0.00  0.00    +0.000 NA
ATOM      6  C   UNL     1      -3.963  -0.448   0.000  0.00  0.00    +0.000 C 
ATOM      7  C   UNL     1      -3.963   0.349   0.000  0.00  0.00    +0.000 C 
ATOM      8  C   UNL     1      -4.708  -0.661   0.000  0.00  0.00    +0.000 C 
ATOM      9  C   UNL     1      -4.947  -1.432   0.000  0.00  0.00    +0.000 C 
ATOM     10  C   UNL     1      -5.744  -1.645   0.000  0.00  0.00    +0.000 A 
ATOM     11  C   UNL     1      -4.503  -2.116   0.000  0.00  0.00    +0.000 C 
ATOM     12  C   UNL     1      -4.735   0.562   0.000  0.00  0.00    +0.000 C 
ATOM     13  C   UNL     1      -5.984  -2.415   0.000  0.00  0.00    +0.000 A 
ATOM     14  C   UNL     1      -5.318  -2.887   0.000  0.00  0.00    +0.000 C 
ATOM     15  C   UNL     1      -7.021  -1.672   0.000  0.00  0.00    +0.000 A 
ATOM     16  C   UNL     1      -8.802  -0.475   0.000  0.00  0.00    +0.000 C 
ATOM     17  C   UNL     1      -6.781  -2.415   0.000  0.00  0.00    +0.000 A 
ATOM     18  C   UNL     1      -8.802   0.322   0.000  0.00  0.00    +0.000 C 
ATOM     19  C   UNL     1      -3.307   0.848   0.000  0.00  0.00    +0.000 C 
ATOM     20  C   UNL     1      -8.031  -0.688   0.000  0.00  0.00    +0.000 C 
ATOM     21  C   UNL     1      -4.974   1.306   0.000  0.00  0.00    +0.000 C 
ATOM     22  C   UNL     1      -5.744   1.546   0.000  0.00  0.00    +0.000 A 
ATOM     23  C   UNL     1      -7.791  -1.432   0.000  0.00  0.00    +0.000 C 
ATOM     24  C   UNL     1      -8.031   0.535   0.000  0.00  0.00    +0.000 C 
ATOM     25  C   UNL     1      -7.048   1.519   0.000  0.00  0.00    +0.000 A 
ATOM     26  C   UNL     1      -6.011   2.289   0.000  0.00  0.00    +0.000 A 
ATOM     27  C   UNL     1      -7.818   1.306   0.000  0.00  0.00    +0.000 C 
ATOM     28  C   UNL     1      -7.267  -3.082   0.000  0.00  0.00    +0.000 C 
ATOM     29  C   UNL     1      -6.808   2.289   0.000  0.00  0.00    +0.000 A 
ATOM     30  C   UNL     1      -9.458   0.822   0.000  0.00  0.00    +0.000 C 
ATOM     31  C   UNL     1      -5.536   2.964   0.000  0.00  0.00    +0.000 C 
ENDROOT
BRANCH  29  33
ATOM     32  O   UNL     1      -8.117   2.863   0.000  0.00  0.00    +0.000 OA
ATOM     33  C   UNL     1      -7.297   2.954   0.000  0.00  0.00    +0.000 C 
ATOM     34  C   UNL     1      -6.966   3.710   0.000  0.00  0.00    +0.000 C 
ENDBRANCH  29  33
BRANCH  11  36
ATOM     35  O   UNL     1      -3.189  -1.554   0.000  0.00  0.00    +0.000 OA
ATOM     36  C   UNL     1      -3.684  -2.214   0.000  0.00  0.00    +0.000 C 
BRANCH  36  37
ATOM     37  O   UNL     1      -3.359  -2.972   0.000  0.00  0.00    +0.000 OA
ATOM     38  C   UNL     1      -2.540  -3.070   0.000  0.00  0.00    +0.000 C 
ENDBRANCH  36  37
ENDBRANCH  11  36
BRANCH  16  39
ATOM     39  C   UNL     1      -9.458  -0.974   0.000  0.00  0.00    +0.000 C 
ATOM     40  C   UNL     1     -10.219  -0.655   0.000  0.00  0.00    +0.000 C 
ENDBRANCH  16  39
BRANCH   6  41
ATOM     41  C   UNL     1      -3.305  -0.945   0.000  0.00  0.00    +0.000 C 
BRANCH  41  42
ATOM     42  C   UNL     1      -2.545  -0.623   0.000  0.00  0.00    +0.000 C 
BRANCH  42  44
ATOM     43  O   UNL     1      -1.987  -1.938   0.000  0.00  0.00    +0.000 OA
ATOM     44  C   UNL     1      -1.886  -1.119   0.000  0.00  0.00    +0.000 C 
BRANCH  44  45
ATOM     45  O   UNL     1      -1.127  -0.797   0.000  0.00  0.00    +0.000 OA
BRANCH  45  46
ATOM     46  C   UNL     1      -0.468  -1.294   0.000  0.00  0.00    +0.000 C 
BRANCH  46  48
ATOM     47  C   UNL     1       0.950  -1.468   0.000  0.00  0.00    +0.000 C 
ATOM     48  C   UNL     1       0.291  -0.972   0.000  0.00  0.00    +0.000 C 
ATOM     49  C   UNL     1       0.849  -2.287   0.000  0.00  0.00    +0.000 C 
BRANCH  47  50
ATOM     50  C   UNL     1       1.709  -1.146   0.000  0.00  0.00    +0.000 C 
BRANCH  50  51
ATOM     51  C   UNL     1       2.368  -1.643   0.000  0.00  0.00    +0.000 C 
BRANCH  51  52
ATOM     52  C   UNL     1       3.128  -1.321   0.000  0.00  0.00    +0.000 C 
BRANCH  52  53
ATOM     53  C   UNL     1       3.787  -1.817   0.000  0.00  0.00    +0.000 C 
ATOM     54  C   UNL     1       3.686  -2.636   0.000  0.00  0.00    +0.000 C 
BRANCH  53  55
ATOM     55  C   UNL     1       4.546  -1.495   0.000  0.00  0.00    +0.000 C 
BRANCH  55  56
ATOM     56  C   UNL     1       5.205  -1.992   0.000  0.00  0.00    +0.000 C 
BRANCH  56  57
ATOM     57  C   UNL     1       5.964  -1.669   0.000  0.00  0.00    +0.000 C 
BRANCH  57  58
ATOM     58  C   UNL     1       6.623  -2.166   0.000  0.00  0.00    +0.000 C 
ATOM     59  C   UNL     1       6.522  -2.985   0.000  0.00  0.00    +0.000 C 
BRANCH  58  60
ATOM     60  C   UNL     1       7.383  -1.844   0.000  0.00  0.00    +0.000 C 
BRANCH  60  61
ATOM     61  C   UNL     1       8.041  -2.341   0.000  0.00  0.00    +0.000 C 
BRANCH  61  62
ATOM     62  C   UNL     1       8.801  -2.018   0.000  0.00  0.00    +0.000 C 
BRANCH  62  63
ATOM     63  C   UNL     1       9.460  -2.515   0.000  0.00  0.00    +0.000 C 
ATOM     64  C   UNL     1       9.359  -3.334   0.000  0.00  0.00    +0.000 C 
ATOM     65  C   UNL     1      10.219  -2.193   0.000  0.00  0.00    +0.000 C 
ENDBRANCH  62  63
ENDBRANCH  61  62
ENDBRANCH  60  61
ENDBRANCH  58  60
ENDBRANCH  57  58
ENDBRANCH  56  57
ENDBRANCH  55  56
ENDBRANCH  53  55
ENDBRANCH  52  53
ENDBRANCH  51  52
ENDBRANCH  50  51
ENDBRANCH  47  50
ENDBRANCH  46  48
ENDBRANCH  45  46
ENDBRANCH  44  45
ENDBRANCH  42  44
ENDBRANCH  41  42
ENDBRANCH   6  41
TORSDOF 22
