REMARK  Name = 
REMARK  2 active torsions:
REMARK  status: ('A' for Active; 'I' for Inactive)
REMARK    1  A    between atoms: C_6  and  N_7
REMARK    2  A    between atoms: C_8  and  C_10
REMARK                            x       y       z     vdW  Elec       q    Type
REMARK                         _______ _______ _______ _____ _____    ______ ____
ROOT
ATOM      1  N   UNL     1       1.429  -1.650   0.000  0.00  0.00    +0.000 NA
ATOM      2  C   UNL     1       0.715  -1.238   0.000  0.00  0.00    +0.000 C 
ATOM      3  O   UNL     1       0.000  -1.650   0.000  0.00  0.00    +0.000 OA
ENDROOT
BRANCH   2   4
ATOM      4  C   UNL     1       0.715  -0.412   0.000  0.00  0.00    +0.000 A 
ATOM      5  C   UNL     1       0.000   0.000   0.000  0.00  0.00    +0.000 A 
ATOM      6  C   UNL     1       0.000   0.825   0.000  0.00  0.00    +0.000 A 
ATOM      7  C   UNL     1       0.715   1.238   0.000  0.00  0.00    +0.000 A 
ATOM      8  C   UNL     1       1.429   0.825   0.000  0.00  0.00    +0.000 A 
ATOM      9  C   UNL     1       1.429   0.000   0.000  0.00  0.00    +0.000 A 
ATOM     10  O   UNL     1       2.143  -0.412   0.000  0.00  0.00    +0.000 OA
ATOM     11 BR   UNL     1      -0.715   1.238   0.000  0.00  0.00    +0.000 Br
ENDBRANCH   2   4
BRANCH   1  17
ATOM     12  C   UNL     1       2.143  -2.888   0.000  0.00  0.00    +0.000 A 
ATOM     13  C   UNL     1       2.143  -3.712   0.000  0.00  0.00    +0.000 A 
ATOM     14  C   UNL     1       1.429  -4.125   0.000  0.00  0.00    +0.000 A 
ATOM     15  C   UNL     1       0.715  -3.712   0.000  0.00  0.00    +0.000 A 
ATOM     16  C   UNL     1       0.715  -2.888   0.000  0.00  0.00    +0.000 A 
ATOM     17  C   UNL     1       1.429  -2.475   0.000  0.00  0.00    +0.000 A 
ATOM     18 CL   UNL     1       1.429  -4.950   0.000  0.00  0.00    +0.000 Cl
ENDBRANCH   1  17
TORSDOF 2
