REMARK  Name = 
REMARK  0 active torsions:
REMARK  status: ('A' for Active; 'I' for Inactive)
REMARK                            x       y       z     vdW  Elec       q    Type
REMARK                         _______ _______ _______ _____ _____    ______ ____
ROOT
ATOM      1  C   UNL     1      -0.715  -0.836   0.000  0.00  0.00    +0.000 A 
ATOM      2  C   UNL     1      -1.429  -0.423   0.000  0.00  0.00    +0.000 A 
ATOM      3  C   UNL     1      -1.429   0.402   0.000  0.00  0.00    +0.000 A 
ATOM      4  C   UNL     1      -0.715   0.814   0.000  0.00  0.00    +0.000 A 
ATOM      5  C   UNL     1       0.000   0.402   0.000  0.00  0.00    +0.000 A 
ATOM      6  C   UNL     1       0.000  -0.423   0.000  0.00  0.00    +0.000 A 
ATOM      7  C   UNL     1       0.715  -0.836   0.000  0.00  0.00    +0.000 A 
ATOM      8  C   UNL     1       0.715   0.814   0.000  0.00  0.00    +0.000 A 
ATOM      9  C   UNL     1       1.429   0.402   0.000  0.00  0.00    +0.000 A 
ATOM     10  C   UNL     1       1.429  -0.423   0.000  0.00  0.00    +0.000 A 
ATOM     11  C   UNL     1      -2.143   0.814   0.000  0.00  0.00    +0.000 A 
ATOM     12  C   UNL     1      -2.143  -0.836   0.000  0.00  0.00    +0.000 A 
ATOM     13  C   UNL     1      -2.858  -0.423   0.000  0.00  0.00    +0.000 C 
ATOM     14  C   UNL     1      -2.858   0.402   0.000  0.00  0.00    +0.000 C 
ATOM     15  C   UNL     1       2.143   0.814   0.000  0.00  0.00    +0.000 A 
ATOM     16  C   UNL     1       2.143  -0.836   0.000  0.00  0.00    +0.000 A 
ATOM     17  O   UNL     1       2.858  -0.423   0.000  0.00  0.00    +0.000 OA
ATOM     18  O   UNL     1       2.858   0.402   0.000  0.00  0.00    +0.000 OA
ATOM     19  C   UNL     1       1.429   2.052   0.000  0.00  0.00    +0.000 A 
ATOM     20  C   UNL     1       2.143   1.639   0.000  0.00  0.00    +0.000 A 
ATOM     21  C   UNL     1       0.715   1.661   0.000  0.00  0.00    +0.000 A 
ATOM     22  C   UNL     1       0.000   2.073   0.000  0.00  0.00    +0.000 C 
ATOM     23  C   UNL     1      -0.714   1.661   0.000  0.00  0.00    +0.000 A 
ATOM     24  C   UNL     1      -1.429   2.073   0.000  0.00  0.00    +0.000 A 
ATOM     25  C   UNL     1      -2.143   1.661   0.000  0.00  0.00    +0.000 A 
ATOM     26  C   UNL     1       2.143  -1.661   0.000  0.00  0.00    +0.000 A 
ATOM     27  C   UNL     1       1.429  -2.073   0.000  0.00  0.00    +0.000 A 
ATOM     28  C   UNL     1       0.715  -1.661   0.000  0.00  0.00    +0.000 A 
ATOM     29  C   UNL     1       0.000  -2.073   0.000  0.00  0.00    +0.000 C 
ATOM     30  C   UNL     1      -0.715  -1.661   0.000  0.00  0.00    +0.000 A 
ATOM     31  C   UNL     1      -1.429  -2.073   0.000  0.00  0.00    +0.000 A 
ATOM     32  C   UNL     1      -2.143  -1.661   0.000  0.00  0.00    +0.000 A 
ATOM     33  O   UNL     1       1.429   2.877   0.000  0.00  0.00    +0.000 OA
ATOM     34  O   UNL     1      -1.429   2.898   0.000  0.00  0.00    +0.000 OA
ATOM     35  O   UNL     1       1.429  -2.898   0.000  0.00  0.00    +0.000 OA
ATOM     36  O   UNL     1      -1.429  -2.898   0.000  0.00  0.00    +0.000 OA
ATOM     37  O   UNL     1       0.000  -2.898   0.000  0.00  0.00    +0.000 OA
ATOM     38  O   UNL     1       0.000   2.898   0.000  0.00  0.00    +0.000 OA
ENDROOT
TORSDOF 0
