REMARK  Name = 
REMARK  2 active torsions:
REMARK  status: ('A' for Active; 'I' for Inactive)
REMARK    1  A    between atoms: N_8  and  C_19
REMARK    2  A    between atoms: C_19  and  C_22
REMARK                            x       y       z     vdW  Elec       q    Type
REMARK                         _______ _______ _______ _____ _____    ______ ____
ROOT
ATOM      1  F   UNL     1      -2.885  -1.526   0.000  0.00  0.00    +0.000 F 
ATOM      2  O   UNL     1       1.554  -0.951   0.000  0.00  0.00    +0.000 OA
ATOM      3  O   UNL     1       1.460  -2.300   0.000  0.00  0.00    +0.000 OA
ATOM      4  O   UNL     1      -0.870  -3.443   0.000  0.00  0.00    +0.000 OA
ATOM      5  O   UNL     1       0.027   0.968   0.000  0.00  0.00    +0.000 OA
ATOM      6  N   UNL     1       0.742  -0.269   0.000  0.00  0.00    +0.000 N 
ATOM      7  N   UNL     1       0.440  -2.776   0.000  0.00  0.00    +0.000 N 
ATOM      8  C   UNL     1       0.027  -1.506   0.000  0.00  0.00    +0.000 C 
ATOM      9  C   UNL     1      -0.640  -1.991   0.000  0.00  0.00    +0.000 C 
ATOM     10  C   UNL     1      -0.687  -1.094   0.000  0.00  0.00    +0.000 A 
ATOM     11  C   UNL     1       0.742  -1.094   0.000  0.00  0.00    +0.000 C 
ATOM     12  C   UNL     1       0.695  -1.991   0.000  0.00  0.00    +0.000 C 
ATOM     13  C   UNL     1      -0.687  -0.269   0.000  0.00  0.00    +0.000 A 
ATOM     14  C   UNL     1      -0.385  -2.776   0.000  0.00  0.00    +0.000 C 
ATOM     15  C   UNL     1       0.027   0.143   0.000  0.00  0.00    +0.000 C 
ATOM     16  C   UNL     1      -1.425  -1.535   0.000  0.00  0.00    +0.000 A 
ATOM     17  C   UNL     1      -1.425   0.172   0.000  0.00  0.00    +0.000 A 
ATOM     18  C   UNL     1      -2.172  -1.111   0.000  0.00  0.00    +0.000 A 
ATOM     19  C   UNL     1      -2.172  -0.252   0.000  0.00  0.00    +0.000 A 
ATOM     20  H   UNL     1       0.740  -3.190   0.000  0.00  0.00    +0.000 HD
ENDROOT
BRANCH   6  21
ATOM     21  C   UNL     1       1.456   0.143   0.000  0.00  0.00    +0.000 C 
BRANCH  21  24
ATOM     22 BR   UNL     1       1.456   3.443   0.000  0.00  0.00    +0.000 Br
ATOM     23  F   UNL     1       2.885   0.968   0.000  0.00  0.00    +0.000 F 
ATOM     24  C   UNL     1       1.456   0.968   0.000  0.00  0.00    +0.000 A 
ATOM     25  C   UNL     1       2.171   1.381   0.000  0.00  0.00    +0.000 A 
ATOM     26  C   UNL     1       0.742   1.381   0.000  0.00  0.00    +0.000 A 
ATOM     27  C   UNL     1       2.171   2.206   0.000  0.00  0.00    +0.000 A 
ATOM     28  C   UNL     1       0.742   2.206   0.000  0.00  0.00    +0.000 A 
ATOM     29  C   UNL     1       1.456   2.618   0.000  0.00  0.00    +0.000 A 
ENDBRANCH  21  24
ENDBRANCH   6  21
TORSDOF 2
