REMARK  Name = 
REMARK  7 active torsions:
REMARK  status: ('A' for Active; 'I' for Inactive)
REMARK    1  A    between atoms: C_1  and  O_4
REMARK    2  A    between atoms: C_2  and  O_6
REMARK    3  A    between atoms: C_3  and  N_8
REMARK    4  A    between atoms: O_4  and  C_9
REMARK    5  A    between atoms: C_5  and  C_11
REMARK    6  A    between atoms: O_6  and  S_12
REMARK    7  A    between atoms: C_23  and  C_27
REMARK                            x       y       z     vdW  Elec       q    Type
REMARK                         _______ _______ _______ _____ _____    ______ ____
ROOT
ATOM      1  C   UNL     1       1.381  -0.022   0.000  0.00  0.00    +0.000 C 
ATOM      2  C   UNL     1       0.973   0.692   0.000  0.00  0.00    +0.000 C 
ATOM      3  C   UNL     1       2.205  -0.026   0.000  0.00  0.00    +0.000 C 
ATOM      4  C   UNL     1       1.384   1.403   0.000  0.00  0.00    +0.000 C 
ATOM      5  C   UNL     1       2.627   0.685   0.000  0.00  0.00    +0.000 C 
ATOM      6  O   UNL     1       2.212   1.400   0.000  0.00  0.00    +0.000 OA
ATOM      7  O   UNL     1       3.451   0.681   0.000  0.00  0.00    +0.000 OA
ENDROOT
BRANCH   3   8
ATOM      8  N   UNL     1       2.616  -0.744   0.000  0.00  0.00    +0.000 NA
ATOM      9  C   UNL     1       2.199  -1.455   0.000  0.00  0.00    +0.000 C 
ATOM     10  C   UNL     1       1.374  -1.451   0.000  0.00  0.00    +0.000 C 
ATOM     11  O   UNL     1       2.606  -2.173   0.000  0.00  0.00    +0.000 OA
ENDBRANCH   3   8
BRANCH   4  12
ATOM     12  C   UNL     1       0.973   2.117   0.000  0.00  0.00    +0.000 C 
ATOM     13  O   UNL     1       1.387   2.832   0.000  0.00  0.00    +0.000 OA
ENDBRANCH   4  12
BRANCH   2  14
ATOM     14  O   UNL     1       0.148   0.692   0.000  0.00  0.00    +0.000 OA
BRANCH  14  15
ATOM     15  S   UNL     1      -0.262   1.410   0.000  0.00  0.00    +0.000 S 
ATOM     16  O   UNL     1       0.449   1.831   0.000  0.00  0.00    +0.000 OA
ATOM     17  O   UNL     1      -0.980   1.006   0.000  0.00  0.00    +0.000 OA
ATOM     18  O   UNL     1      -0.680   2.131   0.000  0.00  0.00    +0.000 OA
ENDBRANCH  14  15
ENDBRANCH   2  14
BRANCH   1  19
ATOM     19  O   UNL     1       0.331  -1.151   0.000  0.00  0.00    +0.000 OA
BRANCH  19  20
ATOM     20  C   UNL     1      -0.973  -1.403   0.000  0.00  0.00    +0.000 C 
ATOM     21  O   UNL     1      -1.387  -0.689   0.000  0.00  0.00    +0.000 OA
ATOM     22  C   UNL     1      -1.394  -2.114   0.000  0.00  0.00    +0.000 C 
ATOM     23  C   UNL     1      -2.212  -0.689   0.000  0.00  0.00    +0.000 C 
ATOM     24  C   UNL     1      -2.219  -2.114   0.000  0.00  0.00    +0.000 C 
ATOM     25  O   UNL     1      -0.984  -2.832   0.000  0.00  0.00    +0.000 OA
ATOM     26  C   UNL     1      -2.627  -1.400   0.000  0.00  0.00    +0.000 C 
ATOM     27  O   UNL     1      -2.633  -2.825   0.000  0.00  0.00    +0.000 OA
ATOM     28  O   UNL     1      -3.451  -1.396   0.000  0.00  0.00    +0.000 OA
BRANCH  23  29
ATOM     29  C   UNL     1      -2.627   0.029   0.000  0.00  0.00    +0.000 C 
ATOM     30  O   UNL     1      -3.451   0.029   0.000  0.00  0.00    +0.000 OA
ATOM     31  O   UNL     1      -2.212   0.744   0.000  0.00  0.00    +0.000 OA
ENDBRANCH  23  29
ENDBRANCH  19  20
ENDBRANCH   1  19
TORSDOF 7
