REMARK  Name = 
REMARK  6 active torsions:
REMARK  status: ('A' for Active; 'I' for Inactive)
REMARK    1  A    between atoms: C_1  and  C_2
REMARK    2  A    between atoms: C_1  and  N_9
REMARK    3  A    between atoms: C_2  and  C_3
REMARK    4  A    between atoms: C_3  and  C_4
REMARK    5  A    between atoms: C_3  and  C_7
REMARK    6  A    between atoms: C_3  and  C_8
REMARK                            x       y       z     vdW  Elec       q    Type
REMARK                         _______ _______ _______ _____ _____    ______ ____
ROOT
ATOM      1  C   UNL     1       0.859   0.000   0.000  0.00  0.00    +0.000 C 
ENDROOT
BRANCH   1   2
ATOM      2  C   UNL     1       0.860   0.825   0.000  0.00  0.00    +0.000 A 
ATOM      3  C   UNL     1       0.146   1.238   0.000  0.00  0.00    +0.000 A 
ATOM      4  C   UNL     1       0.147   2.067   0.000  0.00  0.00    +0.000 A 
ATOM      5  C   UNL     1       0.861   2.476   0.000  0.00  0.00    +0.000 A 
ATOM      6  C   UNL     1       1.572   2.067   0.000  0.00  0.00    +0.000 A 
ATOM      7  C   UNL     1       1.572   1.240   0.000  0.00  0.00    +0.000 A 
ENDBRANCH   1   2
BRANCH   1   8
ATOM      8  C   UNL     1       0.862  -0.822   0.000  0.00  0.00    +0.000 A 
ATOM      9  C   UNL     1       1.575  -1.235   0.000  0.00  0.00    +0.000 A 
ATOM     10  C   UNL     1       1.575  -2.064   0.000  0.00  0.00    +0.000 A 
ATOM     11  C   UNL     1       0.860  -2.476   0.000  0.00  0.00    +0.000 A 
ATOM     12  C   UNL     1       0.149  -2.065   0.000  0.00  0.00    +0.000 A 
ATOM     13  C   UNL     1       0.149  -1.237   0.000  0.00  0.00    +0.000 A 
ENDBRANCH   1   8
BRANCH   1  14
ATOM     14  C   UNL     1       1.687   0.003   0.000  0.00  0.00    +0.000 C 
ATOM     15  N   UNL     1       2.097  -0.715   0.000  0.00  0.00    +0.000 NA
ATOM     16  O   UNL     1       2.097   0.715   0.000  0.00  0.00    +0.000 OA
ENDBRANCH   1  14
BRANCH   1  17
ATOM     17  C   UNL     1       0.051  -0.014   0.000  0.00  0.00    +0.000 C 
BRANCH  17  18
ATOM     18  C   UNL     1      -0.666  -0.419   0.000  0.00  0.00    +0.000 C 
ATOM     19  C   UNL     1      -0.679  -1.247   0.000  0.00  0.00    +0.000 C 
BRANCH  18  20
ATOM     20  N   UNL     1      -1.376   0.002   0.000  0.00  0.00    +0.000 NA
ATOM     21  C   UNL     1      -1.367   0.828   0.000  0.00  0.00    +0.000 C 
ATOM     22  C   UNL     1      -2.097  -0.401   0.000  0.00  0.00    +0.000 C 
ENDBRANCH  18  20
ENDBRANCH  17  18
ENDBRANCH   1  17
TORSDOF 6
