REMARK  Name = 
REMARK  11 active torsions:
REMARK  status: ('A' for Active; 'I' for Inactive)
REMARK    1  A    between atoms: C_2  and  C_4
REMARK    2  A    between atoms: C_4  and  C_5
REMARK    3  A    between atoms: C_5  and  C_6
REMARK    4  A    between atoms: C_5  and  N_18
REMARK    5  A    between atoms: N_8  and  C_9
REMARK    6  A    between atoms: C_9  and  C_10
REMARK    7  A    between atoms: C_9  and  C_14
REMARK    8  A    between atoms: C_19  and  C_21
REMARK    9  A    between atoms: C_21  and  C_22
REMARK   10  A    between atoms: C_22  and  C_23
REMARK   11  A    between atoms: C_23  and  N_24
REMARK                            x       y       z     vdW  Elec       q    Type
REMARK                         _______ _______ _______ _____ _____    ______ ____
ROOT
ATOM      1  C   UNL     1       1.995  -6.218   0.000  0.00  0.00    +0.000 C 
ENDROOT
BRANCH   1   2
ATOM      2  C   UNL     1       1.280  -6.630   0.000  0.00  0.00    +0.000 C 
ATOM      3  O   UNL     1       1.280  -7.455   0.000  0.00  0.00    +0.000 OA
ATOM      4  N   UNL     1       0.566  -6.218   0.000  0.00  0.00    +0.000 NA
BRANCH   4   5
ATOM      5  C   UNL     1      -0.149  -6.630   0.000  0.00  0.00    +0.000 C 
BRANCH   5   6
ATOM      6  C   UNL     1      -0.149  -7.455   0.000  0.00  0.00    +0.000 C 
ATOM      7  C   UNL     1      -0.974  -7.455   0.000  0.00  0.00    +0.000 C 
ATOM      8  C   UNL     1       0.676  -7.455   0.000  0.00  0.00    +0.000 C 
ATOM      9  C   UNL     1      -0.149  -8.280   0.000  0.00  0.00    +0.000 C 
ENDBRANCH   5   6
BRANCH   5  10
ATOM     10  C   UNL     1      -0.863  -6.218   0.000  0.00  0.00    +0.000 C 
ATOM     11  O   UNL     1      -0.863  -5.393   0.000  0.00  0.00    +0.000 OA
ATOM     12  N   UNL     1      -1.578  -6.630   0.000  0.00  0.00    +0.000 NA
ATOM     13  C   UNL     1      -2.292  -6.218   0.000  0.00  0.00    +0.000 C 
ENDBRANCH   5  10
ENDBRANCH   4   5
ENDBRANCH   1   2
BRANCH   1  14
ATOM     14  N   UNL     1       2.709  -6.630   0.000  0.00  0.00    +0.000 NA
ATOM     15  C   UNL     1       3.424  -6.218   0.000  0.00  0.00    +0.000 C 
ATOM     16  O   UNL     1       3.424  -5.393   0.000  0.00  0.00    +0.000 OA
BRANCH  15  17
ATOM     17  C   UNL     1       4.138  -6.630   0.000  0.00  0.00    +0.000 C 
ATOM     18  S   UNL     1       4.138  -7.455   0.000  0.00  0.00    +0.000 S 
BRANCH  17  19
ATOM     19  C   UNL     1       4.853  -6.218   0.000  0.00  0.00    +0.000 C 
BRANCH  19  20
ATOM     20  C   UNL     1       5.567  -6.630   0.000  0.00  0.00    +0.000 C 
BRANCH  20  21
ATOM     21  N   UNL     1       6.281  -6.218   0.000  0.00  0.00    +0.000 N 
ATOM     22  C   UNL     1       6.368  -5.397   0.000  0.00  0.00    +0.000 C 
ATOM     23  O   UNL     1       5.755  -4.845   0.000  0.00  0.00    +0.000 OA
ATOM     24  C   UNL     1       7.175  -5.226   0.000  0.00  0.00    +0.000 C 
ATOM     25  N   UNL     1       7.587  -5.940   0.000  0.00  0.00    +0.000 N 
ATOM     26  C   UNL     1       7.035  -6.553   0.000  0.00  0.00    +0.000 C 
ATOM     27  O   UNL     1       7.207  -7.361   0.000  0.00  0.00    +0.000 OA
ATOM     28  C   UNL     1       8.408  -6.027   0.000  0.00  0.00    +0.000 C 
ATOM     29  C   UNL     1       7.097  -4.405   0.000  0.00  0.00    +0.000 C 
ATOM     30  C   UNL     1       7.837  -4.734   0.000  0.00  0.00    +0.000 C 
ENDBRANCH  20  21
ENDBRANCH  19  20
ENDBRANCH  17  19
ENDBRANCH  15  17
ENDBRANCH   1  14
BRANCH   1  31
ATOM     31  C   UNL     1       1.995  -5.393   0.000  0.00  0.00    +0.000 C 
BRANCH  31  33
ATOM     32  C   UNL     1       1.280  -4.155   0.000  0.00  0.00    +0.000 C 
ATOM     33  C   UNL     1       1.280  -4.980   0.000  0.00  0.00    +0.000 C 
ATOM     34  C   UNL     1       0.566  -5.393   0.000  0.00  0.00    +0.000 C 
ENDBRANCH  31  33
ENDBRANCH   1  31
TORSDOF 11
