REMARK  Name = 
REMARK  0 active torsions:
REMARK  status: ('A' for Active; 'I' for Inactive)
REMARK                            x       y       z     vdW  Elec       q    Type
REMARK                         _______ _______ _______ _____ _____    ______ ____
ROOT
ATOM      1  C   UNL     1       0.277   1.381   0.000  0.00  0.00    +0.000 C 
ATOM      2  N   UNL     1       0.277   0.556   0.000  0.00  0.00    +0.000 N 
ATOM      3  S   UNL     1       0.945   0.071   0.000  0.00  0.00    +0.000 S 
ATOM      4  C   UNL     1       0.690  -0.714   0.000  0.00  0.00    +0.000 A 
ATOM      5  C   UNL     1      -0.135  -0.714   0.000  0.00  0.00    +0.000 A 
ATOM      6  C   UNL     1      -0.390   0.071   0.000  0.00  0.00    +0.000 A 
ATOM      7  O   UNL     1      -1.175   0.326   0.000  0.00  0.00    +0.000 OA
ATOM      8 CL   UNL     1       1.175  -1.381   0.000  0.00  0.00    +0.000 Cl
ENDROOT
TORSDOF 0
