REMARK  Name = 
REMARK  13 active torsions:
REMARK  status: ('A' for Active; 'I' for Inactive)
REMARK    1  A    between atoms: C_2  and  O_3
REMARK    2  A    between atoms: O_3  and  C_4
REMARK    3  A    between atoms: C_6  and  O_27
REMARK    4  A    between atoms: C_7  and  C_9
REMARK    5  A    between atoms: C_9  and  C_10
REMARK    6  A    between atoms: C_9  and  O_19
REMARK    7  A    between atoms: C_10  and  O_11
REMARK    8  A    between atoms: O_11  and  C_12
REMARK    9  A    between atoms: C_12  and  C_13
REMARK   10  A    between atoms: O_19  and  C_20
REMARK   11  A    between atoms: C_20  and  C_21
REMARK   12  A    between atoms: O_27  and  C_28
REMARK   13  A    between atoms: C_28  and  C_29
REMARK                            x       y       z     vdW  Elec       q    Type
REMARK                         _______ _______ _______ _____ _____    ______ ____
ROOT
ATOM      1  C   UNL     1       0.227  -0.631   0.000  0.00  0.00    +0.000 C 
ENDROOT
BRANCH   1   5
ATOM      2  C   UNL     1      -0.463   1.389   0.000  0.00  0.00    +0.000 C 
ATOM      3  C   UNL     1      -1.177   0.976   0.000  0.00  0.00    +0.000 C 
ATOM      4  C   UNL     1      -1.006   0.169   0.000  0.00  0.00    +0.000 C 
ATOM      5  C   UNL     1      -0.185   0.083   0.000  0.00  0.00    +0.000 C 
ATOM      6  O   UNL     1       0.150   0.837   0.000  0.00  0.00    +0.000 OA
ATOM      7  O   UNL     1      -1.931   1.312   0.000  0.00  0.00    +0.000 OA
BRANCH   2   8
ATOM      8  O   UNL     1      -0.377   2.209   0.000  0.00  0.00    +0.000 OA
BRANCH   8  10
ATOM      9  C   UNL     1       0.463   3.365   0.000  0.00  0.00    +0.000 C 
ATOM     10  C   UNL     1       0.377   2.545   0.000  0.00  0.00    +0.000 C 
ENDBRANCH   8  10
ENDBRANCH   2   8
BRANCH   4  11
ATOM     11  O   UNL     1      -1.558  -0.444   0.000  0.00  0.00    +0.000 OA
BRANCH  11  12
ATOM     12  C   UNL     1      -2.365  -0.272   0.000  0.00  0.00    +0.000 C 
BRANCH  12  13
ATOM     13  C   UNL     1      -2.917  -0.885   0.000  0.00  0.00    +0.000 A 
ATOM     14  C   UNL     1      -2.662  -1.670   0.000  0.00  0.00    +0.000 A 
ATOM     15  C   UNL     1      -3.214  -2.283   0.000  0.00  0.00    +0.000 A 
ATOM     16  C   UNL     1      -4.021  -2.112   0.000  0.00  0.00    +0.000 A 
ATOM     17  C   UNL     1      -4.276  -1.327   0.000  0.00  0.00    +0.000 A 
ATOM     18  C   UNL     1      -3.724  -0.714   0.000  0.00  0.00    +0.000 A 
ENDBRANCH  12  13
ENDBRANCH  11  12
ENDBRANCH   4  11
ENDBRANCH   1   5
BRANCH   1  19
ATOM     19  O   UNL     1       1.052  -0.631   0.000  0.00  0.00    +0.000 OA
BRANCH  19  20
ATOM     20  C   UNL     1       1.464  -1.346   0.000  0.00  0.00    +0.000 C 
BRANCH  20  21
ATOM     21  C   UNL     1       2.289  -1.346   0.000  0.00  0.00    +0.000 A 
ATOM     22  C   UNL     1       2.702  -0.631   0.000  0.00  0.00    +0.000 A 
ATOM     23  C   UNL     1       3.527  -0.631   0.000  0.00  0.00    +0.000 A 
ATOM     24  C   UNL     1       3.939  -1.346   0.000  0.00  0.00    +0.000 A 
ATOM     25  C   UNL     1       3.527  -2.061   0.000  0.00  0.00    +0.000 A 
ATOM     26  C   UNL     1       2.702  -2.061   0.000  0.00  0.00    +0.000 A 
ENDBRANCH  20  21
ENDBRANCH  19  20
ENDBRANCH   1  19
BRANCH   1  27
ATOM     27  C   UNL     1      -0.185  -1.346   0.000  0.00  0.00    +0.000 C 
BRANCH  27  28
ATOM     28  O   UNL     1      -1.010  -1.346   0.000  0.00  0.00    +0.000 OA
BRANCH  28  29
ATOM     29  C   UNL     1      -1.423  -2.061   0.000  0.00  0.00    +0.000 C 
BRANCH  29  30
ATOM     30  C   UNL     1      -1.010  -2.775   0.000  0.00  0.00    +0.000 A 
ATOM     31  C   UNL     1      -0.185  -2.775   0.000  0.00  0.00    +0.000 A 
ATOM     32  C   UNL     1       0.227  -3.489   0.000  0.00  0.00    +0.000 A 
ATOM     33  C   UNL     1      -0.185  -4.204   0.000  0.00  0.00    +0.000 A 
ATOM     34  C   UNL     1      -1.010  -4.204   0.000  0.00  0.00    +0.000 A 
ATOM     35  C   UNL     1      -1.423  -3.489   0.000  0.00  0.00    +0.000 A 
ENDBRANCH  29  30
ENDBRANCH  28  29
ENDBRANCH  27  28
ENDBRANCH   1  27
TORSDOF 13
