REMARK  Name = 
REMARK  16 active torsions:
REMARK  status: ('A' for Active; 'I' for Inactive)
REMARK    1  A    between atoms: C_2  and  C_27
REMARK    2  A    between atoms: C_27  and  C_29
REMARK    3  A    between atoms: C_29  and  C_30
REMARK    4  A    between atoms: C_30  and  C_31
REMARK    5  A    between atoms: C_31  and  O_33
REMARK    6  A    between atoms: O_33  and  C_34
REMARK    7  A    between atoms: C_37  and  C_38
REMARK    8  A    between atoms: C_39  and  C_40
REMARK    9  A    between atoms: C_40  and  O_42
REMARK   10  A    between atoms: O_42  and  C_43
REMARK   11  A    between atoms: C_43  and  C_44
REMARK   12  A    between atoms: C_44  and  C_45
REMARK   13  A    between atoms: C_45  and  C_46
REMARK   14  A    between atoms: C_46  and  O_47
REMARK   15  A    between atoms: O_47  and  N_48
REMARK   16  A    between atoms: C_52  and  O_53
REMARK                            x       y       z     vdW  Elec       q    Type
REMARK                         _______ _______ _______ _____ _____    ______ ____
ROOT
ATOM      1  C   UNL     1       4.245  -9.611   0.000  0.00  0.00    +0.000 C 
ENDROOT
BRANCH   1   2
ATOM      2  C   UNL     1       4.959  -9.198   0.000  0.00  0.00    +0.000 C 
ATOM      3  O   UNL     1       5.674  -9.611   0.000  0.00  0.00    +0.000 OA
BRANCH   2   4
ATOM      4  O   UNL     1       4.959  -8.373   0.000  0.00  0.00    +0.000 OA
BRANCH   4   5
ATOM      5  C   UNL     1       5.674  -7.961   0.000  0.00  0.00    +0.000 A 
ATOM      6  C   UNL     1       5.674  -7.136   0.000  0.00  0.00    +0.000 A 
ATOM      7  C   UNL     1       6.388  -6.723   0.000  0.00  0.00    +0.000 A 
ATOM      8  C   UNL     1       7.103  -7.136   0.000  0.00  0.00    +0.000 A 
ATOM      9  C   UNL     1       7.103  -7.961   0.000  0.00  0.00    +0.000 A 
ATOM     10  C   UNL     1       6.388  -8.373   0.000  0.00  0.00    +0.000 A 
BRANCH  10  11
ATOM     11  O   UNL     1       6.388  -9.198   0.000  0.00  0.00    +0.000 OA
ATOM     12  C   UNL     1       7.103  -9.611   0.000  0.00  0.00    +0.000 C 
ENDBRANCH  10  11
BRANCH   8  13
ATOM     13  C   UNL     1       7.817  -6.723   0.000  0.00  0.00    +0.000 C 
ATOM     14  C   UNL     1       8.532  -7.136   0.000  0.00  0.00    +0.000 C 
BRANCH  14  15
ATOM     15  C   UNL     1       9.246  -6.723   0.000  0.00  0.00    +0.000 C 
ATOM     16  O   UNL     1       9.246  -5.898   0.000  0.00  0.00    +0.000 OA
BRANCH  15  17
ATOM     17  O   UNL     1       9.961  -7.136   0.000  0.00  0.00    +0.000 OA
BRANCH  17  18
ATOM     18  C   UNL     1      10.675  -6.723   0.000  0.00  0.00    +0.000 C 
BRANCH  18  19
ATOM     19  C   UNL     1      11.390  -7.136   0.000  0.00  0.00    +0.000 C 
BRANCH  19  20
ATOM     20  C   UNL     1      12.104  -6.723   0.000  0.00  0.00    +0.000 C 
BRANCH  20  21
ATOM     21  C   UNL     1      12.819  -7.136   0.000  0.00  0.00    +0.000 C 
BRANCH  21  22
ATOM     22  O   UNL     1      13.533  -6.723   0.000  0.00  0.00    +0.000 OA
BRANCH  22  23
ATOM     23  N   UNL     1      14.248  -7.136   0.000  0.00  0.00    +0.000 N 
ATOM     24  O   UNL     1      14.962  -6.723   0.000  0.00  0.00    +0.000 OA
ATOM     25  O   UNL     1      14.248  -7.961   0.000  0.00  0.00    +0.000 OA
ENDBRANCH  22  23
ENDBRANCH  21  22
ENDBRANCH  20  21
ENDBRANCH  19  20
ENDBRANCH  18  19
ENDBRANCH  17  18
ENDBRANCH  15  17
ENDBRANCH  14  15
ENDBRANCH   8  13
ENDBRANCH   4   5
ENDBRANCH   2   4
ENDBRANCH   1   2
BRANCH   1  26
ATOM     26  C   UNL     1       4.245 -10.436   0.000  0.00  0.00    +0.000 C 
BRANCH  26  27
ATOM     27  C   UNL     1       3.530 -10.848   0.000  0.00  0.00    +0.000 C 
ATOM     28  C   UNL     1       2.816 -10.436   0.000  0.00  0.00    +0.000 C 
BRANCH  27  29
ATOM     29  C   UNL     1       3.530 -11.673   0.000  0.00  0.00    +0.000 C 
ATOM     30  C   UNL     1       4.198 -12.158   0.000  0.00  0.00    +0.000 C 
ATOM     31  C   UNL     1       3.943 -12.943   0.000  0.00  0.00    +0.000 C 
ATOM     32  C   UNL     1       3.118 -12.943   0.000  0.00  0.00    +0.000 C 
ATOM     33  C   UNL     1       2.566 -13.556   0.000  0.00  0.00    +0.000 C 
ATOM     34  C   UNL     1       2.821 -14.341   0.000  0.00  0.00    +0.000 C 
ATOM     35  O   UNL     1       3.628 -14.512   0.000  0.00  0.00    +0.000 OA
ATOM     36  C   UNL     1       2.269 -14.954   0.000  0.00  0.00    +0.000 C 
ATOM     37  C   UNL     1       1.462 -14.782   0.000  0.00  0.00    +0.000 C 
ATOM     38  C   UNL     1       0.910 -15.395   0.000  0.00  0.00    +0.000 C 
ATOM     39  C   UNL     1       0.103 -15.224   0.000  0.00  0.00    +0.000 C 
ATOM     40  O   UNL     1      -0.449 -15.837   0.000  0.00  0.00    +0.000 OA
ATOM     41  C   UNL     1      -0.152 -14.439   0.000  0.00  0.00    +0.000 C 
ATOM     42  C   UNL     1       0.400 -13.826   0.000  0.00  0.00    +0.000 C 
ATOM     43  C   UNL     1       1.207 -13.998   0.000  0.00  0.00    +0.000 C 
ATOM     44  C   UNL     1       0.952 -13.213   0.000  0.00  0.00    +0.000 C 
ATOM     45  C   UNL     1       1.759 -13.384   0.000  0.00  0.00    +0.000 C 
ATOM     46  C   UNL     1       1.504 -12.600   0.000  0.00  0.00    +0.000 C 
ATOM     47  C   UNL     1       2.056 -11.987   0.000  0.00  0.00    +0.000 C 
ATOM     48  C   UNL     1       2.863 -12.158   0.000  0.00  0.00    +0.000 C 
ATOM     49  C   UNL     1       2.692 -11.351   0.000  0.00  0.00    +0.000 C 
ENDBRANCH  27  29
ENDBRANCH  26  27
ENDBRANCH   1  26
TORSDOF 16
