REMARK  Name = 
REMARK  2 active torsions:
REMARK  status: ('A' for Active; 'I' for Inactive)
REMARK    1  A    between atoms: N_3  and  C_9
REMARK    2  A    between atoms: C_4  and  C_9
REMARK                            x       y       z     vdW  Elec       q    Type
REMARK                         _______ _______ _______ _____ _____    ______ ____
ROOT
ATOM      1  S   UNL     1      -0.864  -0.308   0.000  0.00  0.00    +0.000 S 
ATOM      2  O   UNL     1       1.346  -0.559   0.000  0.00  0.00    +0.000 OA
ATOM      3  C   UNL     1       0.631  -0.146   0.000  0.00  0.00    +0.000 C 
ATOM      4  C   UNL     1      -0.083  -0.559   0.000  0.00  0.00    +0.000 A 
ATOM      5  C   UNL     1      -0.083  -1.384   0.000  0.00  0.00    +0.000 A 
ATOM      6  C   UNL     1       0.631  -1.797   0.000  0.00  0.00    +0.000 C 
ATOM      7  C   UNL     1       1.346  -1.384   0.000  0.00  0.00    +0.000 C 
ATOM      8  C   UNL     1      -0.864  -1.636   0.000  0.00  0.00    +0.000 A 
ATOM      9  C   UNL     1      -1.346  -0.972   0.000  0.00  0.00    +0.000 A 
ENDROOT
BRANCH   3  10
ATOM     10  C   UNL     1       0.631   0.679   0.000  0.00  0.00    +0.000 C 
BRANCH  10  11
ATOM     11  N   UNL     1       1.346   1.091   0.000  0.00  0.00    +0.000 NA
ATOM     12  C   UNL     1       1.346   1.916   0.000  0.00  0.00    +0.000 C 
ENDBRANCH  10  11
ENDBRANCH   3  10
TORSDOF 2
