REMARK  Name = 
REMARK  1 active torsions:
REMARK  status: ('A' for Active; 'I' for Inactive)
REMARK    1  A    between atoms: C_14  and  O_18
REMARK                            x       y       z     vdW  Elec       q    Type
REMARK                         _______ _______ _______ _____ _____    ______ ____
ROOT
ATOM      1  C   UNL     1       0.838  -0.712   0.000  0.00  0.00    +0.000 C 
ATOM      2  C   UNL     1       0.021  -0.719   0.000  0.00  0.00    +0.000 A 
ATOM      3  C   UNL     1       1.192  -0.054   0.000  0.00  0.00    +0.000 C 
ATOM      4  C   UNL     1       1.754  -0.404   0.000  0.00  0.00    +0.000 C 
ATOM      5  C   UNL     1       1.174  -1.475   0.000  0.00  0.00    +0.000 C 
ATOM      6  C   UNL     1      -0.394  -0.071   0.000  0.00  0.00    +0.000 A 
ATOM      7  C   UNL     1      -0.394  -1.446   0.000  0.00  0.00    +0.000 A 
ATOM      8  C   UNL     1       0.813   0.659   0.000  0.00  0.00    +0.000 C 
ATOM      9  C   UNL     1       2.040  -0.054   0.000  0.00  0.00    +0.000 C 
ATOM     10  C   UNL     1       1.754   0.984   0.000  0.00  0.00    +0.000 C 
ATOM     11  C   UNL     1       2.055  -1.475   0.000  0.00  0.00    +0.000 C 
ATOM     12  C   UNL     1       0.007   0.644   0.000  0.00  0.00    +0.000 C 
ATOM     13  C   UNL     1      -1.181  -0.071   0.000  0.00  0.00    +0.000 A 
ATOM     14  C   UNL     1      -1.231  -1.460   0.000  0.00  0.00    +0.000 A 
ATOM     15  N   UNL     1       0.891   1.378   0.000  0.00  0.00    +0.000 NA
ATOM     16  C   UNL     1       2.491  -0.745   0.000  0.00  0.00    +0.000 C 
ATOM     17  C   UNL     1      -1.639  -0.745   0.000  0.00  0.00    +0.000 A 
ATOM     18  C   UNL     1       0.616   2.183   0.000  0.00  0.00    +0.000 C 
ENDROOT
BRANCH  14  19
ATOM     19  O   UNL     1      -1.657  -2.183   0.000  0.00  0.00    +0.000 OA
ATOM     20  C   UNL     1      -2.491  -2.183   0.000  0.00  0.00    +0.000 C 
ENDBRANCH  14  19
TORSDOF 1
