REMARK  Name = 
REMARK  9 active torsions:
REMARK  status: ('A' for Active; 'I' for Inactive)
REMARK    1  A    between atoms: P_4  and  N_15
REMARK    2  A    between atoms: C_7  and  S_8
REMARK    3  A    between atoms: S_8  and  C_9
REMARK    4  A    between atoms: C_9  and  C_10
REMARK    5  A    between atoms: C_10  and  S_11
REMARK    6  A    between atoms: N_15  and  C_16
REMARK    7  A    between atoms: N_15  and  C_19
REMARK    8  A    between atoms: C_16  and  C_17
REMARK    9  A    between atoms: C_19  and  C_20
REMARK                            x       y       z     vdW  Elec       q    Type
REMARK                         _______ _______ _______ _____ _____    ______ ____
ROOT
ATOM      1  C   UNL     1       3.268  -0.050   0.000  0.00  0.00    +0.000 C 
ATOM      2  C   UNL     1       2.455  -0.193   0.000  0.00  0.00    +0.000 C 
ATOM      3  O   UNL     1       1.925   0.439   0.000  0.00  0.00    +0.000 OA
ATOM      4  P   UNL     1       2.207   1.214   0.000  0.00  0.00    +0.000 P 
ATOM      5  O   UNL     1       1.395   1.357   0.000  0.00  0.00    +0.000 OA
ATOM      6  N   UNL     1       3.020   1.357   0.000  0.00  0.00    +0.000 NA
ATOM      7  C   UNL     1       3.550   0.726   0.000  0.00  0.00    +0.000 C 
ENDROOT
BRANCH   7   8
ATOM      8  S   UNL     1       4.363   0.869   0.000  0.00  0.00    +0.000 S 
BRANCH   8   9
ATOM      9  C   UNL     1       4.893   0.237   0.000  0.00  0.00    +0.000 C 
BRANCH   9  10
ATOM     10  C   UNL     1       5.705   0.380   0.000  0.00  0.00    +0.000 C 
BRANCH  10  11
ATOM     11  S   UNL     1       6.236  -0.252   0.000  0.00  0.00    +0.000 S 
ATOM     12  O   UNL     1       6.766  -0.884   0.000  0.00  0.00    +0.000 OA
ATOM     13  O   UNL     1       6.868   0.278   0.000  0.00  0.00    +0.000 OA
ATOM     14  O   UNL     1       5.604  -0.782   0.000  0.00  0.00    +0.000 OA
ENDBRANCH  10  11
ENDBRANCH   9  10
ENDBRANCH   8   9
ENDBRANCH   7   8
BRANCH   4  15
ATOM     15  N   UNL     1       2.207   2.039   0.000  0.00  0.00    +0.000 NA
BRANCH  15  16
ATOM     16  C   UNL     1       1.493   2.452   0.000  0.00  0.00    +0.000 C 
BRANCH  16  17
ATOM     17  C   UNL     1       1.493   3.277   0.000  0.00  0.00    +0.000 C 
ATOM     18 CL   UNL     1       0.778   3.689   0.000  0.00  0.00    +0.000 Cl
ENDBRANCH  16  17
ENDBRANCH  15  16
BRANCH  15  19
ATOM     19  C   UNL     1       2.922   2.452   0.000  0.00  0.00    +0.000 C 
BRANCH  19  20
ATOM     20  C   UNL     1       2.922   3.277   0.000  0.00  0.00    +0.000 C 
ATOM     21 CL   UNL     1       3.636   3.689   0.000  0.00  0.00    +0.000 Cl
ENDBRANCH  19  20
ENDBRANCH  15  19
ENDBRANCH   4  15
TORSDOF 9
