REMARK  Name = 
REMARK  11 active torsions:
REMARK  status: ('A' for Active; 'I' for Inactive)
REMARK    1  A    between atoms: C_10  and  O_11
REMARK    2  A    between atoms: O_11  and  C_12
REMARK    3  A    between atoms: C_12  and  C_14
REMARK    4  A    between atoms: C_14  and  C_15
REMARK    5  A    between atoms: C_15  and  C_16
REMARK    6  A    between atoms: C_16  and  C_17
REMARK    7  A    between atoms: C_17  and  C_18
REMARK    8  A    between atoms: C_18  and  C_19
REMARK    9  A    between atoms: C_19  and  C_20
REMARK   10  A    between atoms: C_20  and  C_21
REMARK   11  A    between atoms: C_21  and  C_22
REMARK                            x       y       z     vdW  Elec       q    Type
REMARK                         _______ _______ _______ _____ _____    ______ ____
ROOT
ATOM      1  C   UNL     1       4.137  -1.143   0.000  0.00  0.00    +0.000 C 
ATOM      2  C   UNL     1       3.524  -1.695   0.000  0.00  0.00    +0.000 C 
ATOM      3  C   UNL     1       3.269  -0.910   0.000  0.00  0.00    +0.000 C 
ATOM      4  C   UNL     1       2.462  -0.739   0.000  0.00  0.00    +0.000 C 
ATOM      5  C   UNL     1       1.910  -1.352   0.000  0.00  0.00    +0.000 C 
ATOM      6  C   UNL     1       2.165  -2.136   0.000  0.00  0.00    +0.000 C 
ATOM      7  C   UNL     1       2.972  -2.308   0.000  0.00  0.00    +0.000 C 
ATOM      8  C   UNL     1       3.385  -3.022   0.000  0.00  0.00    +0.000 C 
ATOM      9  C   UNL     1       4.192  -2.851   0.000  0.00  0.00    +0.000 C 
ATOM     10  C   UNL     1       4.278  -2.030   0.000  0.00  0.00    +0.000 C 
ATOM     11  C   UNL     1       1.613  -2.750   0.000  0.00  0.00    +0.000 C 
ATOM     12  C   UNL     1       0.806  -2.578   0.000  0.00  0.00    +0.000 C 
ATOM     13  C   UNL     1       0.551  -1.794   0.000  0.00  0.00    +0.000 C 
ATOM     14  C   UNL     1      -0.256  -1.622   0.000  0.00  0.00    +0.000 C 
ATOM     15  C   UNL     1      -0.511  -0.837   0.000  0.00  0.00    +0.000 C 
ATOM     16  O   UNL     1      -1.318  -0.666   0.000  0.00  0.00    +0.000 OA
ATOM     17  C   UNL     1       0.041  -0.224   0.000  0.00  0.00    +0.000 C 
ATOM     18  C   UNL     1       0.848  -0.396   0.000  0.00  0.00    +0.000 C 
ATOM     19  C   UNL     1       1.103  -1.180   0.000  0.00  0.00    +0.000 C 
ATOM     20  C   UNL     1       1.655  -0.567   0.000  0.00  0.00    +0.000 C 
ENDROOT
BRANCH  10  21
ATOM     21  O   UNL     1       4.992  -1.618   0.000  0.00  0.00    +0.000 OA
BRANCH  21  22
ATOM     22  C   UNL     1       5.707  -2.030   0.000  0.00  0.00    +0.000 C 
ATOM     23  O   UNL     1       5.707  -2.856   0.000  0.00  0.00    +0.000 OA
BRANCH  22  24
ATOM     24  C   UNL     1       6.421  -1.618   0.000  0.00  0.00    +0.000 C 
BRANCH  24  25
ATOM     25  C   UNL     1       7.136  -2.030   0.000  0.00  0.00    +0.000 C 
BRANCH  25  26
ATOM     26  C   UNL     1       7.850  -1.618   0.000  0.00  0.00    +0.000 C 
BRANCH  26  27
ATOM     27  C   UNL     1       8.565  -2.030   0.000  0.00  0.00    +0.000 C 
BRANCH  27  28
ATOM     28  C   UNL     1       9.279  -1.618   0.000  0.00  0.00    +0.000 C 
BRANCH  28  29
ATOM     29  C   UNL     1       9.994  -2.030   0.000  0.00  0.00    +0.000 C 
BRANCH  29  30
ATOM     30  C   UNL     1      10.708  -1.618   0.000  0.00  0.00    +0.000 C 
BRANCH  30  31
ATOM     31  C   UNL     1      11.423  -2.030   0.000  0.00  0.00    +0.000 C 
BRANCH  31  32
ATOM     32  C   UNL     1      12.137  -1.618   0.000  0.00  0.00    +0.000 C 
ATOM     33  C   UNL     1      12.852  -2.030   0.000  0.00  0.00    +0.000 C 
ENDBRANCH  31  32
ENDBRANCH  30  31
ENDBRANCH  29  30
ENDBRANCH  28  29
ENDBRANCH  27  28
ENDBRANCH  26  27
ENDBRANCH  25  26
ENDBRANCH  24  25
ENDBRANCH  22  24
ENDBRANCH  21  22
ENDBRANCH  10  21
TORSDOF 11
