REMARK  Name = 
REMARK  5 active torsions:
REMARK  status: ('A' for Active; 'I' for Inactive)
REMARK    1  A    between atoms: C_2  and  C_4
REMARK    2  A    between atoms: C_7  and  C_9
REMARK    3  A    between atoms: C_11  and  N_13
REMARK    4  A    between atoms: C_14  and  C_16
REMARK    5  A    between atoms: C_18  and  C_21
REMARK                            x       y       z     vdW  Elec       q    Type
REMARK                         _______ _______ _______ _____ _____    ______ ____
ROOT
ATOM      1  N   UNL     1      -0.675  -6.476   0.000  0.00  0.00    +0.000 NA
ATOM      2  C   UNL     1       0.039  -6.888   0.000  0.00  0.00    +0.000 C 
ATOM      3  O   UNL     1       0.754  -6.476   0.000  0.00  0.00    +0.000 OA
ENDROOT
BRANCH   2   4
ATOM      4  C   UNL     1       0.039  -7.713   0.000  0.00  0.00    +0.000 A 
ATOM      5  C   UNL     1       0.707  -8.198   0.000  0.00  0.00    +0.000 A 
ATOM      6  C   UNL     1       0.452  -8.983   0.000  0.00  0.00    +0.000 A 
ATOM      7  N   UNL     1      -0.373  -8.983   0.000  0.00  0.00    +0.000 NA
ATOM      8  O   UNL     1      -0.628  -8.198   0.000  0.00  0.00    +0.000 OA
BRANCH   6   9
ATOM      9  C   UNL     1       0.937  -9.650   0.000  0.00  0.00    +0.000 A 
ATOM     10  C   UNL     1       1.757  -9.564   0.000  0.00  0.00    +0.000 A 
ATOM     11  C   UNL     1       2.242 -10.232   0.000  0.00  0.00    +0.000 A 
ATOM     12  C   UNL     1       1.907 -10.985   0.000  0.00  0.00    +0.000 A 
ATOM     13  C   UNL     1       1.086 -11.072   0.000  0.00  0.00    +0.000 A 
ATOM     14  C   UNL     1       0.601 -10.404   0.000  0.00  0.00    +0.000 A 
ENDBRANCH   6   9
ENDBRANCH   2   4
BRANCH   1  17
ATOM     15  C   UNL     1      -0.675  -4.484   0.000  0.00  0.00    +0.000 C 
ATOM     16  C   UNL     1      -0.092  -5.067   0.000  0.00  0.00    +0.000 C 
ATOM     17  C   UNL     1      -0.675  -5.651   0.000  0.00  0.00    +0.000 C 
ATOM     18  C   UNL     1      -1.259  -5.067   0.000  0.00  0.00    +0.000 C 
BRANCH  15  22
ATOM     19  C   UNL     1      -1.088  -2.390   0.000  0.00  0.00    +0.000 A 
ATOM     20  N   UNL     1      -0.263  -2.390   0.000  0.00  0.00    +0.000 NA
ATOM     21  N   UNL     1      -0.008  -3.174   0.000  0.00  0.00    +0.000 NA
ATOM     22  C   UNL     1      -0.675  -3.659   0.000  0.00  0.00    +0.000 A 
ATOM     23  O   UNL     1      -1.343  -3.174   0.000  0.00  0.00    +0.000 OA
BRANCH  19  25
ATOM     24  C   UNL     1      -1.237  -0.969   0.000  0.00  0.00    +0.000 C 
ATOM     25  C   UNL     1      -1.573  -1.722   0.000  0.00  0.00    +0.000 C 
ATOM     26  O   UNL     1      -2.393  -1.808   0.000  0.00  0.00    +0.000 OA
ENDBRANCH  19  25
ENDBRANCH  15  22
ENDBRANCH   1  17
TORSDOF 5
