REMARK  Name = 
REMARK  4 active torsions:
REMARK  status: ('A' for Active; 'I' for Inactive)
REMARK    1  A    between atoms: C_1  and  C_3
REMARK    2  A    between atoms: C_3  and  O_8
REMARK    3  A    between atoms: C_5  and  C_6
REMARK    4  A    between atoms: C_7  and  O_8
REMARK                            x       y       z     vdW  Elec       q    Type
REMARK                         _______ _______ _______ _____ _____    ______ ____
ROOT
ATOM      1  C   UNL     1      -0.723  -0.211   0.000  0.00  0.00    +0.000 A 
ATOM      2  C   UNL     1      -0.012   0.207   0.000  0.00  0.00    +0.000 A 
ATOM      3  C   UNL     1      -0.723  -1.048   0.000  0.00  0.00    +0.000 A 
ATOM      4  C   UNL     1       0.699  -0.211   0.000  0.00  0.00    +0.000 A 
ATOM      5  C   UNL     1      -0.012  -1.462   0.000  0.00  0.00    +0.000 A 
ATOM      6  C   UNL     1       0.699  -1.048   0.000  0.00  0.00    +0.000 A 
ENDROOT
BRANCH   1   7
ATOM      7  C   UNL     1      -1.435   0.207   0.000  0.00  0.00    +0.000 C 
ATOM      8  O   UNL     1      -1.435   1.044   0.000  0.00  0.00    +0.000 OA
ATOM      9  N   UNL     1      -2.141  -0.211   0.000  0.00  0.00    +0.000 NA
ENDBRANCH   1   7
BRANCH   2  10
ATOM     10  O   UNL     1      -0.012   1.044   0.000  0.00  0.00    +0.000 OA
BRANCH  10  11
ATOM     11  C   UNL     1       0.703   1.462   0.000  0.00  0.00    +0.000 C 
BRANCH  11  12
ATOM     12  C   UNL     1       1.423   1.044   0.000  0.00  0.00    +0.000 C 
ATOM     13  O   UNL     1       1.427   0.219   0.000  0.00  0.00    +0.000 OA
ATOM     14  O   UNL     1       2.141   1.449   0.000  0.00  0.00    +0.000 OA
ENDBRANCH  11  12
ENDBRANCH  10  11
ENDBRANCH   2  10
TORSDOF 4
