REMARK  Name = 
REMARK  5 active torsions:
REMARK  status: ('A' for Active; 'I' for Inactive)
REMARK    1  A    between atoms: C_9  and  N_11
REMARK    2  A    between atoms: N_22  and  C_23
REMARK    3  A    between atoms: C_23  and  C_24
REMARK    4  A    between atoms: C_23  and  C_28
REMARK    5  A    between atoms: C_24  and  N_25
REMARK                            x       y       z     vdW  Elec       q    Type
REMARK                         _______ _______ _______ _____ _____    ______ ____
ROOT
ATOM      1  N   UNL     1       2.994   1.926   0.000  0.00  0.00    +0.000 NA
ATOM      2  C   UNL     1       3.249   1.141   0.000  0.00  0.00    +0.000 A 
ATOM      3  C   UNL     1       4.033   0.887   0.000  0.00  0.00    +0.000 A 
ATOM      4  C   UNL     1       4.033   0.062   0.000  0.00  0.00    +0.000 A 
ATOM      5  N   UNL     1       3.249  -0.193   0.000  0.00  0.00    +0.000 NA
ATOM      6  N   UNL     1       2.764   0.474   0.000  0.00  0.00    +0.000 NA
ATOM      7  C   UNL     1       4.818  -0.193   0.000  0.00  0.00    +0.000 C 
ATOM      8  N   UNL     1       5.303   0.474   0.000  0.00  0.00    +0.000 N 
ATOM      9  C   UNL     1       4.818   1.141   0.000  0.00  0.00    +0.000 C 
ATOM     10  C   UNL     1       6.128   0.474   0.000  0.00  0.00    +0.000 C 
ATOM     11  O   UNL     1       6.540  -0.240   0.000  0.00  0.00    +0.000 OA
ATOM     12  N   UNL     1       6.540   1.189   0.000  0.00  0.00    +0.000 NA
ATOM     13  C   UNL     1       4.655  -1.002   0.000  0.00  0.00    +0.000 C 
ATOM     14  C   UNL     1       5.425  -0.752   0.000  0.00  0.00    +0.000 C 
ENDROOT
BRANCH   1  23
ATOM     15  C   UNL     1       0.276   1.043   0.000  0.00  0.00    +0.000 C 
ATOM     16  C   UNL     1       0.828   1.656   0.000  0.00  0.00    +0.000 A 
ATOM     17  N   UNL     1       0.573   2.441   0.000  0.00  0.00    +0.000 NA
ATOM     18  C   UNL     1       1.125   3.054   0.000  0.00  0.00    +0.000 A 
ATOM     19  C   UNL     1       1.039   3.874   0.000  0.00  0.00    +0.000 A 
ATOM     20  C   UNL     1       1.792   4.210   0.000  0.00  0.00    +0.000 A 
ATOM     21  S   UNL     1       2.344   3.597   0.000  0.00  0.00    +0.000 S 
ATOM     22  C   UNL     1       1.932   2.882   0.000  0.00  0.00    +0.000 A 
ATOM     23  C   UNL     1       2.187   2.098   0.000  0.00  0.00    +0.000 A 
ATOM     24  N   UNL     1       1.635   1.485   0.000  0.00  0.00    +0.000 NA
ENDBRANCH   1  23
BRANCH  12  25
ATOM     25  C   UNL     1       7.365   1.189   0.000  0.00  0.00    +0.000 C 
BRANCH  25  26
ATOM     26  C   UNL     1       7.778   1.903   0.000  0.00  0.00    +0.000 A 
ATOM     27  C   UNL     1       7.365   2.618   0.000  0.00  0.00    +0.000 A 
ATOM     28  C   UNL     1       7.778   3.332   0.000  0.00  0.00    +0.000 A 
ATOM     29  C   UNL     1       8.603   3.332   0.000  0.00  0.00    +0.000 A 
ATOM     30  C   UNL     1       9.015   2.618   0.000  0.00  0.00    +0.000 A 
ATOM     31  C   UNL     1       8.603   1.903   0.000  0.00  0.00    +0.000 A 
ENDBRANCH  25  26
BRANCH  25  32
ATOM     32  C   UNL     1       7.778   0.474   0.000  0.00  0.00    +0.000 C 
BRANCH  32  33
ATOM     33  N   UNL     1       7.365  -0.240   0.000  0.00  0.00    +0.000 NA
ATOM     34  C   UNL     1       6.698  -0.725   0.000  0.00  0.00    +0.000 C 
ATOM     35  C   UNL     1       7.778  -0.955   0.000  0.00  0.00    +0.000 C 
ENDBRANCH  32  33
ENDBRANCH  25  32
ENDBRANCH  12  25
TORSDOF 5
