REMARK  Name = 
REMARK  6 active torsions:
REMARK  status: ('A' for Active; 'I' for Inactive)
REMARK    1  A    between atoms: C_2  and  C_3
REMARK    2  A    between atoms: C_2  and  N_13
REMARK    3  A    between atoms: C_3  and  C_4
REMARK    4  A    between atoms: N_13  and  C_14
REMARK    5  A    between atoms: C_14  and  C_15
REMARK    6  A    between atoms: C_15  and  C_17
REMARK                            x       y       z     vdW  Elec       q    Type
REMARK                         _______ _______ _______ _____ _____    ______ ____
ROOT
ATOM      1  C   UNL     1      -0.437  -0.412   0.000  0.00  0.00    +0.000 C 
ATOM      2  C   UNL     1      -0.437   0.412   0.000  0.00  0.00    +0.000 C 
ENDROOT
BRANCH   2   3
ATOM      3  C   UNL     1      -1.151   0.825   0.000  0.00  0.00    +0.000 C 
BRANCH   3   4
ATOM      4  C   UNL     1      -1.866   0.412   0.000  0.00  0.00    +0.000 A 
ATOM      5  C   UNL     1      -1.866  -0.412   0.000  0.00  0.00    +0.000 A 
ATOM      6  C   UNL     1      -2.580  -0.825   0.000  0.00  0.00    +0.000 A 
ATOM      7  C   UNL     1      -3.295  -0.412   0.000  0.00  0.00    +0.000 A 
ATOM      8  O   UNL     1      -4.079  -0.667   0.000  0.00  0.00    +0.000 OA
ATOM      9  C   UNL     1      -4.564   0.000   0.000  0.00  0.00    +0.000 C 
ATOM     10  O   UNL     1      -4.079   0.667   0.000  0.00  0.00    +0.000 OA
ATOM     11  C   UNL     1      -3.295   0.412   0.000  0.00  0.00    +0.000 A 
ATOM     12  C   UNL     1      -2.580   0.825   0.000  0.00  0.00    +0.000 A 
ENDBRANCH   3   4
ENDBRANCH   2   3
BRANCH   2  13
ATOM     13  N   UNL     1       0.278   0.825   0.000  0.00  0.00    +0.000 NA
BRANCH  13  14
ATOM     14  C   UNL     1       0.992   0.412   0.000  0.00  0.00    +0.000 C 
BRANCH  14  15
ATOM     15  C   UNL     1       1.706   0.825   0.000  0.00  0.00    +0.000 C 
ATOM     16  O   UNL     1       1.706   1.650   0.000  0.00  0.00    +0.000 OA
BRANCH  15  17
ATOM     17  C   UNL     1       2.421   0.412   0.000  0.00  0.00    +0.000 A 
ATOM     18  C   UNL     1       3.135   0.825   0.000  0.00  0.00    +0.000 A 
ATOM     19  C   UNL     1       3.850   0.412   0.000  0.00  0.00    +0.000 A 
ATOM     20  C   UNL     1       3.850  -0.412   0.000  0.00  0.00    +0.000 A 
ATOM     21  O   UNL     1       4.564  -0.825   0.000  0.00  0.00    +0.000 OA
ATOM     22  C   UNL     1       3.135  -0.825   0.000  0.00  0.00    +0.000 A 
ATOM     23  O   UNL     1       3.135  -1.650   0.000  0.00  0.00    +0.000 OA
ATOM     24  C   UNL     1       2.421  -0.412   0.000  0.00  0.00    +0.000 A 
ENDBRANCH  15  17
ENDBRANCH  14  15
ENDBRANCH  13  14
ENDBRANCH   2  13
TORSDOF 6
