REMARK  Name = 
REMARK  11 active torsions:
REMARK  status: ('A' for Active; 'I' for Inactive)
REMARK    1  A    between atoms: C_5  and  N_6
REMARK    2  A    between atoms: N_6  and  C_7
REMARK    3  A    between atoms: N_10  and  C_11
REMARK    4  A    between atoms: C_11  and  C_12
REMARK    5  A    between atoms: N_16  and  C_17
REMARK    6  A    between atoms: C_17  and  C_18
REMARK    7  A    between atoms: C_18  and  N_20
REMARK    8  A    between atoms: N_23  and  S_26
REMARK    9  A    between atoms: C_30  and  C_35
REMARK   10  A    between atoms: C_41  and  C_42
REMARK   11  A    between atoms: C_42  and  C_43
REMARK                            x       y       z     vdW  Elec       q    Type
REMARK                         _______ _______ _______ _____ _____    ______ ____
ROOT
ATOM      1  C   UNL     1       8.995  -8.662   0.000  0.00  0.00    +0.000 A 
ATOM      2  C   UNL     1       9.709  -9.075   0.000  0.00  0.00    +0.000 A 
ATOM      3  C   UNL     1       9.709  -9.900   0.000  0.00  0.00    +0.000 A 
ATOM      4  C   UNL     1       8.995 -10.312   0.000  0.00  0.00    +0.000 A 
ATOM      5  N   UNL     1       8.823 -11.120   0.000  0.00  0.00    +0.000 N 
ATOM      6  C   UNL     1       8.003 -11.206   0.000  0.00  0.00    +0.000 A 
ATOM      7  C   UNL     1       7.667 -10.452   0.000  0.00  0.00    +0.000 A 
ATOM      8  C   UNL     1       8.280  -9.900   0.000  0.00  0.00    +0.000 A 
ATOM      9  C   UNL     1       8.280  -9.075   0.000  0.00  0.00    +0.000 A 
ATOM     10  C   UNL     1       7.566  -8.662   0.000  0.00  0.00    +0.000 C 
ENDROOT
BRANCH   6  11
ATOM     11  C   UNL     1       7.590 -11.920   0.000  0.00  0.00    +0.000 C 
ATOM     12  N   UNL     1       7.178 -12.635   0.000  0.00  0.00    +0.000 NA
ENDBRANCH   6  11
BRANCH   1  13
ATOM     13  C   UNL     1       8.995  -7.838   0.000  0.00  0.00    +0.000 C 
BRANCH  13  17
ATOM     14  C   UNL     1       6.851  -6.600   0.000  0.00  0.00    +0.000 C 
ATOM     15  C   UNL     1       7.566  -6.188   0.000  0.00  0.00    +0.000 C 
ATOM     16  C   UNL     1       8.280  -6.600   0.000  0.00  0.00    +0.000 C 
ATOM     17  N   UNL     1       8.280  -7.425   0.000  0.00  0.00    +0.000 NA
ATOM     18  C   UNL     1       7.566  -7.838   0.000  0.00  0.00    +0.000 C 
ATOM     19  C   UNL     1       6.851  -7.425   0.000  0.00  0.00    +0.000 C 
BRANCH  14  20
ATOM     20  N   UNL     1       6.137  -6.188   0.000  0.00  0.00    +0.000 NA
BRANCH  20  25
ATOM     21  C   UNL     1       7.566  -2.888   0.000  0.00  0.00    +0.000 C 
ATOM     22  N   UNL     1       7.566  -3.712   0.000  0.00  0.00    +0.000 NA
ATOM     23  C   UNL     1       6.851  -4.125   0.000  0.00  0.00    +0.000 A 
ATOM     24  N   UNL     1       6.851  -4.950   0.000  0.00  0.00    +0.000 NA
ATOM     25  C   UNL     1       6.137  -5.362   0.000  0.00  0.00    +0.000 A 
ATOM     26  C   UNL     1       5.422  -4.950   0.000  0.00  0.00    +0.000 A 
ATOM     27  C   UNL     1       4.638  -5.205   0.000  0.00  0.00    +0.000 A 
ATOM     28  C   UNL     1       4.153  -4.537   0.000  0.00  0.00    +0.000 A 
ATOM     29  S   UNL     1       4.638  -3.870   0.000  0.00  0.00    +0.000 S 
ATOM     30  C   UNL     1       5.422  -4.125   0.000  0.00  0.00    +0.000 A 
ATOM     31  N   UNL     1       6.137  -3.712   0.000  0.00  0.00    +0.000 NA
BRANCH  28  32
ATOM     32  C   UNL     1       3.328  -4.537   0.000  0.00  0.00    +0.000 C 
BRANCH  32  33
ATOM     33  C   UNL     1       2.915  -3.823   0.000  0.00  0.00    +0.000 C 
ATOM     34  F   UNL     1       2.503  -3.109   0.000  0.00  0.00    +0.000 F 
ATOM     35  F   UNL     1       3.630  -3.410   0.000  0.00  0.00    +0.000 F 
ATOM     36  F   UNL     1       2.201  -4.236   0.000  0.00  0.00    +0.000 F 
ENDBRANCH  32  33
ENDBRANCH  28  32
ENDBRANCH  20  25
ENDBRANCH  14  20
ENDBRANCH  13  17
ENDBRANCH   1  13
BRANCH   5  37
ATOM     37  C   UNL     1       9.375 -11.733   0.000  0.00  0.00    +0.000 C 
BRANCH  37  38
ATOM     38  C   UNL     1       9.120 -12.517   0.000  0.00  0.00    +0.000 C 
ATOM     39  C   UNL     1       8.313 -12.689   0.000  0.00  0.00    +0.000 C 
BRANCH  38  40
ATOM     40  N   UNL     1       9.672 -13.130   0.000  0.00  0.00    +0.000 NA
ATOM     41  C   UNL     1      10.479 -12.959   0.000  0.00  0.00    +0.000 C 
ATOM     42  C   UNL     1      11.031 -13.572   0.000  0.00  0.00    +0.000 C 
ATOM     43  N   UNL     1      10.776 -14.357   0.000  0.00  0.00    +0.000 NA
ATOM     44  C   UNL     1       9.969 -14.528   0.000  0.00  0.00    +0.000 C 
ATOM     45  C   UNL     1       9.417 -13.915   0.000  0.00  0.00    +0.000 C 
BRANCH  43  46
ATOM     46  S   UNL     1      11.328 -14.970   0.000  0.00  0.00    +0.000 S 
ATOM     47  C   UNL     1      11.880 -15.583   0.000  0.00  0.00    +0.000 C 
ATOM     48  O   UNL     1      11.941 -14.418   0.000  0.00  0.00    +0.000 OA
ATOM     49  O   UNL     1      10.715 -15.522   0.000  0.00  0.00    +0.000 OA
ENDBRANCH  43  46
ENDBRANCH  38  40
ENDBRANCH  37  38
ENDBRANCH   5  37
TORSDOF 11
