REMARK  Name = 
REMARK  6 active torsions:
REMARK  status: ('A' for Active; 'I' for Inactive)
REMARK    1  A    between atoms: C_2  and  C_4
REMARK    2  A    between atoms: C_4  and  C_5
REMARK    3  A    between atoms: C_5  and  C_6
REMARK    4  A    between atoms: C_6  and  C_7
REMARK    5  A    between atoms: N_16  and  S_17
REMARK    6  A    between atoms: S_17  and  C_20
REMARK                            x       y       z     vdW  Elec       q    Type
REMARK                         _______ _______ _______ _____ _____    ______ ____
ROOT
ATOM      1  C   UNL     1       3.585  -0.535   0.000  0.00  0.00    +0.000 A 
ATOM      2  C   UNL     1       4.392  -0.707   0.000  0.00  0.00    +0.000 A 
ATOM      3  C   UNL     1       4.805   0.008   0.000  0.00  0.00    +0.000 A 
ATOM      4  C   UNL     1       4.253   0.621   0.000  0.00  0.00    +0.000 A 
ATOM      5  C   UNL     1       4.508   1.406   0.000  0.00  0.00    +0.000 A 
ATOM      6  C   UNL     1       5.315   1.577   0.000  0.00  0.00    +0.000 A 
ATOM      7  C   UNL     1       5.867   0.964   0.000  0.00  0.00    +0.000 A 
ATOM      8 CL   UNL     1       6.674   1.136   0.000  0.00  0.00    +0.000 Cl
ATOM      9  C   UNL     1       5.612   0.179   0.000  0.00  0.00    +0.000 A 
ATOM     10  N   UNL     1       3.499   0.285   0.000  0.00  0.00    +0.000 N 
ENDROOT
BRANCH  10  11
ATOM     11  S   UNL     1       2.784   0.698   0.000  0.00  0.00    +0.000 S 
ATOM     12  O   UNL     1       3.197   1.412   0.000  0.00  0.00    +0.000 OA
ATOM     13  O   UNL     1       2.372  -0.017   0.000  0.00  0.00    +0.000 OA
BRANCH  11  14
ATOM     14  C   UNL     1       2.070   1.110   0.000  0.00  0.00    +0.000 A 
ATOM     15  C   UNL     1       1.356   0.698   0.000  0.00  0.00    +0.000 A 
ATOM     16  C   UNL     1       0.641   1.110   0.000  0.00  0.00    +0.000 A 
ATOM     17  C   UNL     1       0.641   1.935   0.000  0.00  0.00    +0.000 A 
ATOM     18  C   UNL     1       1.356   2.348   0.000  0.00  0.00    +0.000 A 
ATOM     19  C   UNL     1       2.070   1.935   0.000  0.00  0.00    +0.000 A 
ATOM     20  N   UNL     1      -0.143   2.190   0.000  0.00  0.00    +0.000 NA
ATOM     21  C   UNL     1      -0.628   1.523   0.000  0.00  0.00    +0.000 A 
ATOM     22  S   UNL     1      -0.143   0.856   0.000  0.00  0.00    +0.000 S 
ENDBRANCH  11  14
ENDBRANCH  10  11
BRANCH   1  23
ATOM     23  C   UNL     1       2.972  -1.087   0.000  0.00  0.00    +0.000 C 
BRANCH  23  24
ATOM     24  C   UNL     1       3.144  -1.894   0.000  0.00  0.00    +0.000 C 
BRANCH  24  25
ATOM     25  C   UNL     1       2.531  -2.446   0.000  0.00  0.00    +0.000 C 
BRANCH  25  27
ATOM     26  O   UNL     1       2.089  -3.805   0.000  0.00  0.00    +0.000 OA
ATOM     27  C   UNL     1       2.702  -3.253   0.000  0.00  0.00    +0.000 C 
ATOM     28  O   UNL     1       3.487  -3.508   0.000  0.00  0.00    +0.000 OA
ENDBRANCH  25  27
ENDBRANCH  24  25
ENDBRANCH  23  24
ENDBRANCH   1  23
TORSDOF 6
