REMARK  Name = 
REMARK  3 active torsions:
REMARK  status: ('A' for Active; 'I' for Inactive)
REMARK    1  A    between atoms: C_2  and  C_3
REMARK    2  A    between atoms: C_3  and  C_4
REMARK    3  A    between atoms: C_4  and  C_5
REMARK                            x       y       z     vdW  Elec       q    Type
REMARK                         _______ _______ _______ _____ _____    ______ ____
ROOT
ATOM      1  C   UNL     1      -0.357  -0.207   0.000  0.00  0.00    +0.000 C 
ATOM      2  O   UNL     1      -0.361   0.620   0.000  0.00  0.00    +0.000 OA
ENDROOT
BRANCH   1   4
ATOM      3  N   UNL     1      -1.785  -0.207   0.000  0.00  0.00    +0.000 NA
ATOM      4  C   UNL     1      -1.071  -0.620   0.000  0.00  0.00    +0.000 C 
ENDBRANCH   1   4
BRANCH   1   5
ATOM      5  C   UNL     1       0.357  -0.620   0.000  0.00  0.00    +0.000 C 
BRANCH   5   6
ATOM      6  C   UNL     1       1.071  -0.207   0.000  0.00  0.00    +0.000 C 
ATOM      7  O   UNL     1       1.785  -0.620   0.000  0.00  0.00    +0.000 OA
ATOM      8  O   UNL     1       1.067   0.620   0.000  0.00  0.00    +0.000 OA
ENDBRANCH   5   6
ENDBRANCH   1   5
TORSDOF 3
