REMARK  Name = 
REMARK  9 active torsions:
REMARK  status: ('A' for Active; 'I' for Inactive)
REMARK    1  A    between atoms: C_2  and  C_4
REMARK    2  A    between atoms: C_4  and  C_6
REMARK    3  A    between atoms: C_4  and  C_33
REMARK    4  A    between atoms: C_6  and  N_7
REMARK    5  A    between atoms: N_7  and  C_8
REMARK    6  A    between atoms: C_13  and  C_15
REMARK    7  A    between atoms: N_17  and  C_18
REMARK    8  A    between atoms: C_18  and  C_19
REMARK    9  A    between atoms: C_26  and  C_28
REMARK                            x       y       z     vdW  Elec       q    Type
REMARK                         _______ _______ _______ _____ _____    ______ ____
ROOT
ATOM      1  C   UNL     1       1.322   0.763   0.000  0.00  0.00    +0.000 A 
ATOM      2  C   UNL     1       2.037   1.176   0.000  0.00  0.00    +0.000 A 
ATOM      3  F   UNL     1       2.037   2.001   0.000  0.00  0.00    +0.000 F 
ATOM      4  C   UNL     1       2.751   0.763   0.000  0.00  0.00    +0.000 A 
ATOM      5  N   UNL     1       2.751  -0.062   0.000  0.00  0.00    +0.000 NA
ATOM      6  C   UNL     1       2.037  -0.474   0.000  0.00  0.00    +0.000 A 
ATOM      7  N   UNL     1       1.322  -0.062   0.000  0.00  0.00    +0.000 NA
ENDROOT
BRANCH   6   8
ATOM      8  C   UNL     1       2.037  -1.299   0.000  0.00  0.00    +0.000 A 
ATOM      9  N   UNL     1       1.369  -1.784   0.000  0.00  0.00    +0.000 NA
ATOM     10  N   UNL     1       1.624  -2.569   0.000  0.00  0.00    +0.000 N 
ATOM     11  C   UNL     1       2.449  -2.569   0.000  0.00  0.00    +0.000 A 
ATOM     12  C   UNL     1       2.704  -1.784   0.000  0.00  0.00    +0.000 A 
BRANCH  11  13
ATOM     13  C   UNL     1       2.934  -3.236   0.000  0.00  0.00    +0.000 A 
ATOM     14  N   UNL     1       2.679  -4.021   0.000  0.00  0.00    +0.000 NA
ATOM     15  O   UNL     1       3.347  -4.506   0.000  0.00  0.00    +0.000 OA
ATOM     16  C   UNL     1       4.014  -4.021   0.000  0.00  0.00    +0.000 A 
ATOM     17  C   UNL     1       3.759  -3.236   0.000  0.00  0.00    +0.000 A 
ENDBRANCH  11  13
BRANCH  10  18
ATOM     18  C   UNL     1       1.139  -3.236   0.000  0.00  0.00    +0.000 C 
BRANCH  18  19
ATOM     19  C   UNL     1       0.319  -3.150   0.000  0.00  0.00    +0.000 A 
ATOM     20  C   UNL     1      -0.166  -3.817   0.000  0.00  0.00    +0.000 A 
ATOM     21  F   UNL     1       0.169  -4.571   0.000  0.00  0.00    +0.000 F 
ATOM     22  C   UNL     1      -0.987  -3.731   0.000  0.00  0.00    +0.000 A 
ATOM     23  C   UNL     1      -1.322  -2.977   0.000  0.00  0.00    +0.000 A 
ATOM     24  C   UNL     1      -0.837  -2.310   0.000  0.00  0.00    +0.000 A 
ATOM     25  C   UNL     1      -0.017  -2.396   0.000  0.00  0.00    +0.000 A 
ENDBRANCH  18  19
ENDBRANCH  10  18
ENDBRANCH   6   8
BRANCH   1  26
ATOM     26  N   UNL     1       0.608   1.176   0.000  0.00  0.00    +0.000 NA
BRANCH  26  27
ATOM     27  C   UNL     1       0.608   2.001   0.000  0.00  0.00    +0.000 C 
BRANCH  27  28
ATOM     28  C   UNL     1      -0.107   2.413   0.000  0.00  0.00    +0.000 C 
ATOM     29  O   UNL     1      -0.519   1.699   0.000  0.00  0.00    +0.000 OA
BRANCH  28  30
ATOM     30  C   UNL     1       0.306   3.128   0.000  0.00  0.00    +0.000 C 
ATOM     31  F   UNL     1       0.718   3.842   0.000  0.00  0.00    +0.000 F 
ATOM     32  F   UNL     1       1.020   2.715   0.000  0.00  0.00    +0.000 F 
ATOM     33  F   UNL     1      -0.409   3.540   0.000  0.00  0.00    +0.000 F 
ENDBRANCH  28  30
BRANCH  28  35
ATOM     34  N   UNL     1      -0.821   3.651   0.000  0.00  0.00    +0.000 NA
ATOM     35  C   UNL     1      -0.821   2.826   0.000  0.00  0.00    +0.000 C 
ATOM     36  O   UNL     1      -1.536   2.413   0.000  0.00  0.00    +0.000 OA
ENDBRANCH  28  35
ENDBRANCH  27  28
ENDBRANCH  26  27
ENDBRANCH   1  26
TORSDOF 9
