REMARK  Name = 
REMARK  4 active torsions:
REMARK  status: ('A' for Active; 'I' for Inactive)
REMARK    1  A    between atoms: C_10  and  C_15
REMARK    2  A    between atoms: C_11  and  C_15
REMARK    3  A    between atoms: C_12  and  C_14
REMARK    4  A    between atoms: C_13  and  S_23
REMARK                            x       y       z     vdW  Elec       q    Type
REMARK                         _______ _______ _______ _____ _____    ______ ____
ROOT
ATOM      1  C   UNL     1       0.356   1.471   0.000  0.00  0.00    +0.000 C 
ATOM      2  C   UNL     1      -0.359  -0.592   0.000  0.00  0.00    +0.000 A 
ATOM      3  C   UNL     1       0.356  -1.004   0.000  0.00  0.00    +0.000 A 
ATOM      4  C   UNL     1       0.356   0.646   0.000  0.00  0.00    +0.000 A 
ATOM      5  C   UNL     1      -0.359   0.233   0.000  0.00  0.00    +0.000 A 
ATOM      6  C   UNL     1       1.070  -0.592   0.000  0.00  0.00    +0.000 A 
ATOM      7  C   UNL     1       1.070   0.233   0.000  0.00  0.00    +0.000 A 
ENDROOT
BRANCH   7  10
ATOM      8  C   UNL     1       1.792   1.470   0.000  0.00  0.00    +0.000 C 
ATOM      9  C   UNL     1       2.578   1.718   0.000  0.00  0.00    +0.000 C 
ATOM     10  C   UNL     1       1.785   0.645   0.000  0.00  0.00    +0.000 C 
ATOM     11  N   UNL     1       2.567   0.384   0.000  0.00  0.00    +0.000 NA
ATOM     12  O   UNL     1       3.058   1.047   0.000  0.00  0.00    +0.000 OA
ENDBRANCH   7  10
BRANCH   6  14
ATOM     13  C   UNL     1       2.499  -0.592   0.000  0.00  0.00    +0.000 C 
ATOM     14  S   UNL     1       1.785  -1.004   0.000  0.00  0.00    +0.000 S 
ATOM     15  O   UNL     1       2.197  -1.718   0.000  0.00  0.00    +0.000 OA
ATOM     16  O   UNL     1       1.372  -1.718   0.000  0.00  0.00    +0.000 OA
ENDBRANCH   6  14
BRANCH   5  17
ATOM     17  C   UNL     1      -1.073   0.646   0.000  0.00  0.00    +0.000 C 
ATOM     18  O   UNL     1      -1.073   1.471   0.000  0.00  0.00    +0.000 OA
BRANCH  17  21
ATOM     19  C   UNL     1      -2.831  -1.629   0.000  0.00  0.00    +0.000 C 
ATOM     20  C   UNL     1      -2.571   0.490   0.000  0.00  0.00    +0.000 A 
ATOM     21  C   UNL     1      -1.787   0.234   0.000  0.00  0.00    +0.000 A 
ATOM     22  C   UNL     1      -1.789  -0.591   0.000  0.00  0.00    +0.000 A 
ATOM     23  N   UNL     1      -3.058  -0.176   0.000  0.00  0.00    +0.000 NA
ATOM     24  N   UNL     1      -2.574  -0.845   0.000  0.00  0.00    +0.000 N 
ATOM     25  O   UNL     1      -1.123  -1.078   0.000  0.00  0.00    +0.000 OA
ENDBRANCH  17  21
ENDBRANCH   5  17
TORSDOF 4
