REMARK  Name = 
REMARK  5 active torsions:
REMARK  status: ('A' for Active; 'I' for Inactive)
REMARK    1  A    between atoms: C_13  and  C_15
REMARK    2  A    between atoms: C_15  and  N_16
REMARK    3  A    between atoms: C_19  and  N_22
REMARK    4  A    between atoms: N_22  and  C_23
REMARK    5  A    between atoms: C_23  and  C_24
REMARK                            x       y       z     vdW  Elec       q    Type
REMARK                         _______ _______ _______ _____ _____    ______ ____
ROOT
ATOM      1  N   UNL     1       1.487  -3.833   0.000  0.00  0.00    +0.000 NA
ATOM      2  C   UNL     1       1.972  -4.501   0.000  0.00  0.00    +0.000 C 
ATOM      3  C   UNL     1       1.636  -5.254   0.000  0.00  0.00    +0.000 C 
ATOM      4  C   UNL     1       0.816  -5.340   0.000  0.00  0.00    +0.000 C 
ATOM      5  C   UNL     1       0.331  -4.673   0.000  0.00  0.00    +0.000 C 
ATOM      6  C   UNL     1       0.667  -3.919   0.000  0.00  0.00    +0.000 C 
ENDROOT
BRANCH   1   7
ATOM      7  C   UNL     1       1.823  -3.079   0.000  0.00  0.00    +0.000 C 
BRANCH   7  20
ATOM      8  C   UNL     1       0.085   0.013   0.000  0.00  0.00    +0.000 A 
ATOM      9  C   UNL     1      -0.582  -0.471   0.000  0.00  0.00    +0.000 A 
ATOM     10  C   UNL     1      -0.496  -1.292   0.000  0.00  0.00    +0.000 A 
ATOM     11  O   UNL     1      -1.163  -1.777   0.000  0.00  0.00    +0.000 OA
ATOM     12  N   UNL     1       0.258  -1.627   0.000  0.00  0.00    +0.000 N 
ATOM     13  C   UNL     1       0.925  -1.143   0.000  0.00  0.00    +0.000 A 
ATOM     14  C   UNL     1       0.839  -0.322   0.000  0.00  0.00    +0.000 A 
ATOM     15  N   UNL     1       1.765   0.013   0.000  0.00  0.00    +0.000 NA
ATOM     16  C   UNL     1       2.433  -0.471   0.000  0.00  0.00    +0.000 A 
ATOM     17  C   UNL     1       2.346  -1.292   0.000  0.00  0.00    +0.000 A 
ATOM     18  O   UNL     1       3.014  -1.777   0.000  0.00  0.00    +0.000 OA
ATOM     19  N   UNL     1       1.593  -1.627   0.000  0.00  0.00    +0.000 N 
ATOM     20  C   UNL     1       1.338  -2.412   0.000  0.00  0.00    +0.000 C 
ATOM     21  C   UNL     1       0.513  -2.412   0.000  0.00  0.00    +0.000 C 
ENDBRANCH   7  20
ENDBRANCH   1   7
BRANCH   4  22
ATOM     22  N   UNL     1       0.480  -6.094   0.000  0.00  0.00    +0.000 NA
BRANCH  22  23
ATOM     23  C   UNL     1      -0.340  -6.180   0.000  0.00  0.00    +0.000 C 
BRANCH  23  24
ATOM     24  C   UNL     1      -0.676  -6.934   0.000  0.00  0.00    +0.000 A 
ATOM     25  C   UNL     1      -1.496  -7.020   0.000  0.00  0.00    +0.000 A 
ATOM     26  C   UNL     1      -1.832  -7.774   0.000  0.00  0.00    +0.000 A 
ATOM     27  C   UNL     1      -1.347  -8.441   0.000  0.00  0.00    +0.000 A 
ATOM     28  C   UNL     1      -0.526  -8.355   0.000  0.00  0.00    +0.000 A 
ATOM     29  N   UNL     1      -0.191  -7.602   0.000  0.00  0.00    +0.000 NA
ATOM     30  O   UNL     1      -1.682  -9.195   0.000  0.00  0.00    +0.000 OA
ATOM     31  C   UNL     1      -2.503  -9.281   0.000  0.00  0.00    +0.000 C 
ATOM     32  C   UNL     1      -2.988  -8.614   0.000  0.00  0.00    +0.000 C 
ATOM     33  C   UNL     1      -2.652  -7.860   0.000  0.00  0.00    +0.000 C 
ENDBRANCH  23  24
ENDBRANCH  22  23
ENDBRANCH   4  22
TORSDOF 5
