REMARK  Name = 
REMARK  0 active torsions:
REMARK  status: ('A' for Active; 'I' for Inactive)
REMARK                            x       y       z     vdW  Elec       q    Type
REMARK                         _______ _______ _______ _____ _____    ______ ____
ROOT
ATOM      1  N   UNL     1      -0.999  -0.403   0.000  0.00  0.00    +0.000 NA
ATOM      2  C   UNL     1      -1.729   0.825   0.000  0.00  0.00    +0.000 C 
ATOM      3  C   UNL     1      -1.710  -0.823   0.000  0.00  0.00    +0.000 C 
ATOM      4  C   UNL     1      -2.437   0.407   0.000  0.00  0.00    +0.000 C 
ATOM      5  C   UNL     1      -2.428  -0.417   0.000  0.00  0.00    +0.000 C 
ATOM      6  C   UNL     1       0.398  -0.999   0.000  0.00  0.00    +0.000 C 
ATOM      7  C   UNL     1      -0.425  -0.991   0.000  0.00  0.00    +0.000 C 
ATOM      8  N   UNL     1       0.999   0.403   0.000  0.00  0.00    +0.000 NA
ATOM      9  C   UNL     1       0.425   0.991   0.000  0.00  0.00    +0.000 C 
ATOM     10  C   UNL     1       2.428   0.417   0.000  0.00  0.00    +0.000 C 
ATOM     11  C   UNL     1       2.437  -0.407   0.000  0.00  0.00    +0.000 C 
ATOM     12  C   UNL     1       1.710   0.823   0.000  0.00  0.00    +0.000 C 
ATOM     13  C   UNL     1       1.729  -0.825   0.000  0.00  0.00    +0.000 C 
ATOM     14  C   UNL     1      -0.398   0.999   0.000  0.00  0.00    +0.000 C 
ATOM     15  C   UNL     1       0.398   0.303   0.000  0.00  0.00    +0.000 C 
ATOM     16  C   UNL     1      -0.999   0.422   0.000  0.00  0.00    +0.000 C 
ATOM     17  C   UNL     1       0.999  -0.422   0.000  0.00  0.00    +0.000 C 
ENDROOT
TORSDOF 0
