REMARK  Name = 
REMARK  4 active torsions:
REMARK  status: ('A' for Active; 'I' for Inactive)
REMARK    1  A    between atoms: C_1  and  C_2
REMARK    2  A    between atoms: C_2  and  C_5
REMARK    3  A    between atoms: C_5  and  O_6
REMARK    4  A    between atoms: O_6  and  S_8
REMARK                            x       y       z     vdW  Elec       q    Type
REMARK                         _______ _______ _______ _____ _____    ______ ____
ROOT
ATOM      1  C   UNK     1       0.087   0.239   0.000  0.00  0.00    +0.000 C 
ENDROOT
BRANCH   1   2
ATOM      2  C   UNK     1       0.801  -0.173   0.000  0.00  0.00    +0.000 C 
ATOM      3  N   UNK     1       0.801  -0.998   0.000  0.00  0.00    +0.000 NA
BRANCH   2   4
ATOM      4  C   UNK     1       1.516   0.239   0.000  0.00  0.00    +0.000 C 
ATOM      5  O   UNK     1       1.516   1.064   0.000  0.00  0.00    +0.000 OA
ATOM      6  O   UNK     1       2.230  -0.173   0.000  0.00  0.00    +0.000 OA
ENDBRANCH   2   4
ENDBRANCH   1   2
BRANCH   1   7
ATOM      7  O   UNK     1      -0.627  -0.173   0.000  0.00  0.00    +0.000 OA
BRANCH   7   8
ATOM      8  S   UNK     1      -1.421  -0.185   0.000  0.00  0.00    +0.000 S 
ATOM      9  O   UNK     1      -1.409  -1.064   0.000  0.00  0.00    +0.000 OA
ATOM     10  O   UNK     1      -1.424   0.734   0.000  0.00  0.00    +0.000 OA
ATOM     11  O   UNK     1      -2.230  -0.181   0.000  0.00  0.00    +0.000 OA
ENDBRANCH   7   8
ENDBRANCH   1   7
TORSDOF 4
