REMARK  Name = 
REMARK  4 active torsions:
REMARK  status: ('A' for Active; 'I' for Inactive)
REMARK    1  A    between atoms: O_3  and  C_12
REMARK    2  A    between atoms: O_3  and  C_17
REMARK    3  A    between atoms: C_7  and  C_12
REMARK    4  A    between atoms: C_8  and  C_13
REMARK                            x       y       z     vdW  Elec       q    Type
REMARK                         _______ _______ _______ _____ _____    ______ ____
ROOT
ATOM      1  N   UNL     1       0.939   2.043   0.000  0.00  0.00    +0.000 NA
ATOM      2  C   UNL     1       1.333   0.435   0.000  0.00  0.00    +0.000 C 
ATOM      3  C   UNL     1       1.546   1.232   0.000  0.00  0.00    +0.000 C 
ATOM      4  C   UNL     1       0.066  -0.590   0.000  0.00  0.00    +0.000 C 
ATOM      5  C   UNL     1      -0.688  -0.255   0.000  0.00  0.00    +0.000 C 
ATOM      6  C   UNL     1      -0.601   0.566   0.000  0.00  0.00    +0.000 C 
ATOM      7  C   UNL     1       2.844  -0.191   0.000  0.00  0.00    +0.000 C 
ATOM      8  C   UNL     1       3.058   0.606   0.000  0.00  0.00    +0.000 C 
ATOM      9  C   UNL     1       0.526   2.757   0.000  0.00  0.00    +0.000 C 
ENDROOT
BRANCH   5  12
ATOM     10 CL   UNL     1      -3.545  -0.255   0.000  0.00  0.00    +0.000 Cl
ATOM     11 CL   UNL     1      -3.545  -1.905   0.000  0.00  0.00    +0.000 Cl
ATOM     12  C   UNL     1      -1.402  -0.667   0.000  0.00  0.00    +0.000 A 
ATOM     13  C   UNL     1      -2.116  -0.255   0.000  0.00  0.00    +0.000 A 
ATOM     14  C   UNL     1      -1.402  -1.492   0.000  0.00  0.00    +0.000 A 
ATOM     15  C   UNL     1      -2.831  -0.667   0.000  0.00  0.00    +0.000 A 
ATOM     16  C   UNL     1      -2.116  -1.905   0.000  0.00  0.00    +0.000 A 
ATOM     17  C   UNL     1      -2.831  -1.492   0.000  0.00  0.00    +0.000 A 
ENDBRANCH   5  12
BRANCH   4  18
ATOM     18  C   UNL     1       0.238  -1.397   0.000  0.00  0.00    +0.000 C 
BRANCH  18  19
ATOM     19  O   UNL     1       1.022  -1.652   0.000  0.00  0.00    +0.000 OA
BRANCH  19  20
ATOM     20  C   UNL     1       1.194  -2.459   0.000  0.00  0.00    +0.000 C 
ATOM     21  C   UNL     1       1.978  -2.714   0.000  0.00  0.00    +0.000 C 
ENDBRANCH  19  20
ENDBRANCH  18  19
ENDBRANCH   4  18
TORSDOF 4
