REMARK  Name = 
REMARK  5 active torsions:
REMARK  status: ('A' for Active; 'I' for Inactive)
REMARK    1  A    between atoms: N_4  and  C_12
REMARK    2  A    between atoms: C_7  and  C_10
REMARK    3  A    between atoms: C_10  and  C_12
REMARK    4  A    between atoms: C_16  and  C_18
REMARK    5  A    between atoms: C_20  and  C_22
REMARK                            x       y       z     vdW  Elec       q    Type
REMARK                         _______ _______ _______ _____ _____    ______ ____
ROOT
ATOM      1  O   UNL     1      -2.013   2.574   0.000  0.00  0.00    +0.000 OA
ATOM      2  O   UNL     1       0.751   3.466   0.000  0.00  0.00    +0.000 OA
ATOM      3  N   UNL     1      -0.701   3.239   0.000  0.00  0.00    +0.000 N 
ATOM      4  C   UNL     1      -0.704   1.904   0.000  0.00  0.00    +0.000 C 
ATOM      5  C   UNL     1       0.081   2.157   0.000  0.00  0.00    +0.000 C 
ATOM      6  C   UNL     1      -1.188   2.572   0.000  0.00  0.00    +0.000 C 
ATOM      7  C   UNL     1       0.083   2.982   0.000  0.00  0.00    +0.000 C 
ATOM      8  H   UNL     1      -0.859   3.725   0.000  0.00  0.00    +0.000 HD
ENDROOT
BRANCH   5  10
ATOM      9  N   UNL     1       1.524   0.594   0.000  0.00  0.00    +0.000 N 
ATOM     10  C   UNL     1       0.748   1.671   0.000  0.00  0.00    +0.000 A 
ATOM     11  C   UNL     1       1.528   1.924   0.000  0.00  0.00    +0.000 A 
ATOM     12  C   UNL     1       0.746   0.851   0.000  0.00  0.00    +0.000 A 
ATOM     13  C   UNL     1       2.011   1.255   0.000  0.00  0.00    +0.000 A 
ATOM     14  C   UNL     1       1.866   2.677   0.000  0.00  0.00    +0.000 A 
ATOM     15  C   UNL     1       2.831   1.338   0.000  0.00  0.00    +0.000 A 
ATOM     16  C   UNL     1       2.687   2.760   0.000  0.00  0.00    +0.000 A 
ATOM     17  C   UNL     1       3.170   2.091   0.000  0.00  0.00    +0.000 A 
ATOM     18  H   UNL     1       1.680   0.107   0.000  0.00  0.00    +0.000 HD
ENDBRANCH   5  10
BRANCH   4  22
ATOM     19  N   UNL     1      -0.960  -0.208   0.000  0.00  0.00    +0.000 N 
ATOM     20  C   UNL     1      -1.741   0.043   0.000  0.00  0.00    +0.000 A 
ATOM     21  C   UNL     1      -0.478   0.456   0.000  0.00  0.00    +0.000 A 
ATOM     22  C   UNL     1      -0.960   1.120   0.000  0.00  0.00    +0.000 A 
ATOM     23  C   UNL     1      -1.741   0.868   0.000  0.00  0.00    +0.000 A 
ATOM     24  C   UNL     1      -2.455  -0.369   0.000  0.00  0.00    +0.000 A 
ATOM     25  C   UNL     1      -2.455   1.281   0.000  0.00  0.00    +0.000 A 
ATOM     26  C   UNL     1      -3.170   0.043   0.000  0.00  0.00    +0.000 A 
ATOM     27  C   UNL     1      -3.170   0.868   0.000  0.00  0.00    +0.000 A 
BRANCH  19  28
ATOM     28  C   UNL     1      -0.704  -0.992   0.000  0.00  0.00    +0.000 C 
BRANCH  28  29
ATOM     29  C   UNL     1      -1.255  -1.606   0.000  0.00  0.00    +0.000 C 
BRANCH  29  31
ATOM     30  N   UNL     1      -1.482  -3.059   0.000  0.00  0.00    +0.000 NA
ATOM     31  C   UNL     1      -0.998  -2.390   0.000  0.00  0.00    +0.000 C 
ATOM     32  C   UNL     1      -0.213  -2.644   0.000  0.00  0.00    +0.000 C 
ATOM     33  C   UNL     1      -0.212  -3.469   0.000  0.00  0.00    +0.000 C 
ATOM     34  C   UNL     1      -0.996  -3.725   0.000  0.00  0.00    +0.000 C 
ATOM     35  C   UNL     1      -2.307  -3.060   0.000  0.00  0.00    +0.000 C 
ENDBRANCH  29  31
ENDBRANCH  28  29
ENDBRANCH  19  28
ENDBRANCH   4  22
TORSDOF 5
