REMARK  Name = 
REMARK  9 active torsions:
REMARK  status: ('A' for Active; 'I' for Inactive)
REMARK    1  A    between atoms: C_15  and  C_19
REMARK    2  A    between atoms: C_19  and  C_24
REMARK    3  A    between atoms: C_24  and  C_29
REMARK    4  A    between atoms: C_32  and  O_38
REMARK    5  A    between atoms: C_39  and  O_46
REMARK    6  A    between atoms: C_45  and  O_50
REMARK    7  A    between atoms: O_50  and  C_69
REMARK    8  A    between atoms: C_51  and  O_55
REMARK    9  A    between atoms: C_69  and  C_70
REMARK                            x       y       z     vdW  Elec       q    Type
REMARK                         _______ _______ _______ _____ _____    ______ ____
ROOT
ATOM      1  N   UNL     1      -3.564   3.036   0.000  0.00  0.00    +0.000 N 
ATOM      2  C   UNL     1      -2.863   3.448   0.000  0.00  0.00    +0.000 C 
ATOM      3  C   UNL     1      -3.564   2.211   0.000  0.00  0.00    +0.000 C 
ATOM      4  C   UNL     1      -4.307   3.448   0.000  0.00  0.00    +0.000 C 
ATOM      5  C   UNL     1      -2.162   3.036   0.000  0.00  0.00    +0.000 C 
ATOM      6  C   UNL     1      -2.863   4.273   0.000  0.00  0.00    +0.000 C 
ATOM      7  C   UNL     1      -4.307   1.798   0.000  0.00  0.00    +0.000 C 
ATOM      8  O   UNL     1      -2.863   1.798   0.000  0.00  0.00    +0.000 OA
ATOM      9  C   UNL     1      -4.307   4.273   0.000  0.00  0.00    +0.000 C 
ATOM     10  O   UNL     1      -1.460   3.448   0.000  0.00  0.00    +0.000 OA
ATOM     11  O   UNL     1      -2.162   2.376   0.000  0.00  0.00    +0.000 OA
ATOM     12  C   UNL     1      -3.564   4.727   0.000  0.00  0.00    +0.000 C 
ATOM     13  C   UNL     1      -4.307   0.973   0.000  0.00  0.00    +0.000 C 
ATOM     14  O   UNL     1      -5.008   2.252   0.000  0.00  0.00    +0.000 OA
ATOM     15  C   UNL     1      -0.718   3.036   0.000  0.00  0.00    +0.000 C 
ATOM     16  O   UNL     1      -3.606   0.560   0.000  0.00  0.00    +0.000 OA
ATOM     17  C   UNL     1      -5.050   0.560   0.000  0.00  0.00    +0.000 C 
ATOM     18  O   UNL     1      -3.643   1.375   0.000  0.00  0.00    +0.000 OA
ATOM     19  C   UNL     1      -0.718   2.211   0.000  0.00  0.00    +0.000 C 
ATOM     20  C   UNL     1      -3.506  -0.099   0.000  0.00  0.00    +0.000 C 
ATOM     21  C   UNL     1      -5.050  -0.223   0.000  0.00  0.00    +0.000 C 
ATOM     22  C   UNL     1      -5.751   1.014   0.000  0.00  0.00    +0.000 C 
ATOM     23  C   UNL     1      -0.017   1.798   0.000  0.00  0.00    +0.000 C 
ATOM     24  C   UNL     1      -2.904  -0.677   0.000  0.00  0.00    +0.000 C 
ATOM     25  C   UNL     1      -4.307  -0.677   0.000  0.00  0.00    +0.000 C 
ATOM     26  C   UNL     1      -0.017   0.973   0.000  0.00  0.00    +0.000 C 
ATOM     27  O   UNL     1       0.726   2.252   0.000  0.00  0.00    +0.000 OA
ATOM     28  C   UNL     1      -2.904  -1.502   0.000  0.00  0.00    +0.000 C 
ATOM     29  C   UNL     1       0.726   0.560   0.000  0.00  0.00    +0.000 C 
ATOM     30  C   UNL     1      -0.718   0.560   0.000  0.00  0.00    +0.000 C 
ATOM     31  C   UNL     1      -2.203  -1.915   0.000  0.00  0.00    +0.000 C 
ATOM     32  C   UNL     1       0.726  -0.223   0.000  0.00  0.00    +0.000 C 
ATOM     33  C   UNL     1      -2.203  -2.740   0.000  0.00  0.00    +0.000 C 
ATOM     34  C   UNL     1      -1.460  -1.502   0.000  0.00  0.00    +0.000 C 
ATOM     35  C   UNL     1       1.427  -0.636   0.000  0.00  0.00    +0.000 C 
ATOM     36  C   UNL     1      -0.017  -0.636   0.000  0.00  0.00    +0.000 C 
ATOM     37  C   UNL     1      -1.502  -3.153   0.000  0.00  0.00    +0.000 C 
ATOM     38  C   UNL     1       1.427  -1.461   0.000  0.00  0.00    +0.000 C 
ATOM     39  O   UNL     1       2.129  -0.223   0.000  0.00  0.00    +0.000 OA
ATOM     40  C   UNL     1      -1.502  -3.978   0.000  0.00  0.00    +0.000 C 
ATOM     41  C   UNL     1       2.129  -1.874   0.000  0.00  0.00    +0.000 C 
ATOM     42  C   UNL     1      -0.759  -4.390   0.000  0.00  0.00    +0.000 C 
ATOM     43  C   UNL     1       2.129  -2.699   0.000  0.00  0.00    +0.000 C 
ATOM     44  O   UNL     1       2.830  -1.461   0.000  0.00  0.00    +0.000 OA
ATOM     45  C   UNL     1      -0.058  -3.978   0.000  0.00  0.00    +0.000 C 
ATOM     46  C   UNL     1       1.427  -3.111   0.000  0.00  0.00    +0.000 C 
ATOM     47  C   UNL     1       2.830  -3.111   0.000  0.00  0.00    +0.000 C 
ATOM     48  C   UNL     1       0.767  -3.978   0.000  0.00  0.00    +0.000 C 
ATOM     49  C   UNL     1       0.974  -4.762   0.000  0.00  0.00    +0.000 C 
ENDROOT
BRANCH  15  50
ATOM     50  C   UNL     1      -0.017   3.448   0.000  0.00  0.00    +0.000 C 
ATOM     51  C   UNL     1      -0.017   4.273   0.000  0.00  0.00    +0.000 C 
BRANCH  50  52
ATOM     52  C   UNL     1       0.726   3.036   0.000  0.00  0.00    +0.000 C 
BRANCH  52  53
ATOM     53  C   UNL     1       1.427   3.448   0.000  0.00  0.00    +0.000 C 
ATOM     54  C   UNL     1       2.129   3.036   0.000  0.00  0.00    +0.000 C 
ATOM     55  C   UNL     1       1.427   4.273   0.000  0.00  0.00    +0.000 C 
ATOM     56  C   UNL     1       2.830   3.448   0.000  0.00  0.00    +0.000 C 
ATOM     57  C   UNL     1       2.129   4.686   0.000  0.00  0.00    +0.000 C 
ATOM     58  C   UNL     1       2.830   4.273   0.000  0.00  0.00    +0.000 C 
BRANCH  56  59
ATOM     59  O   UNL     1       3.573   3.036   0.000  0.00  0.00    +0.000 OA
ATOM     60  C   UNL     1       4.280   3.460   0.000  0.00  0.00    +0.000 C 
ENDBRANCH  56  59
BRANCH  58  61
ATOM     61  O   UNL     1       3.573   4.727   0.000  0.00  0.00    +0.000 OA
BRANCH  61  62
ATOM     62  C   UNL     1       4.308   4.326   0.000  0.00  0.00    +0.000 C 
BRANCH  62  63
ATOM     63  C   UNL     1       5.020   4.762   0.000  0.00  0.00    +0.000 C 
ATOM     64  O   UNL     1       5.751   4.364   0.000  0.00  0.00    +0.000 OA
ENDBRANCH  62  63
ENDBRANCH  61  62
ENDBRANCH  58  61
ENDBRANCH  52  53
ENDBRANCH  50  52
ENDBRANCH  15  50
BRANCH  28  65
ATOM     65  O   UNL     1      -3.606  -1.915   0.000  0.00  0.00    +0.000 OA
ATOM     66  C   UNL     1      -3.606  -2.740   0.000  0.00  0.00    +0.000 C 
ENDBRANCH  28  65
BRANCH  38  67
ATOM     67  O   UNL     1       0.685  -1.874   0.000  0.00  0.00    +0.000 OA
ATOM     68  C   UNL     1       0.685  -2.699   0.000  0.00  0.00    +0.000 C 
ENDBRANCH  38  67
TORSDOF 9
