REMARK  Name = 
REMARK  12 active torsions:
REMARK  status: ('A' for Active; 'I' for Inactive)
REMARK    1  A    between atoms: C_4  and  O_19
REMARK    2  A    between atoms: C_7  and  C_8
REMARK    3  A    between atoms: C_11  and  C_14
REMARK    4  A    between atoms: O_19  and  C_20
REMARK    5  A    between atoms: C_20  and  C_21
REMARK    6  A    between atoms: C_20  and  C_27
REMARK    7  A    between atoms: C_21  and  C_22
REMARK    8  A    between atoms: C_22  and  C_23
REMARK    9  A    between atoms: C_30  and  C_33
REMARK   10  A    between atoms: N_35  and  C_36
REMARK   11  A    between atoms: C_36  and  C_37
REMARK   12  A    between atoms: C_37  and  C_38
REMARK                            x       y       z     vdW  Elec       q    Type
REMARK                         _______ _______ _______ _____ _____    ______ ____
ROOT
ATOM      1  C   UNL     1      -2.143   3.712   0.000  0.00  0.00    +0.000 C 
ENDROOT
BRANCH   1   2
ATOM      2  C   UNL     1      -1.429   3.300   0.000  0.00  0.00    +0.000 A 
ATOM      3  C   UNL     1      -0.715   3.712   0.000  0.00  0.00    +0.000 A 
ATOM      4  C   UNL     1       0.000   3.300   0.000  0.00  0.00    +0.000 A 
ATOM      5  C   UNL     1       0.000   2.475   0.000  0.00  0.00    +0.000 A 
ATOM      6  C   UNL     1      -0.715   2.062   0.000  0.00  0.00    +0.000 A 
ATOM      7  C   UNL     1      -1.429   2.475   0.000  0.00  0.00    +0.000 A 
BRANCH   5   8
ATOM      8  C   UNL     1       0.715   2.062   0.000  0.00  0.00    +0.000 C 
ATOM      9  O   UNL     1       0.715   1.238   0.000  0.00  0.00    +0.000 OA
ATOM     10  N   UNL     1       1.429   2.475   0.000  0.00  0.00    +0.000 NA
BRANCH  10  11
ATOM     11  C   UNL     1       2.143   2.062   0.000  0.00  0.00    +0.000 C 
BRANCH  11  12
ATOM     12  C   UNL     1       2.858   2.475   0.000  0.00  0.00    +0.000 C 
BRANCH  12  13
ATOM     13  C   UNL     1       3.572   2.062   0.000  0.00  0.00    +0.000 C 
ATOM     14  O   UNL     1       4.287   2.475   0.000  0.00  0.00    +0.000 OA
ATOM     15  O   UNL     1       3.572   1.238   0.000  0.00  0.00    +0.000 OA
ENDBRANCH  12  13
ENDBRANCH  11  12
ENDBRANCH  10  11
ENDBRANCH   5   8
ENDBRANCH   1   2
BRANCH   1  16
ATOM     16  O   UNL     1      -2.858   3.300   0.000  0.00  0.00    +0.000 OA
BRANCH  16  20
ATOM     17  C   UNL     1      -4.287   0.825   0.000  0.00  0.00    +0.000 C 
ATOM     18  C   UNL     1      -3.572   1.238   0.000  0.00  0.00    +0.000 A 
ATOM     19  C   UNL     1      -3.572   2.062   0.000  0.00  0.00    +0.000 A 
ATOM     20  C   UNL     1      -2.858   2.475   0.000  0.00  0.00    +0.000 A 
ATOM     21  C   UNL     1      -2.143   2.062   0.000  0.00  0.00    +0.000 A 
ATOM     22  C   UNL     1      -2.143   1.238   0.000  0.00  0.00    +0.000 A 
ATOM     23  C   UNL     1      -2.858   0.825   0.000  0.00  0.00    +0.000 A 
ATOM     24  C   UNL     1      -1.429   0.825   0.000  0.00  0.00    +0.000 C 
BRANCH  23  25
ATOM     25  C   UNL     1      -2.858   0.000   0.000  0.00  0.00    +0.000 A 
ATOM     26  C   UNL     1      -2.143  -0.412   0.000  0.00  0.00    +0.000 A 
ATOM     27  C   UNL     1      -2.143  -1.238   0.000  0.00  0.00    +0.000 A 
ATOM     28  C   UNL     1      -2.858  -1.650   0.000  0.00  0.00    +0.000 A 
ATOM     29  C   UNL     1      -3.572  -1.238   0.000  0.00  0.00    +0.000 A 
ATOM     30  C   UNL     1      -3.572  -0.412   0.000  0.00  0.00    +0.000 A 
BRANCH  28  31
ATOM     31  C   UNL     1      -2.858  -2.475   0.000  0.00  0.00    +0.000 C 
ATOM     32  C   UNL     1      -2.858  -3.300   0.000  0.00  0.00    +0.000 C 
ATOM     33  C   UNL     1      -2.033  -2.475   0.000  0.00  0.00    +0.000 C 
ATOM     34  C   UNL     1      -3.683  -2.475   0.000  0.00  0.00    +0.000 C 
ENDBRANCH  28  31
ENDBRANCH  23  25
ENDBRANCH  16  20
ENDBRANCH   1  16
BRANCH   1  35
ATOM     35  C   UNL     1      -2.143   4.537   0.000  0.00  0.00    +0.000 C 
BRANCH  35  36
ATOM     36  C   UNL     1      -1.429   4.950   0.000  0.00  0.00    +0.000 C 
BRANCH  36  37
ATOM     37  C   UNL     1      -1.429   5.775   0.000  0.00  0.00    +0.000 C 
ATOM     38  F   UNL     1      -0.604   5.775   0.000  0.00  0.00    +0.000 F 
ATOM     39  F   UNL     1      -2.254   5.775   0.000  0.00  0.00    +0.000 F 
ATOM     40  F   UNL     1      -1.429   6.600   0.000  0.00  0.00    +0.000 F 
ENDBRANCH  36  37
ENDBRANCH  35  36
ENDBRANCH   1  35
TORSDOF 12
