REMARK  Name = 
REMARK  4 active torsions:
REMARK  status: ('A' for Active; 'I' for Inactive)
REMARK    1  A    between atoms: C_3  and  N_9
REMARK    2  A    between atoms: N_12  and  C_13
REMARK    3  A    between atoms: C_17  and  S_20
REMARK    4  A    between atoms: S_20  and  N_23
REMARK                            x       y       z     vdW  Elec       q    Type
REMARK                         _______ _______ _______ _____ _____    ______ ____
ROOT
ATOM      1  C   UNL     1       0.715  -9.488   0.000  0.00  0.00    +0.000 A 
ATOM      2  C   UNL     1       1.429  -9.900   0.000  0.00  0.00    +0.000 A 
ATOM      3  C   UNL     1       1.429 -10.725   0.000  0.00  0.00    +0.000 A 
ATOM      4  C   UNL     1       0.715 -11.137   0.000  0.00  0.00    +0.000 A 
ATOM      5  C   UNL     1       0.000 -10.725   0.000  0.00  0.00    +0.000 A 
ATOM      6  C   UNL     1       0.000  -9.900   0.000  0.00  0.00    +0.000 A 
ATOM      7  O   UNL     1      -0.715  -9.488   0.000  0.00  0.00    +0.000 OA
ATOM      8 CL   UNL     1       0.715 -11.963   0.000  0.00  0.00    +0.000 Cl
ENDROOT
BRANCH   1  12
ATOM      9  N   UNL     1       1.429  -7.425   0.000  0.00  0.00    +0.000 NA
ATOM     10  C   UNL     1       1.429  -8.250   0.000  0.00  0.00    +0.000 C 
ATOM     11  O   UNL     1       2.143  -8.662   0.000  0.00  0.00    +0.000 OA
ATOM     12  N   UNL     1       0.715  -8.662   0.000  0.00  0.00    +0.000 NA
BRANCH   9  15
ATOM     13  C   UNL     1       3.572  -7.013   0.000  0.00  0.00    +0.000 A 
ATOM     14  C   UNL     1       2.858  -7.425   0.000  0.00  0.00    +0.000 A 
ATOM     15  C   UNL     1       2.143  -7.013   0.000  0.00  0.00    +0.000 A 
ATOM     16  C   UNL     1       2.143  -6.188   0.000  0.00  0.00    +0.000 A 
ATOM     17  C   UNL     1       2.858  -5.775   0.000  0.00  0.00    +0.000 A 
ATOM     18  C   UNL     1       3.572  -6.188   0.000  0.00  0.00    +0.000 A 
ATOM     19  F   UNL     1       2.858  -4.950   0.000  0.00  0.00    +0.000 F 
ATOM     20 CL   UNL     1       1.429  -5.775   0.000  0.00  0.00    +0.000 Cl
ENDBRANCH   9  15
ENDBRANCH   1  12
BRANCH   5  21
ATOM     21  S   UNL     1      -0.715 -11.137   0.000  0.00  0.00    +0.000 S 
ATOM     22  O   UNL     1      -1.127 -10.423   0.000  0.00  0.00    +0.000 OA
ATOM     23  O   UNL     1      -0.302 -11.852   0.000  0.00  0.00    +0.000 OA
BRANCH  21  24
ATOM     24  N   UNL     1      -1.429 -11.550   0.000  0.00  0.00    +0.000 NA
ATOM     25  C   UNL     1      -1.429 -12.375   0.000  0.00  0.00    +0.000 C 
ATOM     26  C   UNL     1      -2.143 -12.787   0.000  0.00  0.00    +0.000 C 
ATOM     27  N   UNL     1      -2.858 -12.375   0.000  0.00  0.00    +0.000 NA
ATOM     28  C   UNL     1      -2.858 -11.550   0.000  0.00  0.00    +0.000 C 
ATOM     29  C   UNL     1      -2.143 -11.137   0.000  0.00  0.00    +0.000 C 
ENDBRANCH  21  24
ENDBRANCH   5  21
TORSDOF 4
