REMARK  Name = 
REMARK  10 active torsions:
REMARK  status: ('A' for Active; 'I' for Inactive)
REMARK    1  A    between atoms: O_1  and  C_2
REMARK    2  A    between atoms: O_1  and  C_56
REMARK    3  A    between atoms: C_5  and  C_9
REMARK    4  A    between atoms: C_19  and  O_25
REMARK    5  A    between atoms: O_25  and  C_28
REMARK    6  A    between atoms: C_26  and  C_56
REMARK    7  A    between atoms: C_30  and  O_32
REMARK    8  A    between atoms: O_32  and  C_35
REMARK    9  A    between atoms: C_34  and  C_38
REMARK   10  A    between atoms: C_43  and  C_47
REMARK                            x       y       z     vdW  Elec       q    Type
REMARK                         _______ _______ _______ _____ _____    ______ ____
ROOT
ATOM      1  C   UNL     1       0.728  -0.925   0.000  0.00  0.00    +0.000 C 
ATOM      2  C   UNL     1       0.027  -0.503   0.000  0.00  0.00    +0.000 C 
ATOM      3  C   UNL     1       1.446  -0.518   0.000  0.00  0.00    +0.000 C 
ATOM      4  C   UNL     1       0.728  -1.747   0.000  0.00  0.00    +0.000 C 
ATOM      5  C   UNL     1      -0.691  -0.918   0.000  0.00  0.00    +0.000 C 
ATOM      6  C   UNL     1       0.031   0.318   0.000  0.00  0.00    +0.000 C 
ATOM      7  C   UNL     1       1.416   0.303   0.000  0.00  0.00    +0.000 C 
ATOM      8  C   UNL     1       0.020  -2.153   0.000  0.00  0.00    +0.000 C 
ATOM      9  C   UNL     1      -0.698  -1.743   0.000  0.00  0.00    +0.000 C 
ATOM     10  C   UNL     1      -1.406  -0.500   0.000  0.00  0.00    +0.000 C 
ATOM     11  C   UNL     1      -0.698  -0.093   0.000  0.00  0.00    +0.000 C 
ATOM     12  C   UNL     1       0.746   0.721   0.000  0.00  0.00    +0.000 C 
ATOM     13  C   UNL     1      -1.406  -2.153   0.000  0.00  0.00    +0.000 C 
ATOM     14  C   UNL     1      -2.126  -0.918   0.000  0.00  0.00    +0.000 C 
ATOM     15  C   UNL     1      -2.126  -1.743   0.000  0.00  0.00    +0.000 C 
ATOM     16  C   UNL     1       1.437  -1.332   0.000  0.00  0.00    +0.000 C 
ATOM     17  C   UNL     1       2.167  -0.111   0.000  0.00  0.00    +0.000 C 
ATOM     18  C   UNL     1       2.967   0.096   0.000  0.00  0.00    +0.000 C 
ATOM     19  C   UNL     1      -1.168  -2.990   0.000  0.00  0.00    +0.000 C 
ENDROOT
BRANCH  13  20
ATOM     20  C   UNL     1      -1.824  -2.883   0.000  0.00  0.00    +0.000 C 
ATOM     21  O   UNL     1      -2.655  -2.886   0.000  0.00  0.00    +0.000 OA
BRANCH  20  22
ATOM     22  O   UNL     1      -1.490  -3.685   0.000  0.00  0.00    +0.000 OA
BRANCH  22  23
ATOM     23  C   UNL     1      -2.206  -4.106   0.000  0.00  0.00    +0.000 C 
ATOM     24  O   UNL     1      -2.923  -3.705   0.000  0.00  0.00    +0.000 OA
ATOM     25  C   UNL     1      -2.190  -4.933   0.000  0.00  0.00    +0.000 C 
ATOM     26  C   UNL     1      -3.629  -4.118   0.000  0.00  0.00    +0.000 C 
ATOM     27  C   UNL     1      -2.905  -5.345   0.000  0.00  0.00    +0.000 C 
ATOM     28  O   UNL     1      -1.470  -5.335   0.000  0.00  0.00    +0.000 OA
ATOM     29  C   UNL     1      -3.623  -4.947   0.000  0.00  0.00    +0.000 C 
ATOM     30  O   UNL     1      -2.894  -6.173   0.000  0.00  0.00    +0.000 OA
ATOM     31  O   UNL     1      -4.334  -5.367   0.000  0.00  0.00    +0.000 OA
BRANCH  26  32
ATOM     32  C   UNL     1      -4.349  -3.715   0.000  0.00  0.00    +0.000 C 
ATOM     33  O   UNL     1      -5.053  -4.138   0.000  0.00  0.00    +0.000 OA
ENDBRANCH  26  32
ENDBRANCH  22  23
ENDBRANCH  20  22
ENDBRANCH  13  20
BRANCH   7  34
ATOM     34  O   UNL     1       1.450   1.150   0.000  0.00  0.00    +0.000 OA
BRANCH  34  35
ATOM     35  C   UNL     1       2.196   1.633   0.000  0.00  0.00    +0.000 C 
ATOM     36  C   UNL     1       2.200   2.454   0.000  0.00  0.00    +0.000 C 
ATOM     37  O   UNL     1       2.916   1.218   0.000  0.00  0.00    +0.000 OA
ATOM     38  C   UNL     1       2.916   2.861   0.000  0.00  0.00    +0.000 C 
ATOM     39  C   UNL     1       3.627   1.626   0.000  0.00  0.00    +0.000 C 
ATOM     40  C   UNL     1       3.627   2.454   0.000  0.00  0.00    +0.000 C 
ATOM     41  O   UNL     1       2.923   3.690   0.000  0.00  0.00    +0.000 OA
ATOM     42  O   UNL     1       4.342   2.861   0.000  0.00  0.00    +0.000 OA
BRANCH  39  43
ATOM     43  C   UNL     1       4.342   1.211   0.000  0.00  0.00    +0.000 C 
ATOM     44  O   UNL     1       5.053   1.618   0.000  0.00  0.00    +0.000 OA
ENDBRANCH  39  43
BRANCH  36  45
ATOM     45  O   UNL     1       1.488   2.868   0.000  0.00  0.00    +0.000 OA
BRANCH  45  46
ATOM     46  C   UNL     1       1.481   3.693   0.000  0.00  0.00    +0.000 C 
ATOM     47  O   UNL     1       2.185   4.111   0.000  0.00  0.00    +0.000 OA
ATOM     48  C   UNL     1       0.763   4.100   0.000  0.00  0.00    +0.000 C 
ATOM     49  C   UNL     1       2.182   4.936   0.000  0.00  0.00    +0.000 C 
ATOM     50  C   UNL     1       0.759   4.925   0.000  0.00  0.00    +0.000 C 
ATOM     51  O   UNL     1       0.048   3.683   0.000  0.00  0.00    +0.000 OA
ATOM     52  C   UNL     1       1.463   5.339   0.000  0.00  0.00    +0.000 C 
ATOM     53  O   UNL     1       0.041   5.319   0.000  0.00  0.00    +0.000 OA
ATOM     54  O   UNL     1       1.460   6.157   0.000  0.00  0.00    +0.000 OA
BRANCH  49  55
ATOM     55  C   UNL     1       2.901   5.342   0.000  0.00  0.00    +0.000 C 
ATOM     56  O   UNL     1       2.909   6.173   0.000  0.00  0.00    +0.000 OA
ENDBRANCH  49  55
ENDBRANCH  45  46
ENDBRANCH  36  45
ENDBRANCH  34  35
ENDBRANCH   7  34
TORSDOF 10
