REMARK  Name = 
REMARK  6 active torsions:
REMARK  status: ('A' for Active; 'I' for Inactive)
REMARK    1  A    between atoms: C_2  and  C_5
REMARK    2  A    between atoms: C_5  and  N_6
REMARK    3  A    between atoms: C_9  and  C_10
REMARK    4  A    between atoms: C_12  and  C_13
REMARK    5  A    between atoms: N_22  and  C_23
REMARK    6  A    between atoms: C_25  and  C_26
REMARK                            x       y       z     vdW  Elec       q    Type
REMARK                         _______ _______ _______ _____ _____    ______ ____
ROOT
ATOM      1  N   UNL     1       1.450  -1.489   0.000  0.00  0.00    +0.000 NA
ATOM      2  C   UNL     1       1.033  -0.777   0.000  0.00  0.00    +0.000 A 
ATOM      3  N   UNL     1       1.450  -0.056   0.000  0.00  0.00    +0.000 NA
ATOM      4  C   UNL     1       1.033   0.655   0.000  0.00  0.00    +0.000 A 
ATOM      5  N   UNL     1       0.208   0.655   0.000  0.00  0.00    +0.000 NA
ATOM      6  C   UNL     1      -0.208  -0.056   0.000  0.00  0.00    +0.000 A 
ATOM      7  N   UNL     1      -1.033  -0.056   0.000  0.00  0.00    +0.000 NA
ATOM      8  N   UNL     1       0.208  -0.777   0.000  0.00  0.00    +0.000 NA
ENDROOT
BRANCH   4   9
ATOM      9  C   UNL     1       1.450   1.376   0.000  0.00  0.00    +0.000 A 
ATOM     10  N   UNL     1       2.275   1.376   0.000  0.00  0.00    +0.000 NA
ATOM     11  C   UNL     1       2.692   2.088   0.000  0.00  0.00    +0.000 A 
ATOM     12  C   UNL     1       2.275   2.809   0.000  0.00  0.00    +0.000 A 
ATOM     13  C   UNL     1       1.450   2.809   0.000  0.00  0.00    +0.000 A 
ATOM     14  C   UNL     1       1.033   2.088   0.000  0.00  0.00    +0.000 A 
BRANCH  11  15
ATOM     15  C   UNL     1       3.517   2.088   0.000  0.00  0.00    +0.000 C 
ATOM     16  F   UNL     1       3.517   1.263   0.000  0.00  0.00    +0.000 F 
ATOM     17  F   UNL     1       3.517   2.922   0.000  0.00  0.00    +0.000 F 
ATOM     18  F   UNL     1       4.341   2.088   0.000  0.00  0.00    +0.000 F 
ENDBRANCH  11  15
ENDBRANCH   4   9
BRANCH   7  19
ATOM     19  C   UNL     1      -1.450  -0.777   0.000  0.00  0.00    +0.000 A 
ATOM     20  C   UNL     1      -2.275  -0.777   0.000  0.00  0.00    +0.000 A 
ATOM     21  C   UNL     1      -2.692  -1.489   0.000  0.00  0.00    +0.000 A 
ATOM     22  N   UNL     1      -2.275  -2.210   0.000  0.00  0.00    +0.000 NA
ATOM     23  C   UNL     1      -1.450  -2.210   0.000  0.00  0.00    +0.000 A 
ATOM     24  C   UNL     1      -1.033  -1.489   0.000  0.00  0.00    +0.000 A 
BRANCH  21  25
ATOM     25  C   UNL     1      -3.517  -1.489   0.000  0.00  0.00    +0.000 C 
ATOM     26  F   UNL     1      -3.517  -0.664   0.000  0.00  0.00    +0.000 F 
ATOM     27  F   UNL     1      -3.517  -2.314   0.000  0.00  0.00    +0.000 F 
ATOM     28  F   UNL     1      -4.341  -1.489   0.000  0.00  0.00    +0.000 F 
ENDBRANCH  21  25
ENDBRANCH   7  19
BRANCH   1  29
ATOM     29  C   UNL     1       2.275  -1.489   0.000  0.00  0.00    +0.000 C 
BRANCH  29  31
ATOM     30  C   UNL     1       1.971  -2.618   0.000  0.00  0.00    +0.000 C 
ATOM     31  C   UNL     1       2.692  -2.210   0.000  0.00  0.00    +0.000 C 
ATOM     32  O   UNL     1       3.404  -1.793   0.000  0.00  0.00    +0.000 OA
ATOM     33  C   UNL     1       3.100  -2.922   0.000  0.00  0.00    +0.000 C 
ENDBRANCH  29  31
ENDBRANCH   1  29
TORSDOF 6
