REMARK  Name = 
REMARK  17 active torsions:
REMARK  status: ('A' for Active; 'I' for Inactive)
REMARK    1  A    between atoms: O_4  and  C_42
REMARK    2  A    between atoms: O_4  and  C_47
REMARK    3  A    between atoms: O_8  and  C_51
REMARK    4  A    between atoms: O_8  and  C_59
REMARK    5  A    between atoms: O_10  and  C_53
REMARK    6  A    between atoms: O_10  and  C_62
REMARK    7  A    between atoms: N_29  and  C_39
REMARK    8  A    between atoms: N_30  and  C_44
REMARK    9  A    between atoms: N_36  and  C_97
REMARK   10  A    between atoms: N_37  and  C_104
REMARK   11  A    between atoms: C_56  and  C_58
REMARK   12  A    between atoms: C_77  and  C_85
REMARK   13  A    between atoms: C_90  and  C_102
REMARK   14  A    between atoms: C_102  and  C_108
REMARK   15  A    between atoms: C_104  and  C_105
REMARK   16  A    between atoms: C_104  and  C_106
REMARK   17  A    between atoms: C_105  and  C_107
REMARK                            x       y       z     vdW  Elec       q    Type
REMARK                         _______ _______ _______ _____ _____    ______ ____
ROOT
ATOM      1 CL   UNK A   1      -2.858   1.403   0.000  0.00  0.00    +0.000 Cl
ATOM      2 CL   UNK A   1       2.858   1.403   0.000  0.00  0.00    +0.000 Cl
ATOM      3  O   UNK A   1      -1.429   0.578   0.000  0.00  0.00    +0.000 OA
ATOM      4  O   UNK A   1       1.429   0.578   0.000  0.00  0.00    +0.000 OA
ATOM      5  O   UNK A   1      -5.826  -2.310   0.000  0.00  0.00    +0.000 OA
ATOM      6  O   UNK A   1      -2.146  -1.481   0.000  0.00  0.00    +0.000 OA
ATOM      7  O   UNK A   1      -0.716  -3.135   0.000  0.00  0.00    +0.000 OA
ATOM      8  O   UNK A   1      -2.143  -5.610   0.000  0.00  0.00    +0.000 OA
ATOM      9  O   UNK A   1       1.429  -1.072   0.000  0.00  0.00    +0.000 OA
ATOM     10  O   UNK A   2      -2.858  -6.022   0.000  0.00  0.00    +0.000 OA
ATOM     11  O   UNK A   2      -5.716  -6.022   0.000  0.00  0.00    +0.000 OA
ATOM     12  O   UNK A   1       4.870  -0.489   0.000  0.00  0.00    +0.000 OA
ATOM     13  O   UNK A   1       3.572  -3.135   0.000  0.00  0.00    +0.000 OA
ATOM     14  N   UNK A   1      -3.572  -2.310   0.000  0.00  0.00    +0.000 N 
ATOM     15  N   UNK A   2      -5.001  -3.135   0.000  0.00  0.00    +0.000 N 
ATOM     16  N   UNK A   1      -1.429  -1.897   0.000  0.00  0.00    +0.000 N 
ATOM     17  N   UNK A   1       0.714  -2.310   0.000  0.00  0.00    +0.000 N 
ATOM     18  N   UNK A   1       2.858  -1.897   0.000  0.00  0.00    +0.000 N 
ATOM     19  C   UNK A   1      -4.287  -1.072   0.000  0.00  0.00    +0.000 C 
ATOM     20  C   UNK A   1      -4.287  -1.897   0.000  0.00  0.00    +0.000 C 
ATOM     21  C   UNK A   1      -3.572  -0.660   0.000  0.00  0.00    +0.000 A 
ATOM     22  C   UNK A   1       0.000   0.578   0.000  0.00  0.00    +0.000 A 
ATOM     23  C   UNK A   1      -5.001  -2.310   0.000  0.00  0.00    +0.000 C 
ATOM     24  C   UNK A   1      -0.714   0.165   0.000  0.00  0.00    +0.000 A 
ATOM     25  C   UNK A   1       0.714   0.165   0.000  0.00  0.00    +0.000 A 
ATOM     26  C   UNK A   1      -3.572   0.165   0.000  0.00  0.00    +0.000 A 
ATOM     27  C   UNK A   1      -2.858  -1.072   0.000  0.00  0.00    +0.000 A 
ATOM     28  C   UNK A   1      -2.858  -1.897   0.000  0.00  0.00    +0.000 C 
ATOM     29  C   UNK A   1      -0.714  -0.660   0.000  0.00  0.00    +0.000 A 
ATOM     30  C   UNK A   1       0.000  -1.072   0.000  0.00  0.00    +0.000 A 
ATOM     31  C   UNK A   1      -2.143   0.165   0.000  0.00  0.00    +0.000 A 
ATOM     32  C   UNK A   1       0.714  -0.660   0.000  0.00  0.00    +0.000 A 
ATOM     33  C   UNK A   1      -2.858   0.578   0.000  0.00  0.00    +0.000 A 
ATOM     34  C   UNK A   1      -2.143  -0.660   0.000  0.00  0.00    +0.000 A 
ATOM     35  C   UNK A   1      -2.143  -2.310   0.000  0.00  0.00    +0.000 C 
ATOM     36  C   UNK A   1       0.000  -1.897   0.000  0.00  0.00    +0.000 C 
ATOM     37  C   UNK A   2      -4.287  -3.547   0.000  0.00  0.00    +0.000 C 
ATOM     38  C   UNK A   1      -0.714  -2.310   0.000  0.00  0.00    +0.000 C 
ATOM     39  C   UNK A   1      -2.143  -3.135   0.000  0.00  0.00    +0.000 A 
ATOM     40  C   UNK A   2      -4.287  -4.372   0.000  0.00  0.00    +0.000 A 
ATOM     41  C   UNK A   2      -3.572  -4.785   0.000  0.00  0.00    +0.000 A 
ATOM     42  C   UNK A   1      -2.858  -3.547   0.000  0.00  0.00    +0.000 A 
ATOM     43  C   UNK A   1      -2.858  -4.372   0.000  0.00  0.00    +0.000 A 
ATOM     44  C   UNK A   1       2.143   0.165   0.000  0.00  0.00    +0.000 A 
ATOM     45  C   UNK A   1      -1.429  -3.547   0.000  0.00  0.00    +0.000 A 
ATOM     46  C   UNK A   1       1.429  -1.897   0.000  0.00  0.00    +0.000 C 
ATOM     47  C   UNK A   2      -5.001  -4.785   0.000  0.00  0.00    +0.000 A 
ATOM     48  C   UNK A   1      -2.143  -4.785   0.000  0.00  0.00    +0.000 A 
ATOM     49  C   UNK A   1       2.143  -2.310   0.000  0.00  0.00    +0.000 C 
ATOM     50  C   UNK A   1      -1.429  -4.372   0.000  0.00  0.00    +0.000 A 
ATOM     51  C   UNK A   2      -3.572  -5.610   0.000  0.00  0.00    +0.000 A 
ATOM     52  C   UNK A   1       2.858   0.578   0.000  0.00  0.00    +0.000 A 
ATOM     53  C   UNK A   1       2.143  -0.660   0.000  0.00  0.00    +0.000 A 
ATOM     54  C   UNK A   2      -5.001  -5.610   0.000  0.00  0.00    +0.000 A 
ATOM     55  C   UNK A   1       3.572  -0.660   0.000  0.00  0.00    +0.000 A 
ATOM     56  C   UNK A   1       4.287  -1.897   0.000  0.00  0.00    +0.000 C 
ATOM     57  C   UNK A   1       4.287  -1.072   0.000  0.00  0.00    +0.000 C 
ATOM     58  C   UNK A   2      -4.287  -6.022   0.000  0.00  0.00    +0.000 A 
ATOM     59  C   UNK A   1       3.572   0.165   0.000  0.00  0.00    +0.000 A 
ATOM     60  C   UNK A   1       2.858  -1.072   0.000  0.00  0.00    +0.000 A 
ATOM     61  C   UNK A   1       3.572  -2.310   0.000  0.00  0.00    +0.000 C 
ATOM     62  H   UNK A   1      -3.572  -2.821   0.000  0.00  0.00    +0.000 HD
ATOM     63  H   UNK A   2      -5.444  -3.390   0.000  0.00  0.00    +0.000 HD
ATOM     64  H   UNK A   1      -1.429  -1.386   0.000  0.00  0.00    +0.000 HD
ATOM     65  H   UNK A   1       0.714  -2.821   0.000  0.00  0.00    +0.000 HD
ATOM     66  H   UNK A   1       2.449  -1.589   0.000  0.00  0.00    +0.000 HD
ENDROOT
BRANCH  56  68
ATOM     67  O   UNK A   1       4.714  -3.491   0.000  0.00  0.00    +0.000 OA
ATOM     68  N   UNK A   1       5.084  -2.111   0.000  0.00  0.00    +0.000 N 
ATOM     69  C   UNK A   1       5.297  -2.908   0.000  0.00  0.00    +0.000 C 
ATOM     70  H   UNK A   1       5.445  -1.749   0.000  0.00  0.00    +0.000 HD
BRANCH  69  71
ATOM     71  C   UNK A   1       6.094  -3.121   0.000  0.00  0.00    +0.000 C 
BRANCH  71  72
ATOM     72  N   UNK A   1       6.308  -3.918   0.000  0.00  0.00    +0.000 N 
ATOM     73  C   ACE A   0       6.521  -4.715   0.000  0.00  0.00    +0.000 C 
ATOM     74  H   UNK A   1       6.802  -3.785   0.000  0.00  0.00    +0.000 HD
ATOM     75  H   UNK A   1       5.814  -4.050   0.000  0.00  0.00    +0.000 HD
ENDBRANCH  71  72
BRANCH  71  76
ATOM     76  C   UNK A   1       6.678  -2.538   0.000  0.00  0.00    +0.000 C 
BRANCH  76  77
ATOM     77  C   UNK A   1       7.474  -2.751   0.000  0.00  0.00    +0.000 C 
ATOM     78  C   UNK A   1       7.688  -3.548   0.000  0.00  0.00    +0.000 C 
ATOM     79  C   UNK A   1       8.058  -2.168   0.000  0.00  0.00    +0.000 C 
ENDBRANCH  76  77
ENDBRANCH  71  76
ENDBRANCH  69  71
ENDBRANCH  56  68
BRANCH  37  82
ATOM     80  O   UNK A   2      -2.946  -4.041   0.000  0.00  0.00    +0.000 OA
ATOM     81  O   UNK A   2      -2.941  -2.777   0.000  0.00  0.00    +0.000 OA
ATOM     82  C   UNK A   2      -3.474  -3.407   0.000  0.00  0.00    +0.000 C 
ENDBRANCH  37  82
BRANCH  19  83
ATOM     83  O   UNK A   1      -4.870  -0.489   0.000  0.00  0.00    +0.000 OA
BRANCH  83  90
ATOM     84  O   UNK A   1      -6.250  -0.859   0.000  0.00  0.00    +0.000 OA
ATOM     85  O   UNK A   1      -8.058   0.365   0.000  0.00  0.00    +0.000 OA
ATOM     86  C   UNK A   1      -6.678   0.735   0.000  0.00  0.00    +0.000 C 
ATOM     87  C   UNK A   1      -7.261   0.152   0.000  0.00  0.00    +0.000 C 
ATOM     88  C   UNK A   1      -5.880   0.521   0.000  0.00  0.00    +0.000 C 
ATOM     89  C   UNK A   1      -7.047  -0.645   0.000  0.00  0.00    +0.000 C 
ATOM     90  C   UNK A   1      -5.667  -0.275   0.000  0.00  0.00    +0.000 C 
ATOM     91  C   UNK A   1      -6.094   1.319   0.000  0.00  0.00    +0.000 C 
ATOM     92  C   UNK A   1      -7.631  -1.228   0.000  0.00  0.00    +0.000 C 
BRANCH  86  93
ATOM     93  N   UNK A   1      -7.261   1.319   0.000  0.00  0.00    +0.000 N 
ATOM     94  H   UNK A   1      -7.622   0.957   0.000  0.00  0.00    +0.000 HD
ATOM     95  H   UNK A   1      -6.899   1.680   0.000  0.00  0.00    +0.000 HD
ATOM     96  H   UNK A   1      -7.622   1.680   0.000  0.00  0.00    +0.000 HD
ENDBRANCH  86  93
ENDBRANCH  83  90
ENDBRANCH  19  83
BRANCH  49  97
ATOM     97  C   UNK A   1       2.357  -3.107   0.000  0.00  0.00    +0.000 C 
BRANCH  97 100
ATOM     98  O   UNK A   1       0.977  -3.476   0.000  0.00  0.00    +0.000 OA
ATOM     99  N   UNK A   1       1.987  -4.487   0.000  0.00  0.00    +0.000 N 
ATOM    100  C   UNK A   1       1.774  -3.690   0.000  0.00  0.00    +0.000 C 
ATOM    101  H   UNK A   1       1.625  -4.848   0.000  0.00  0.00    +0.000 HD
ATOM    102  H   UNK A   1       2.481  -4.619   0.000  0.00  0.00    +0.000 HD
ENDBRANCH  97 100
ENDBRANCH  49  97
BRANCH  22 103
ATOM    103  O   UNK A   1       0.000   1.403   0.000  0.00  0.00    +0.000 OA
BRANCH 103 109
ATOM    104  O   UNK A   1       1.095   2.321   0.000  0.00  0.00    +0.000 OA
ATOM    105  O   UNK A   1      -0.496   4.217   0.000  0.00  0.00    +0.000 OA
ATOM    106  O   UNK A   1       1.129   4.504   0.000  0.00  0.00    +0.000 OA
ATOM    107  C   UNK A   1      -0.248   2.810   0.000  0.00  0.00    +0.000 C 
ATOM    108  C   UNK A   1       0.034   3.585   0.000  0.00  0.00    +0.000 C 
ATOM    109  C   UNK A   1       0.282   2.178   0.000  0.00  0.00    +0.000 C 
ATOM    110  C   UNK A   1       0.846   3.728   0.000  0.00  0.00    +0.000 C 
ATOM    111  C   UNK A   1       1.377   3.096   0.000  0.00  0.00    +0.000 C 
BRANCH 111 113
ATOM    112  O   UNK A   1       2.471   4.015   0.000  0.00  0.00    +0.000 OA
ATOM    113  C   UNK A   1       2.189   3.240   0.000  0.00  0.00    +0.000 C 
ENDBRANCH 111 113
BRANCH 107 114
ATOM    114  O   UNK A   1      -1.060   2.667   0.000  0.00  0.00    +0.000 OA
BRANCH 114 120
ATOM    115  O   UNK A   1      -2.403   3.155   0.000  0.00  0.00    +0.000 OA
ATOM    116  O   UNK A   1      -3.182   5.195   0.000  0.00  0.00    +0.000 OA
ATOM    117  C   UNK A   1      -1.839   4.706   0.000  0.00  0.00    +0.000 C 
ATOM    118  C   UNK A   1      -2.651   4.563   0.000  0.00  0.00    +0.000 C 
ATOM    119  C   UNK A   1      -1.309   4.074   0.000  0.00  0.00    +0.000 C 
ATOM    120  C   UNK A   1      -1.591   3.299   0.000  0.00  0.00    +0.000 C 
ATOM    121  C   UNK A   1      -2.934   3.787   0.000  0.00  0.00    +0.000 C 
ATOM    122  C   UNK A   1      -1.125   5.118   0.000  0.00  0.00    +0.000 C 
ATOM    123  C   UNK A   1      -3.746   3.644   0.000  0.00  0.00    +0.000 C 
BRANCH 117 124
ATOM    124  N   UNK A   1      -1.982   5.518   0.000  0.00  0.00    +0.000 N 
ATOM    125  H   UNK A   1      -2.071   6.022   0.000  0.00  0.00    +0.000 HD
ATOM    126  H   UNK A   1      -1.502   5.693   0.000  0.00  0.00    +0.000 HD
ATOM    127  H   UNK A   1      -2.486   5.430   0.000  0.00  0.00    +0.000 HD
ENDBRANCH 117 124
ENDBRANCH 114 120
ENDBRANCH 107 114
ENDBRANCH 103 109
ENDBRANCH  22 103
TORSDOF 17
