REMARK  Name = 
REMARK  14 active torsions:
REMARK  status: ('A' for Active; 'I' for Inactive)
REMARK    1  A    between atoms: P_1  and  O_9
REMARK    2  A    between atoms: P_1  and  O_11
REMARK    3  A    between atoms: P_2  and  O_10
REMARK    4  A    between atoms: P_2  and  O_11
REMARK    5  A    between atoms: O_9  and  C_33
REMARK    6  A    between atoms: O_10  and  C_34
REMARK    7  A    between atoms: N_18  and  C_27
REMARK    8  A    between atoms: N_19  and  C_32
REMARK    9  A    between atoms: C_28  and  C_33
REMARK   10  A    between atoms: C_31  and  C_34
REMARK   11  A    between atoms: C_39  and  C_45
REMARK   12  A    between atoms: C_40  and  C_43
REMARK   13  A    between atoms: C_43  and  C_47
REMARK   14  A    between atoms: C_47  and  C_49
REMARK                            x       y       z     vdW  Elec       q    Type
REMARK                         _______ _______ _______ _____ _____    ______ ____
ROOT
ATOM      1  P   UNL     1      -0.088   1.980   0.000  0.00  0.00    +0.000 P 
ATOM      2  O   UNL     1       0.249   2.734   0.000  0.00  0.00    +0.000 OA
ATOM      3  O   UNL     1      -0.425   1.227   0.000  0.00  0.00    +0.000 OA
ENDROOT
BRANCH   1   4
ATOM      4  O   UNL     1       0.665   1.644   0.000  0.00  0.00    +0.000 OA
BRANCH   4   5
ATOM      5  C   UNL     1       1.333   2.127   0.000  0.00  0.00    +0.000 C 
BRANCH   5  12
ATOM      6  O   UNL     1       2.256   0.983   0.000  0.00  0.00    +0.000 OA
ATOM      7  O   UNL     1       4.221   1.819   0.000  0.00  0.00    +0.000 OA
ATOM      8  O   UNL     1       2.889   3.022   0.000  0.00  0.00    +0.000 OA
ATOM      9  C   UNL     1       3.413   1.649   0.000  0.00  0.00    +0.000 C 
ATOM     10  C   UNL     1       2.801   2.202   0.000  0.00  0.00    +0.000 C 
ATOM     11  C   UNL     1       3.077   0.896   0.000  0.00  0.00    +0.000 C 
ATOM     12  C   UNL     1       2.086   1.790   0.000  0.00  0.00    +0.000 C 
BRANCH  11  13
ATOM     13  N   UNL     1       3.488   0.180   0.000  0.00  0.00    +0.000 N 
ATOM     14  C   UNL     1       3.074  -0.533   0.000  0.00  0.00    +0.000 A 
ATOM     15  C   UNL     1       4.313   0.179   0.000  0.00  0.00    +0.000 A 
ATOM     16  C   UNL     1       3.486  -1.248   0.000  0.00  0.00    +0.000 A 
ATOM     17  C   UNL     1       4.311  -1.250   0.000  0.00  0.00    +0.000 A 
ATOM     18  C   UNL     1       4.724  -0.536   0.000  0.00  0.00    +0.000 A 
BRANCH  16  21
ATOM     19  O   UNL     1       3.483  -2.677   0.000  0.00  0.00    +0.000 OA
ATOM     20  N   UNL     1       2.247  -1.961   0.000  0.00  0.00    +0.000 NA
ATOM     21  C   UNL     1       3.072  -1.962   0.000  0.00  0.00    +0.000 C 
ENDBRANCH  16  21
BRANCH  17  22
ATOM     22  C   UNL     1       4.722  -1.965   0.000  0.00  0.00    +0.000 C 
ATOM     23  C   UNL     1       4.308  -2.679   0.000  0.00  0.00    +0.000 C 
BRANCH  22  25
ATOM     24  O   UNL     1       5.961  -1.253   0.000  0.00  0.00    +0.000 OA
ATOM     25  C   UNL     1       5.547  -1.966   0.000  0.00  0.00    +0.000 C 
BRANCH  25  26
ATOM     26  C   UNL     1       5.958  -2.682   0.000  0.00  0.00    +0.000 C 
ATOM     27  C   UNL     1       6.783  -2.683   0.000  0.00  0.00    +0.000 C 
ENDBRANCH  25  26
ENDBRANCH  22  25
ENDBRANCH  17  22
ENDBRANCH  11  13
ENDBRANCH   5  12
ENDBRANCH   4   5
ENDBRANCH   1   4
BRANCH   1  28
ATOM     28  O   UNL     1      -0.841   2.317   0.000  0.00  0.00    +0.000 OA
BRANCH  28  29
ATOM     29  P   UNL     1      -1.509   1.834   0.000  0.00  0.00    +0.000 P 
ATOM     30  O   UNL     1      -1.026   1.165   0.000  0.00  0.00    +0.000 OA
ATOM     31  O   UNL     1      -1.993   2.502   0.000  0.00  0.00    +0.000 OA
BRANCH  29  32
ATOM     32  O   UNL     1      -2.178   1.350   0.000  0.00  0.00    +0.000 OA
BRANCH  32  33
ATOM     33  C   UNL     1      -2.931   1.687   0.000  0.00  0.00    +0.000 C 
BRANCH  33  39
ATOM     34  O   UNL     1      -3.601   0.378   0.000  0.00  0.00    +0.000 OA
ATOM     35  O   UNL     1      -4.637   2.244   0.000  0.00  0.00    +0.000 OA
ATOM     36  O   UNL     1      -5.694   0.794   0.000  0.00  0.00    +0.000 OA
ATOM     37  C   UNL     1      -4.383   1.459   0.000  0.00  0.00    +0.000 C 
ATOM     38  C   UNL     1      -4.870   0.793   0.000  0.00  0.00    +0.000 C 
ATOM     39  C   UNL     1      -3.599   1.203   0.000  0.00  0.00    +0.000 C 
ATOM     40  C   UNL     1      -4.386   0.124   0.000  0.00  0.00    +0.000 C 
BRANCH  40  41
ATOM     41  N   UNL     1      -4.642  -0.660   0.000  0.00  0.00    +0.000 N 
ATOM     42  N   UNL     1      -4.642  -1.988   0.000  0.00  0.00    +0.000 NA
ATOM     43  N   UNL     1      -6.137  -0.498   0.000  0.00  0.00    +0.000 NA
ATOM     44  N   UNL     1      -6.852  -1.736   0.000  0.00  0.00    +0.000 NA
ATOM     45  N   UNL     1      -6.137  -2.974   0.000  0.00  0.00    +0.000 NA
ATOM     46  C   UNL     1      -5.423  -0.911   0.000  0.00  0.00    +0.000 A 
ATOM     47  C   UNL     1      -4.161  -1.324   0.000  0.00  0.00    +0.000 A 
ATOM     48  C   UNL     1      -5.423  -1.736   0.000  0.00  0.00    +0.000 A 
ATOM     49  C   UNL     1      -6.137  -2.149   0.000  0.00  0.00    +0.000 A 
ATOM     50  C   UNL     1      -6.852  -0.911   0.000  0.00  0.00    +0.000 A 
ENDBRANCH  40  41
ENDBRANCH  33  39
ENDBRANCH  32  33
ENDBRANCH  29  32
ENDBRANCH  28  29
ENDBRANCH   1  28
TORSDOF 14
