REMARK  Name = 
REMARK  3 active torsions:
REMARK  status: ('A' for Active; 'I' for Inactive)
REMARK    1  A    between atoms: N_3  and  C_6
REMARK    2  A    between atoms: C_4  and  C_10
REMARK    3  A    between atoms: C_6  and  C_7
REMARK                            x       y       z     vdW  Elec       q    Type
REMARK                         _______ _______ _______ _____ _____    ______ ____
ROOT
ATOM      1  C   UNL     1      -0.552   0.424   0.000  0.00  0.00    +0.000 C 
ATOM      2  C   UNL     1      -0.806  -0.360   0.000  0.00  0.00    +0.000 C 
ATOM      3  N   UNL     1      -0.139  -0.845   0.000  0.00  0.00    +0.000 N 
ATOM      4  C   UNL     1       0.528  -0.360   0.000  0.00  0.00    +0.000 C 
ATOM      5  N   UNL     1       0.273   0.424   0.000  0.00  0.00    +0.000 NA
ATOM      6  O   UNL     1       1.141   0.192   0.000  0.00  0.00    +0.000 OA
ATOM      7  O   UNL     1      -1.104   1.037   0.000  0.00  0.00    +0.000 OA
ATOM      8  O   UNL     1      -1.591  -0.615   0.000  0.00  0.00    +0.000 OA
ENDROOT
BRANCH   4   9
ATOM      9  C   UNL     1       1.380  -0.794   0.000  0.00  0.00    +0.000 C 
ATOM     10  N   UNL     1       2.109  -0.284   0.000  0.00  0.00    +0.000 NA
ENDBRANCH   4   9
BRANCH   3  11
ATOM     11  C   UNL     1      -0.139  -1.670   0.000  0.00  0.00    +0.000 C 
BRANCH  11  12
ATOM     12  C   UNL     1      -0.854  -2.083   0.000  0.00  0.00    +0.000 C 
ATOM     13  O   UNL     1      -1.568  -1.670   0.000  0.00  0.00    +0.000 OA
ATOM     14  O   UNL     1      -0.854  -2.908   0.000  0.00  0.00    +0.000 OA
ENDBRANCH  11  12
ENDBRANCH   3  11
TORSDOF 3
