REMARK  Name = 
REMARK  4 active torsions:
REMARK  status: ('A' for Active; 'I' for Inactive)
REMARK    1  A    between atoms: S_1  and  N_3
REMARK    2  A    between atoms: S_1  and  C_7
REMARK    3  A    between atoms: C_2  and  N_3
REMARK    4  A    between atoms: N_4  and  C_9
REMARK                            x       y       z     vdW  Elec       q    Type
REMARK                         _______ _______ _______ _____ _____    ______ ____
ROOT
ATOM      1  C   UNL     1      -1.446   1.079   0.000  0.00  0.00    +0.000 A 
ATOM      2  N   UNL     1      -2.115   0.600   0.000  0.00  0.00    +0.000 N 
ATOM      3  C   UNL     1      -1.695   1.868   0.000  0.00  0.00    +0.000 A 
ATOM      4  N   UNL     1      -2.776   1.085   0.000  0.00  0.00    +0.000 NA
ATOM      5  C   UNL     1      -2.517   1.868   0.000  0.00  0.00    +0.000 A 
ENDROOT
BRANCH   2   6
ATOM      6  C   UNL     1      -2.115  -0.222   0.000  0.00  0.00    +0.000 A 
ATOM      7  C   UNL     1      -1.406  -0.636   0.000  0.00  0.00    +0.000 A 
ATOM      8  C   UNL     1      -2.833  -0.627   0.000  0.00  0.00    +0.000 A 
ATOM      9  C   UNL     1      -2.835  -1.454   0.000  0.00  0.00    +0.000 A 
ATOM     10  C   UNL     1      -1.408  -1.464   0.000  0.00  0.00    +0.000 A 
ATOM     11  C   UNL     1      -2.127  -1.868   0.000  0.00  0.00    +0.000 A 
ENDBRANCH   2   6
BRANCH   1  12
ATOM     12  N   UNL     1      -0.732   0.667   0.000  0.00  0.00    +0.000 NA
BRANCH  12  13
ATOM     13  S   UNL     1      -0.017   1.080   0.000  0.00  0.00    +0.000 S 
ATOM     14  O   UNL     1      -0.430   1.794   0.000  0.00  0.00    +0.000 OA
ATOM     15  O   UNL     1       0.395   1.795   0.000  0.00  0.00    +0.000 OA
BRANCH  13  16
ATOM     16  C   UNL     1       0.692   0.671   0.000  0.00  0.00    +0.000 A 
ATOM     17  C   UNL     1       0.692  -0.154   0.000  0.00  0.00    +0.000 A 
ATOM     18  C   UNL     1       1.406   1.084   0.000  0.00  0.00    +0.000 A 
ATOM     19  C   UNL     1       2.121  -0.152   0.000  0.00  0.00    +0.000 A 
ATOM     20  N   UNL     1       2.835  -0.565   0.000  0.00  0.00    +0.000 NA
ATOM     21  C   UNL     1       1.407  -0.566   0.000  0.00  0.00    +0.000 A 
ATOM     22  C   UNL     1       2.121   0.672   0.000  0.00  0.00    +0.000 A 
ENDBRANCH  13  16
ENDBRANCH  12  13
ENDBRANCH   1  12
TORSDOF 4
