REMARK  Name = 
REMARK  7 active torsions:
REMARK  status: ('A' for Active; 'I' for Inactive)
REMARK    1  A    between atoms: C_1  and  O_5
REMARK    2  A    between atoms: O_2  and  C_4
REMARK    3  A    between atoms: O_2  and  C_9
REMARK    4  A    between atoms: O_5  and  C_10
REMARK    5  A    between atoms: C_6  and  O_11
REMARK    6  A    between atoms: C_8  and  C_9
REMARK    7  A    between atoms: C_8  and  C_10
REMARK                            x       y       z     vdW  Elec       q    Type
REMARK                         _______ _______ _______ _____ _____    ______ ____
ROOT
ATOM      1  O   UNL     1       1.079  -0.221   0.000  0.00  0.00    +0.000 OA
ENDROOT
BRANCH   1   2
ATOM      2  C   UNL     1       1.807   0.202   0.000  0.00  0.00    +0.000 A 
ATOM      3  C   UNL     1       2.522  -0.206   0.000  0.00  0.00    +0.000 A 
ATOM      4  C   UNL     1       1.807   1.032   0.000  0.00  0.00    +0.000 A 
ATOM      5  C   UNL     1       3.236   0.202   0.000  0.00  0.00    +0.000 A 
ATOM      6  C   UNL     1       2.522   1.445   0.000  0.00  0.00    +0.000 A 
ATOM      7  C   UNL     1       3.236   1.037   0.000  0.00  0.00    +0.000 A 
BRANCH   3   8
ATOM      8  O   UNL     1       2.522  -1.037   0.000  0.00  0.00    +0.000 OA
ATOM      9  C   UNL     1       1.807  -1.445   0.000  0.00  0.00    +0.000 C 
ENDBRANCH   3   8
ENDBRANCH   1   2
BRANCH   1  10
ATOM     10  C   UNL     1       0.350   0.187   0.000  0.00  0.00    +0.000 C 
BRANCH  10  11
ATOM     11  C   UNL     1      -0.355  -0.236   0.000  0.00  0.00    +0.000 C 
ATOM     12  O   UNL     1      -0.335  -1.081   0.000  0.00  0.00    +0.000 OA
BRANCH  11  13
ATOM     13  C   UNL     1      -1.083   0.163   0.000  0.00  0.00    +0.000 C 
BRANCH  13  14
ATOM     14  O   UNL     1      -1.798  -0.260   0.000  0.00  0.00    +0.000 OA
BRANCH  14  15
ATOM     15  C   UNL     1      -2.526   0.143   0.000  0.00  0.00    +0.000 C 
ATOM     16  O   UNL     1      -2.551   0.974   0.000  0.00  0.00    +0.000 OA
ATOM     17  N   UNL     1      -3.236  -0.289   0.000  0.00  0.00    +0.000 NA
ENDBRANCH  14  15
ENDBRANCH  13  14
ENDBRANCH  11  13
ENDBRANCH  10  11
ENDBRANCH   1  10
TORSDOF 7
