REMARK  Name = 
REMARK  18 active torsions:
REMARK  status: ('A' for Active; 'I' for Inactive)
REMARK    1  A    between atoms: C_1  and  C_2
REMARK    2  A    between atoms: C_1  and  C_3
REMARK    3  A    between atoms: C_1  and  S_4
REMARK    4  A    between atoms: C_2  and  O_5
REMARK    5  A    between atoms: C_3  and  C_7
REMARK    6  A    between atoms: O_5  and  C_11
REMARK    7  A    between atoms: C_7  and  O_12
REMARK    8  A    between atoms: C_11  and  C_14
REMARK    9  A    between atoms: O_12  and  C_15
REMARK   10  A    between atoms: C_14  and  C_16
REMARK   11  A    between atoms: C_14  and  C_17
REMARK   12  A    between atoms: C_15  and  C_18
REMARK   13  A    between atoms: C_16  and  C_19
REMARK   14  A    between atoms: C_18  and  C_21
REMARK   15  A    between atoms: C_18  and  C_22
REMARK   16  A    between atoms: C_19  and  C_23
REMARK   17  A    between atoms: C_21  and  C_24
REMARK   18  A    between atoms: C_24  and  C_27
REMARK                            x       y       z     vdW  Elec       q    Type
REMARK                         _______ _______ _______ _____ _____    ______ ____
ROOT
ATOM      1  C   UNL     1       0.359  -0.050   0.000  0.00  0.00    +0.000 C 
ENDROOT
BRANCH   1   2
ATOM      2  S   UNL     1       0.359   0.776   0.000  0.00  0.00    +0.000 S 
ATOM      3  O   UNL     1       0.359   1.698   0.000  0.00  0.00    +0.000 OA
ATOM      4  O   UNL     1      -0.477   0.741   0.000  0.00  0.00    +0.000 OA
ATOM      5  O   UNL     1       1.234   0.744   0.000  0.00  0.00    +0.000 OA
ENDBRANCH   1   2
BRANCH   1   6
ATOM      6  C   UNL     1       1.075  -0.461   0.000  0.00  0.00    +0.000 C 
ATOM      7  O   UNL     1       1.075  -1.287   0.000  0.00  0.00    +0.000 OA
BRANCH   6   8
ATOM      8  O   UNL     1       1.786  -0.050   0.000  0.00  0.00    +0.000 OA
BRANCH   8   9
ATOM      9  C   UNL     1       2.498  -0.461   0.000  0.00  0.00    +0.000 C 
BRANCH   9  10
ATOM     10  C   UNL     1       3.213  -0.050   0.000  0.00  0.00    +0.000 C 
BRANCH  10  11
ATOM     11  C   UNL     1       3.213   0.776   0.000  0.00  0.00    +0.000 C 
ATOM     12  C   UNL     1       3.929   1.190   0.000  0.00  0.00    +0.000 C 
ENDBRANCH  10  11
BRANCH  10  13
ATOM     13  C   UNL     1       3.929  -0.461   0.000  0.00  0.00    +0.000 C 
BRANCH  13  14
ATOM     14  C   UNL     1       4.644  -0.050   0.000  0.00  0.00    +0.000 C 
BRANCH  14  15
ATOM     15  C   UNL     1       5.359  -0.461   0.000  0.00  0.00    +0.000 C 
ATOM     16  C   UNL     1       6.074  -0.050   0.000  0.00  0.00    +0.000 C 
ENDBRANCH  14  15
ENDBRANCH  13  14
ENDBRANCH  10  13
ENDBRANCH   9  10
ENDBRANCH   8   9
ENDBRANCH   6   8
ENDBRANCH   1   6
BRANCH   1  17
ATOM     17  C   UNL     1      -0.356  -0.461   0.000  0.00  0.00    +0.000 C 
BRANCH  17  18
ATOM     18  C   UNL     1      -1.071  -0.050   0.000  0.00  0.00    +0.000 C 
ATOM     19  O   UNL     1      -1.071   0.776   0.000  0.00  0.00    +0.000 OA
BRANCH  18  20
ATOM     20  O   UNL     1      -1.786  -0.461   0.000  0.00  0.00    +0.000 OA
BRANCH  20  21
ATOM     21  C   UNL     1      -2.498  -0.050   0.000  0.00  0.00    +0.000 C 
BRANCH  21  22
ATOM     22  C   UNL     1      -3.213  -0.461   0.000  0.00  0.00    +0.000 C 
BRANCH  22  23
ATOM     23  C   UNL     1      -3.213  -1.287   0.000  0.00  0.00    +0.000 C 
ATOM     24  C   UNL     1      -3.929  -1.698   0.000  0.00  0.00    +0.000 C 
ENDBRANCH  22  23
BRANCH  22  25
ATOM     25  C   UNL     1      -3.929  -0.050   0.000  0.00  0.00    +0.000 C 
BRANCH  25  26
ATOM     26  C   UNL     1      -4.640  -0.461   0.000  0.00  0.00    +0.000 C 
BRANCH  26  27
ATOM     27  C   UNL     1      -5.359  -0.050   0.000  0.00  0.00    +0.000 C 
ATOM     28  C   UNL     1      -6.074  -0.461   0.000  0.00  0.00    +0.000 C 
ENDBRANCH  26  27
ENDBRANCH  25  26
ENDBRANCH  22  25
ENDBRANCH  21  22
ENDBRANCH  20  21
ENDBRANCH  18  20
ENDBRANCH  17  18
ENDBRANCH   1  17
TORSDOF 18
