REMARK  Name = 
REMARK  3 active torsions:
REMARK  status: ('A' for Active; 'I' for Inactive)
REMARK    1  A    between atoms: N_3  and  C_5
REMARK    2  A    between atoms: C_13  and  C_15
REMARK    3  A    between atoms: C_15  and  C_18
REMARK                            x       y       z     vdW  Elec       q    Type
REMARK                         _______ _______ _______ _____ _____    ______ ____
ROOT
ATOM      1  S   UNL     1       0.548  -0.875   0.000  0.00  0.00    +0.000 S 
ATOM      2  O   UNL     1      -1.577  -1.074   0.000  0.00  0.00    +0.000 OA
ATOM      3  N   UNL     1       0.816   0.571   0.000  0.00  0.00    +0.000 NA
ATOM      4  N   UNL     1      -0.511  -0.062   0.000  0.00  0.00    +0.000 NA
ATOM      5  C   UNL     1      -0.132  -1.342   0.000  0.00  0.00    +0.000 C 
ATOM      6  C   UNL     1       0.314  -0.084   0.000  0.00  0.00    +0.000 C 
ATOM      7  C   UNL     1      -0.786  -0.840   0.000  0.00  0.00    +0.000 C 
ATOM      8  C   UNL     1       0.335  -2.022   0.000  0.00  0.00    +0.000 C 
ENDROOT
BRANCH   3   9
ATOM      9  C   UNL     1       0.500   1.333   0.000  0.00  0.00    +0.000 C 
ATOM     10  C   UNL     1      -0.325   1.333   0.000  0.00  0.00    +0.000 C 
ATOM     11  C   UNL     1       1.083   1.916   0.000  0.00  0.00    +0.000 C 
ATOM     12  C   UNL     1      -0.908   1.916   0.000  0.00  0.00    +0.000 C 
ATOM     13  C   UNL     1       1.083   2.741   0.000  0.00  0.00    +0.000 C 
ATOM     14  C   UNL     1      -0.908   2.741   0.000  0.00  0.00    +0.000 C 
ATOM     15  C   UNL     1       0.500   3.325   0.000  0.00  0.00    +0.000 C 
ATOM     16  C   UNL     1      -0.325   3.325   0.000  0.00  0.00    +0.000 C 
ENDBRANCH   3   9
BRANCH   5  17
ATOM     17  C   UNL     1      -0.634  -1.996   0.000  0.00  0.00    +0.000 C 
BRANCH  17  18
ATOM     18  C   UNL     1      -0.318  -2.759   0.000  0.00  0.00    +0.000 C 
ATOM     19  C   UNL     1      -0.821  -3.413   0.000  0.00  0.00    +0.000 C 
ENDBRANCH  17  18
ENDBRANCH   5  17
TORSDOF 3
