REMARK  Name = 
REMARK  4 active torsions:
REMARK  status: ('A' for Active; 'I' for Inactive)
REMARK    1  A    between atoms: N_2  and  C_5
REMARK    2  A    between atoms: C_15  and  C_17
REMARK    3  A    between atoms: C_17  and  O_19
REMARK    4  A    between atoms: O_19  and  P_20
REMARK                            x       y       z     vdW  Elec       q    Type
REMARK                         _______ _______ _______ _____ _____    ______ ____
ROOT
ATOM      1  C   UNL     1       1.825   0.031   0.000  0.00  0.00    +0.000 A 
ATOM      2  N   UNL     1       1.198   0.475   0.000  0.00  0.00    +0.000 N 
ATOM      3  C   UNL     1       2.557   0.576   0.000  0.00  0.00    +0.000 A 
ATOM      4  N   UNL     1       1.905  -0.811   0.000  0.00  0.00    +0.000 NA
ATOM      5  C   UNL     1       1.482   1.300   0.000  0.00  0.00    +0.000 A 
ATOM      6  N   UNL     1       2.338   1.297   0.000  0.00  0.00    +0.000 NA
ATOM      7  C   UNL     1       3.302   0.243   0.000  0.00  0.00    +0.000 A 
ATOM      8  C   UNL     1       2.692  -1.154   0.000  0.00  0.00    +0.000 A 
ATOM      9  N   UNL     1       3.396  -0.638   0.000  0.00  0.00    +0.000 NA
ATOM     10  O   UNL     1       3.961   0.735   0.000  0.00  0.00    +0.000 OA
ATOM     11  N   UNL     1       2.782  -1.976   0.000  0.00  0.00    +0.000 NA
ATOM     12  O   UNL     1       1.002   1.976   0.000  0.00  0.00    +0.000 OA
ENDROOT
BRANCH   2  13
ATOM     13  C   UNL     1       0.432   0.222   0.000  0.00  0.00    +0.000 C 
ATOM     14  O   UNL     1      -0.241   0.732   0.000  0.00  0.00    +0.000 OA
ATOM     15  C   UNL     1       0.175  -0.520   0.000  0.00  0.00    +0.000 C 
ATOM     16  C   UNL     1      -0.900   0.257   0.000  0.00  0.00    +0.000 C 
ATOM     17  C   UNL     1      -0.643  -0.520   0.000  0.00  0.00    +0.000 C 
ATOM     18  O   UNL     1      -0.910  -1.300   0.000  0.00  0.00    +0.000 OA
BRANCH  16  19
ATOM     19  C   UNL     1      -1.683   0.517   0.000  0.00  0.00    +0.000 C 
BRANCH  19  20
ATOM     20  O   UNL     1      -2.304  -0.038   0.000  0.00  0.00    +0.000 OA
BRANCH  20  21
ATOM     21  P   UNL     1      -3.132  -0.038   0.000  0.00  0.00    +0.000 P 
ATOM     22  O   UNL     1      -3.961  -0.038   0.000  0.00  0.00    +0.000 OA
ATOM     23  O   UNL     1      -3.136  -0.866   0.000  0.00  0.00    +0.000 OA
ATOM     24  O   UNL     1      -3.136   0.791   0.000  0.00  0.00    +0.000 OA
ENDBRANCH  20  21
ENDBRANCH  19  20
ENDBRANCH  16  19
ENDBRANCH   2  13
TORSDOF 4
