REMARK  Name = 
REMARK  5 active torsions:
REMARK  status: ('A' for Active; 'I' for Inactive)
REMARK    1  A    between atoms: C_9  and  C_13
REMARK    2  A    between atoms: C_9  and  N_16
REMARK    3  A    between atoms: C_10  and  S_23
REMARK    4  A    between atoms: C_12  and  S_22
REMARK    5  A    between atoms: N_16  and  S_23
REMARK                            x       y       z     vdW  Elec       q    Type
REMARK                         _______ _______ _______ _____ _____    ______ ____
ROOT
ATOM      1  O   UNL     1      -0.306   3.946   0.000  0.00  0.00    +0.000 OA
ATOM      2  O   UNL     1      -1.532   5.050   0.000  0.00  0.00    +0.000 OA
ATOM      3  S   UNL     1      -0.919   4.498   0.000  0.00  0.00    +0.000 S 
ENDROOT
BRANCH   3   7
ATOM      4  C   UNL     1       0.440   4.940   0.000  0.00  0.00    +0.000 A 
ATOM      5  C   UNL     1       0.992   5.553   0.000  0.00  0.00    +0.000 A 
ATOM      6  C   UNL     1      -0.622   5.896   0.000  0.00  0.00    +0.000 A 
ATOM      7  C   UNL     1      -0.367   5.111   0.000  0.00  0.00    +0.000 A 
ATOM      8  C   UNL     1       0.737   6.337   0.000  0.00  0.00    +0.000 A 
ATOM      9  C   UNL     1      -0.070   6.509   0.000  0.00  0.00    +0.000 A 
ATOM     10 CL   UNL     1       1.289   6.950   0.000  0.00  0.00    +0.000 Cl
BRANCH   9  14
ATOM     11  N   UNL     1      -0.580   8.078   0.000  0.00  0.00    +0.000 NA
ATOM     12  O   UNL     1       0.460   7.548   0.000  0.00  0.00    +0.000 OA
ATOM     13  O   UNL     1      -1.109   7.038   0.000  0.00  0.00    +0.000 OA
ATOM     14  S   UNL     1      -0.325   7.293   0.000  0.00  0.00    +0.000 S 
ENDBRANCH   9  14
ENDBRANCH   3   7
BRANCH   3  16
ATOM     15  C   UNL     1      -1.216   3.100   0.000  0.00  0.00    +0.000 C 
ATOM     16  N   UNL     1      -1.471   3.885   0.000  0.00  0.00    +0.000 NA
BRANCH  16  17
ATOM     17  C   UNL     1      -2.278   4.056   0.000  0.00  0.00    +0.000 C 
BRANCH  17  22
ATOM     18  C   UNL     1      -3.382   4.056   0.000  0.00  0.00    +0.000 C 
ATOM     19  C   UNL     1      -2.417   2.174   0.000  0.00  0.00    +0.000 C 
ATOM     20  C   UNL     1      -2.162   2.958   0.000  0.00  0.00    +0.000 C 
ATOM     21  C   UNL     1      -3.242   2.174   0.000  0.00  0.00    +0.000 C 
ATOM     22  C   UNL     1      -2.830   3.443   0.000  0.00  0.00    +0.000 C 
ATOM     23  O   UNL     1      -3.497   2.958   0.000  0.00  0.00    +0.000 OA
ENDBRANCH  17  22
ENDBRANCH  16  17
ENDBRANCH   3  16
TORSDOF 5
