REMARK  Name = 
REMARK  6 active torsions:
REMARK  status: ('A' for Active; 'I' for Inactive)
REMARK    1  A    between atoms: C_7  and  C_55
REMARK    2  A    between atoms: C_14  and  C_17
REMARK    3  A    between atoms: C_33  and  N_38
REMARK    4  A    between atoms: C_35  and  C_40
REMARK    5  A    between atoms: C_42  and  C_43
REMARK    6  A    between atoms: C_55  and  C_56
REMARK                            x       y       z     vdW  Elec       q    Type
REMARK                         _______ _______ _______ _____ _____    ______ ____
ROOT
ATOM      1  N   UNL     1       2.460  -0.825   0.000  0.00  0.00    +0.000 N 
ATOM      2  C   UNL     1       2.067  -1.571   0.000  0.00  0.00    +0.000 C 
ATOM      3  C   UNL     1       2.028  -0.118   0.000  0.00  0.00    +0.000 C 
ATOM      4  C   UNL     1       3.285  -0.825   0.000  0.00  0.00    +0.000 C 
ATOM      5  C   UNL     1       1.164  -1.571   0.000  0.00  0.00    +0.000 C 
ATOM      6  C   UNL     1       2.499  -2.278   0.000  0.00  0.00    +0.000 C 
ATOM      7  C   UNL     1       2.421   0.589   0.000  0.00  0.00    +0.000 C 
ATOM      8  O   UNL     1       1.203  -0.118   0.000  0.00  0.00    +0.000 OA
ATOM      9  C   UNL     1       3.756  -1.532   0.000  0.00  0.00    +0.000 C 
ATOM     10  N   UNL     1       0.417  -1.021   0.000  0.00  0.00    +0.000 NA
ATOM     11  O   UNL     1       0.928  -2.357   0.000  0.00  0.00    +0.000 OA
ATOM     12  C   UNL     1       3.324  -2.278   0.000  0.00  0.00    +0.000 C 
ATOM     13  N   UNL     1       2.028   1.296   0.000  0.00  0.00    +0.000 N 
ATOM     14  C   UNL     1      -0.329  -1.414   0.000  0.00  0.00    +0.000 C 
ATOM     15  O   UNL     1       3.756  -2.946   0.000  0.00  0.00    +0.000 OA
ATOM     16  C   UNL     1       1.203   1.296   0.000  0.00  0.00    +0.000 C 
ATOM     17  C   UNL     1      -0.997  -1.021   0.000  0.00  0.00    +0.000 C 
ATOM     18  C   UNL     1       1.910   2.671   0.000  0.00  0.00    +0.000 C 
ATOM     19  O   UNL     1      -0.997  -0.157   0.000  0.00  0.00    +0.000 OA
ATOM     20  O   UNL     1      -1.743  -1.414   0.000  0.00  0.00    +0.000 OA
ATOM     21  N   UNL     1       1.085   2.671   0.000  0.00  0.00    +0.000 N 
ATOM     22  C   UNL     1       2.185   3.418   0.000  0.00  0.00    +0.000 C 
ATOM     23  C   UNL     1      -1.743   0.236   0.000  0.00  0.00    +0.000 C 
ATOM     24  C   UNL     1       0.417   2.239   0.000  0.00  0.00    +0.000 C 
ATOM     25  C   UNL     1       0.850   3.418   0.000  0.00  0.00    +0.000 C 
ATOM     26  C   UNL     1       1.556   3.928   0.000  0.00  0.00    +0.000 C 
ATOM     27  C   UNL     1      -1.743   1.061   0.000  0.00  0.00    +0.000 C 
ATOM     28  C   UNL     1      -2.450  -0.157   0.000  0.00  0.00    +0.000 C 
ATOM     29  C   UNL     1      -0.329   2.671   0.000  0.00  0.00    +0.000 C 
ATOM     30  O   UNL     1       0.417   1.454   0.000  0.00  0.00    +0.000 OA
ATOM     31  C   UNL     1      -0.997   1.454   0.000  0.00  0.00    +0.000 C 
ATOM     32  N   UNL     1      -0.997   2.239   0.000  0.00  0.00    +0.000 NA
ATOM     33  O   UNL     1      -0.329   1.061   0.000  0.00  0.00    +0.000 OA
ATOM     34  C   UNL     1       2.421   2.003   0.000  0.00  0.00    +0.000 C 
ATOM     35  O   UNL     1       3.246   2.003   0.000  0.00  0.00    +0.000 OA
ENDROOT
BRANCH  14  36
ATOM     36  C   UNL     1      -0.329  -2.278   0.000  0.00  0.00    +0.000 A 
ATOM     37  C   UNL     1      -1.036  -2.671   0.000  0.00  0.00    +0.000 A 
ATOM     38  C   UNL     1       0.417  -2.671   0.000  0.00  0.00    +0.000 A 
ATOM     39  C   UNL     1      -1.036  -3.496   0.000  0.00  0.00    +0.000 A 
ATOM     40  C   UNL     1       0.417  -3.496   0.000  0.00  0.00    +0.000 A 
ATOM     41  C   UNL     1      -0.329  -3.928   0.000  0.00  0.00    +0.000 A 
ENDBRANCH  14  36
BRANCH  27  42
ATOM     42  N   UNL     1      -2.450   1.454   0.000  0.00  0.00    +0.000 NA
ATOM     43  C   UNL     1      -3.157   1.061   0.000  0.00  0.00    +0.000 C 
ATOM     44  O   UNL     1      -3.157   0.236   0.000  0.00  0.00    +0.000 OA
BRANCH  43  45
ATOM     45  C   UNL     1      -3.865   1.454   0.000  0.00  0.00    +0.000 A 
ATOM     46  C   UNL     1      -3.865   2.239   0.000  0.00  0.00    +0.000 A 
ATOM     47  N   UNL     1      -4.572   1.061   0.000  0.00  0.00    +0.000 NA
ATOM     48  C   UNL     1      -4.572   2.671   0.000  0.00  0.00    +0.000 A 
ATOM     49  O   UNL     1      -3.157   2.671   0.000  0.00  0.00    +0.000 OA
ATOM     50  C   UNL     1      -5.279   1.454   0.000  0.00  0.00    +0.000 A 
ATOM     51  C   UNL     1      -5.279   2.239   0.000  0.00  0.00    +0.000 A 
ENDBRANCH  43  45
ENDBRANCH  27  42
BRANCH  29  52
ATOM     52  C   UNL     1      -0.329   3.496   0.000  0.00  0.00    +0.000 C 
ATOM     53  C   UNL     1      -0.997   3.928   0.000  0.00  0.00    +0.000 C 
ENDBRANCH  29  52
BRANCH   7  54
ATOM     54  C   UNL     1       3.135   0.177   0.000  0.00  0.00    +0.000 C 
BRANCH  54  55
ATOM     55  C   UNL     1       3.850   0.589   0.000  0.00  0.00    +0.000 A 
ATOM     56  C   UNL     1       3.850   1.414   0.000  0.00  0.00    +0.000 A 
ATOM     57  C   UNL     1       4.564   0.177   0.000  0.00  0.00    +0.000 A 
ATOM     58  C   UNL     1       4.564   1.827   0.000  0.00  0.00    +0.000 A 
ATOM     59  C   UNL     1       5.279   0.589   0.000  0.00  0.00    +0.000 A 
ATOM     60  C   UNL     1       5.279   1.414   0.000  0.00  0.00    +0.000 A 
ENDBRANCH  54  55
ENDBRANCH   7  54
TORSDOF 6
