REMARK  Name = 
REMARK  4 active torsions:
REMARK  status: ('A' for Active; 'I' for Inactive)
REMARK    1  A    between atoms: N_8  and  C_11
REMARK    2  A    between atoms: N_8  and  C_12
REMARK    3  A    between atoms: N_9  and  C_15
REMARK    4  A    between atoms: N_9  and  C_16
REMARK                            x       y       z     vdW  Elec       q    Type
REMARK                         _______ _______ _______ _____ _____    ______ ____
ROOT
ATOM      1  N   UNL     1      -0.354   0.423   0.000  0.00  0.00    +0.000 NA
ATOM      2  C   UNL     1      -0.354  -0.405   0.000  0.00  0.00    +0.000 A 
ATOM      3  N   UNL     1       0.361  -0.817   0.000  0.00  0.00    +0.000 NA
ATOM      4  C   UNL     1       1.076  -0.405   0.000  0.00  0.00    +0.000 A 
ATOM      5  N   UNL     1       1.076   0.423   0.000  0.00  0.00    +0.000 NA
ATOM      6  C   UNL     1       0.361   0.835   0.000  0.00  0.00    +0.000 A 
ATOM      7  N   UNL     1       0.361   1.659   0.000  0.00  0.00    +0.000 NA
ATOM      8  N   UNL     1       1.793  -0.826   0.000  0.00  0.00    +0.000 N 
ATOM      9  N   UNL     1      -1.072  -0.830   0.000  0.00  0.00    +0.000 N 
ATOM     10  N   UNL     1       1.070   2.067   0.000  0.00  0.00    +0.000 NA
ENDROOT
BRANCH   8  11
ATOM     11  C   UNL     1       1.792  -1.654   0.000  0.00  0.00    +0.000 C 
ATOM     12  C   UNL     1       2.501  -2.067   0.000  0.00  0.00    +0.000 C 
ENDBRANCH   8  11
BRANCH   8  13
ATOM     13  C   UNL     1       2.507  -0.415   0.000  0.00  0.00    +0.000 C 
ATOM     14  C   UNL     1       2.505   0.412   0.000  0.00  0.00    +0.000 C 
ENDBRANCH   8  13
BRANCH   9  15
ATOM     15  C   UNL     1      -1.798  -0.423   0.000  0.00  0.00    +0.000 C 
ATOM     16  C   UNL     1      -2.507  -0.845   0.000  0.00  0.00    +0.000 C 
ENDBRANCH   9  15
BRANCH   9  17
ATOM     17  C   UNL     1      -1.058  -1.659   0.000  0.00  0.00    +0.000 C 
ATOM     18  C   UNL     1      -0.344  -2.067   0.000  0.00  0.00    +0.000 C 
ENDBRANCH   9  17
TORSDOF 4
