REMARK  Name = 
REMARK  11 active torsions:
REMARK  status: ('A' for Active; 'I' for Inactive)
REMARK    1  A    between atoms: N_7  and  C_13
REMARK    2  A    between atoms: N_8  and  CA_17
REMARK    3  A    between atoms: N_9  and  CA_20
REMARK    4  A    between atoms: C_10  and  C_11
REMARK    5  A    between atoms: C_10  and  C_12
REMARK    6  A    between atoms: C_11  and  C_13
REMARK    7  A    between atoms: C_12  and  C_14
REMARK    8  A    between atoms: C_13  and  C_16
REMARK    9  A    between atoms: C_14  and  C_15
REMARK   10  A    between atoms: CA_17  and  C_21
REMARK   11  A    between atoms: C_18  and  CA_20
REMARK                            x       y       z     vdW  Elec       q    Type
REMARK                         _______ _______ _______ _____ _____    ______ ____
ROOT
ATOM      1  C   UNK A   2       0.136   1.444   0.000  0.00  0.00    +0.000 C 
ENDROOT
BRANCH   1   2
ATOM      2  C   UNK A   2       0.136   2.269   0.000  0.00  0.00    +0.000 C 
BRANCH   2   4
ATOM      3  O   GLY A   1       1.565   1.444   0.000  0.00  0.00    +0.000 OA
ATOM      4  N   UNK A   2       0.850   2.681   0.000  0.00  0.00    +0.000 N 
ATOM      5  C   GLY A   1       1.565   2.269   0.000  0.00  0.00    +0.000 C 
ATOM      6  H   UNK A   2       0.850   3.193   0.000  0.00  0.00    +0.000 HD
BRANCH   5   7
ATOM      7  CA  GLY A   1       2.279   2.681   0.000  0.00  0.00    +0.000 C 
BRANCH   7   8
ATOM      8  N   GLY A   1       2.994   2.269   0.000  0.00  0.00    +0.000 NA
ATOM      9  H1  GLY A   1       2.994   1.757   0.000  0.00  0.00    +0.000 HD
ATOM     10  H2  GLY A   1       3.437   2.525   0.000  0.00  0.00    +0.000 HD
ENDBRANCH   7   8
ENDBRANCH   5   7
ENDBRANCH   2   4
BRANCH   2  13
ATOM     11  O   UNK A   2      -1.293   2.269   0.000  0.00  0.00    +0.000 OA
ATOM     12  O   UNK A   2      -0.579   3.506   0.000  0.00  0.00    +0.000 OA
ATOM     13  C   UNK A   2      -0.579   2.681   0.000  0.00  0.00    +0.000 C 
ENDBRANCH   2  13
ENDBRANCH   1   2
BRANCH   1  14
ATOM     14  C   UNK A   2      -0.579   1.031   0.000  0.00  0.00    +0.000 C 
BRANCH  14  15
ATOM     15  C   UNK A   0      -0.579   0.206   0.000  0.00  0.00    +0.000 C 
BRANCH  15  16
ATOM     16  C   UNK A   0      -1.293  -0.206   0.000  0.00  0.00    +0.000 C 
BRANCH  16  19
ATOM     17  O   UNK A   0      -0.579  -1.444   0.000  0.00  0.00    +0.000 OA
ATOM     18  N   GLY A   1      -2.008  -1.444   0.000  0.00  0.00    +0.000 N 
ATOM     19  C   UNK A   0      -1.293  -1.031   0.000  0.00  0.00    +0.000 C 
ATOM     20  H   GLY A   1      -2.451  -1.188   0.000  0.00  0.00    +0.000 HD
BRANCH  18  21
ATOM     21  CA  GLY A   1      -2.008  -2.269   0.000  0.00  0.00    +0.000 C 
ATOM     22  CB  GLY A   1      -1.293  -2.681   0.000  0.00  0.00    +0.000 C 
BRANCH  21  25
ATOM     23  O   GLY A   1      -2.722  -3.506   0.000  0.00  0.00    +0.000 OA
ATOM     24  OXT GLY A   1      -3.437  -2.269   0.000  0.00  0.00    +0.000 OA
ATOM     25  C   GLY A   1      -2.722  -2.681   0.000  0.00  0.00    +0.000 C 
ENDBRANCH  21  25
ENDBRANCH  18  21
ENDBRANCH  16  19
ENDBRANCH  15  16
ENDBRANCH  14  15
ENDBRANCH   1  14
TORSDOF 11
