REMARK  Name = 
REMARK  4 active torsions:
REMARK  status: ('A' for Active; 'I' for Inactive)
REMARK    1  A    between atoms: C_4  and  C_7
REMARK    2  A    between atoms: C_7  and  C_8
REMARK    3  A    between atoms: C_13  and  N_15
REMARK    4  A    between atoms: C_19  and  C_21
REMARK                            x       y       z     vdW  Elec       q    Type
REMARK                         _______ _______ _______ _____ _____    ______ ____
ROOT
ATOM      1  C   UNL     1       0.638  -1.181   0.000  0.00  0.00    +0.000 C 
ATOM      2  N   UNL     1       0.184  -1.870   0.000  0.00  0.00    +0.000 NA
ATOM      3  C   UNL     1      -0.823  -1.577   0.000  0.00  0.00    +0.000 C 
ATOM      4  C   UNL     1      -1.458  -1.729   0.000  0.00  0.00    +0.000 C 
ATOM      5  C   UNL     1      -0.578  -1.900   0.000  0.00  0.00    +0.000 C 
ATOM      6  C   UNL     1      -0.139  -1.219   0.000  0.00  0.00    +0.000 C 
ATOM      7  C   UNL     1       0.414  -2.753   0.000  0.00  0.00    +0.000 C 
ATOM      8  C   UNL     1      -0.349  -2.747   0.000  0.00  0.00    +0.000 C 
ENDROOT
BRANCH   6   9
ATOM      9  N   UNL     1      -0.552  -0.504   0.000  0.00  0.00    +0.000 NA
ATOM     10  C   UNL     1      -1.377  -0.504   0.000  0.00  0.00    +0.000 C 
ATOM     11  O   UNL     1      -1.789  -1.219   0.000  0.00  0.00    +0.000 OA
BRANCH  10  12
ATOM     12  C   UNL     1      -1.789   0.210   0.000  0.00  0.00    +0.000 A 
ATOM     13  C   UNL     1      -1.454   0.964   0.000  0.00  0.00    +0.000 A 
ATOM     14  O   UNL     1      -2.610   0.296   0.000  0.00  0.00    +0.000 OA
ATOM     15  C   UNL     1      -2.781   1.103   0.000  0.00  0.00    +0.000 A 
ATOM     16  C   UNL     1      -2.067   1.516   0.000  0.00  0.00    +0.000 A 
ATOM     17  C   UNL     1      -3.496   1.516   0.000  0.00  0.00    +0.000 A 
ATOM     18  C   UNL     1      -3.496   2.341   0.000  0.00  0.00    +0.000 A 
ATOM     19  C   UNL     1      -2.781   2.753   0.000  0.00  0.00    +0.000 A 
ATOM     20  C   UNL     1      -2.067   2.341   0.000  0.00  0.00    +0.000 A 
ENDBRANCH  10  12
ENDBRANCH   6   9
BRANCH   1  21
ATOM     21  C   UNL     1       1.355  -0.773   0.000  0.00  0.00    +0.000 C 
BRANCH  21  25
ATOM     22  C   UNL     1       3.491  -2.022   0.000  0.00  0.00    +0.000 A 
ATOM     23  C   UNL     1       2.774  -2.431   0.000  0.00  0.00    +0.000 A 
ATOM     24  C   UNL     1       2.062  -2.014   0.000  0.00  0.00    +0.000 A 
ATOM     25  C   UNL     1       2.067  -1.189   0.000  0.00  0.00    +0.000 A 
ATOM     26  C   UNL     1       2.784  -0.781   0.000  0.00  0.00    +0.000 A 
ATOM     27  N   UNL     1       3.496  -1.197   0.000  0.00  0.00    +0.000 NA
ENDBRANCH  21  25
ENDBRANCH   1  21
TORSDOF 4
