REMARK  Name = 
REMARK  50 active torsions:
REMARK  status: ('A' for Active; 'I' for Inactive)
REMARK    1  A    between atoms: N_21  and  C_49
REMARK    2  A    between atoms: N_22  and  C_47
REMARK    3  A    between atoms: N_25  and  C_58
REMARK    4  A    between atoms: N_26  and  C_59
REMARK    5  A    between atoms: N_27  and  C_63
REMARK    6  A    between atoms: N_29  and  C_70
REMARK    7  A    between atoms: N_30  and  C_75
REMARK    8  A    between atoms: N_31  and  C_77
REMARK    9  A    between atoms: N_32  and  C_73
REMARK   10  A    between atoms: N_33  and  C_78
REMARK   11  A    between atoms: N_35  and  C_92
REMARK   12  A    between atoms: N_37  and  C_100
REMARK   13  A    between atoms: N_40  and  C_110
REMARK   14  A    between atoms: C_41  and  C_46
REMARK   15  A    between atoms: C_45  and  C_47
REMARK   16  A    between atoms: C_47  and  C_48
REMARK   17  A    between atoms: C_48  and  C_50
REMARK   18  A    between atoms: C_49  and  C_51
REMARK   19  A    between atoms: C_49  and  C_53
REMARK   20  A    between atoms: C_50  and  C_52
REMARK   21  A    between atoms: C_52  and  C_57
REMARK   22  A    between atoms: C_56  and  C_58
REMARK   23  A    between atoms: C_59  and  C_60
REMARK   24  A    between atoms: C_59  and  C_61
REMARK   25  A    between atoms: C_61  and  C_62
REMARK   26  A    between atoms: C_63  and  C_64
REMARK   27  A    between atoms: C_63  and  C_65
REMARK   28  A    between atoms: C_65  and  C_69
REMARK   29  A    between atoms: C_69  and  C_73
REMARK   30  A    between atoms: C_70  and  C_71
REMARK   31  A    between atoms: C_70  and  C_74
REMARK   32  A    between atoms: C_74  and  C_86
REMARK   33  A    between atoms: C_75  and  C_79
REMARK   34  A    between atoms: C_75  and  C_82
REMARK   35  A    between atoms: C_77  and  C_84
REMARK   36  A    between atoms: C_77  and  C_85
REMARK   37  A    between atoms: C_78  and  C_81
REMARK   38  A    between atoms: C_78  and  C_87
REMARK   39  A    between atoms: C_81  and  C_88
REMARK   40  A    between atoms: C_82  and  C_89
REMARK   41  A    between atoms: C_84  and  C_90
REMARK   42  A    between atoms: C_88  and  C_91
REMARK   43  A    between atoms: C_90  and  C_103
REMARK   44  A    between atoms: C_92  and  C_93
REMARK   45  A    between atoms: C_92  and  C_99
REMARK   46  A    between atoms: C_100  and  C_104
REMARK   47  A    between atoms: C_100  and  C_105
REMARK   48  A    between atoms: C_105  and  C_108
REMARK   49  A    between atoms: C_109  and  C_110
REMARK   50  A    between atoms: C_110  and  C_113
REMARK                            x       y       z     vdW  Elec       q    Type
REMARK                         _______ _______ _______ _____ _____    ______ ____
ROOT
ATOM      1  C   UNK A   1       6.408   0.594   0.000  0.00  0.00    +0.000 C 
ENDROOT
BRANCH   1   3
ATOM      2  O   UNK A   1       6.584   2.234   0.000  0.00  0.00    +0.000 OA
ATOM      3  N   UNK A   1       7.162   0.928   0.000  0.00  0.00    +0.000 NA
ATOM      4  C   UNK A   1       7.250   1.748   0.000  0.00  0.00    +0.000 C 
BRANCH   4   5
ATOM      5  C   UNK A   1       8.005   2.082   0.000  0.00  0.00    +0.000 C 
BRANCH   5   7
ATOM      6  O   UNK A   1       9.513   2.751   0.000  0.00  0.00    +0.000 OA
ATOM      7  N   UNK A   1       8.671   1.596   0.000  0.00  0.00    +0.000 NA
ATOM      8  C   UNK A   1       9.425   1.931   0.000  0.00  0.00    +0.000 C 
BRANCH   8   9
ATOM      9  C   UNK A   1      10.092   1.444   0.000  0.00  0.00    +0.000 C 
BRANCH   9  11
ATOM     10  O   UNK A   1      11.425   0.472   0.000  0.00  0.00    +0.000 OA
ATOM     11  N   UNK A   1      10.846   1.779   0.000  0.00  0.00    +0.000 NA
ATOM     12  C   UNK A   1      11.513   1.293   0.000  0.00  0.00    +0.000 C 
BRANCH  12  13
ATOM     13  C   UNK A   1      12.267   1.627   0.000  0.00  0.00    +0.000 C 
BRANCH  13  15
ATOM     14  O   UNK A   1      13.776   2.295   0.000  0.00  0.00    +0.000 OA
ATOM     15  N   UNK A   1      12.934   1.141   0.000  0.00  0.00    +0.000 NA
ATOM     16  C   UNK A   1      13.688   1.475   0.000  0.00  0.00    +0.000 C 
BRANCH  16  17
ATOM     17  C   UNK A   1      14.355   0.989   0.000  0.00  0.00    +0.000 C 
BRANCH  17  19
ATOM     18  O   UNK A   1      15.688   0.017   0.000  0.00  0.00    +0.000 OA
ATOM     19  N   UNK A   1      15.109   1.323   0.000  0.00  0.00    +0.000 NA
ATOM     20  C   UNK A   1      15.775   0.837   0.000  0.00  0.00    +0.000 C 
BRANCH  20  21
ATOM     21  C   UNK A   1      16.530   1.171   0.000  0.00  0.00    +0.000 C 
BRANCH  21  23
ATOM     22  O   UNK A   1      16.354  -0.469   0.000  0.00  0.00    +0.000 OA
ATOM     23  N   UNK A   1      17.196   0.685   0.000  0.00  0.00    +0.000 NA
ATOM     24  C   UNK A   1      17.109  -0.135   0.000  0.00  0.00    +0.000 C 
BRANCH  24  25
ATOM     25  C   UNK A   1      17.775  -0.621   0.000  0.00  0.00    +0.000 C 
BRANCH  25  27
ATOM     26  O   UNK A   0      19.108  -1.593   0.000  0.00  0.00    +0.000 OA
ATOM     27  N   UNK A   1      17.688  -1.441   0.000  0.00  0.00    +0.000 NA
ATOM     28  C   UNK A   0      18.354  -1.927   0.000  0.00  0.00    +0.000 C 
ATOM     29  C   UNK A   0      18.267  -2.748   0.000  0.00  0.00    +0.000 C 
ENDBRANCH  25  27
BRANCH  25  31
ATOM     30  O   UNK A   1      19.196  -0.773   0.000  0.00  0.00    +0.000 OA
ATOM     31  C   UNK A   1      18.529  -0.287   0.000  0.00  0.00    +0.000 C 
ENDBRANCH  25  31
ENDBRANCH  24  25
ENDBRANCH  21  23
BRANCH  21  32
ATOM     32  C   UNK A   1      16.617   1.992   0.000  0.00  0.00    +0.000 C 
BRANCH  32  34
ATOM     33  O   UNK A   1      19.634   3.329   0.000  0.00  0.00    +0.000 OA
ATOM     34  C   UNK A   1      17.372   2.326   0.000  0.00  0.00    +0.000 A 
ATOM     35  C   UNK A   1      18.038   1.840   0.000  0.00  0.00    +0.000 A 
ATOM     36  C   UNK A   1      17.459   3.146   0.000  0.00  0.00    +0.000 A 
ATOM     37  C   UNK A   1      18.792   2.174   0.000  0.00  0.00    +0.000 A 
ATOM     38  C   UNK A   1      18.213   3.481   0.000  0.00  0.00    +0.000 A 
ATOM     39  C   UNK A   1      18.880   2.994   0.000  0.00  0.00    +0.000 A 
ENDBRANCH  32  34
ENDBRANCH  21  32
ENDBRANCH  20  21
ENDBRANCH  17  19
BRANCH  17  41
ATOM     40  O   UNK A   1      14.933  -0.317   0.000  0.00  0.00    +0.000 OA
ATOM     41  C   UNK A   1      14.267   0.169   0.000  0.00  0.00    +0.000 C 
ENDBRANCH  17  41
ENDBRANCH  16  17
ENDBRANCH  13  15
BRANCH  13  42
ATOM     42  C   UNK A   1      12.355   2.447   0.000  0.00  0.00    +0.000 C 
BRANCH  42  43
ATOM     43  C   UNK A   1      13.109   2.781   0.000  0.00  0.00    +0.000 C 
BRANCH  43  44
ATOM     44  C   UNK A   1      13.197   3.602   0.000  0.00  0.00    +0.000 C 
ATOM     45  C   UNK A   1      13.951   3.936   0.000  0.00  0.00    +0.000 C 
ENDBRANCH  43  44
ENDBRANCH  42  43
ENDBRANCH  13  42
ENDBRANCH  12  13
ENDBRANCH   9  11
BRANCH   9  46
ATOM     46  C   UNK A   1      10.004   0.624   0.000  0.00  0.00    +0.000 C 
BRANCH  46  47
ATOM     47  C   UNK A   1      10.671   0.138   0.000  0.00  0.00    +0.000 C 
BRANCH  47  50
ATOM     48  O   UNK A   1      11.250  -1.168   0.000  0.00  0.00    +0.000 OA
ATOM     49  O   UNK A   1       9.829  -1.016   0.000  0.00  0.00    +0.000 OA
ATOM     50  C   UNK A   1      10.583  -0.682   0.000  0.00  0.00    +0.000 C 
ENDBRANCH  47  50
ENDBRANCH  46  47
ENDBRANCH   9  46
ENDBRANCH   8   9
ENDBRANCH   5   7
BRANCH   5  51
ATOM     51  C   UNK A   1       8.092   2.903   0.000  0.00  0.00    +0.000 C 
BRANCH  51  54
ATOM     52  N   UNK A   1       7.427   4.214   0.000  0.00  0.00    +0.000 NA
ATOM     53  N   UNK A   1       6.157   3.803   0.000  0.00  0.00    +0.000 NA
ATOM     54  C   UNK A   1       7.426   3.389   0.000  0.00  0.00    +0.000 A 
ATOM     55  C   UNK A   1       6.641   3.135   0.000  0.00  0.00    +0.000 A 
ATOM     56  C   UNK A   1       6.643   4.470   0.000  0.00  0.00    +0.000 A 
ENDBRANCH  51  54
ENDBRANCH   5  51
ENDBRANCH   4   5
ENDBRANCH   1   3
BRANCH   1  59
ATOM     57  O   UNK A   1       5.829   1.900   0.000  0.00  0.00    +0.000 OA
ATOM     58  N   UNK A   1       4.987   0.745   0.000  0.00  0.00    +0.000 NA
ATOM     59  C   UNK A   1       5.742   1.079   0.000  0.00  0.00    +0.000 C 
BRANCH  58  60
ATOM     60  C   UNK A   1       4.321   1.231   0.000  0.00  0.00    +0.000 C 
BRANCH  60  63
ATOM     61  O   UNK A   1       3.479   0.077   0.000  0.00  0.00    +0.000 OA
ATOM     62  N   UNK A   1       2.900   1.383   0.000  0.00  0.00    +0.000 NA
ATOM     63  C   UNK A   1       3.567   0.897   0.000  0.00  0.00    +0.000 C 
BRANCH  62  64
ATOM     64  C   UNK A   1       2.146   1.049   0.000  0.00  0.00    +0.000 C 
BRANCH  64  67
ATOM     65  O   UNK A   1       2.725  -0.257   0.000  0.00  0.00    +0.000 OA
ATOM     66  N   UNK A   1       1.304  -0.106   0.000  0.00  0.00    +0.000 NA
ATOM     67  C   UNK A   1       2.058   0.229   0.000  0.00  0.00    +0.000 C 
BRANCH  66  68
ATOM     68  C   UNK A   1       1.216  -0.926   0.000  0.00  0.00    +0.000 C 
BRANCH  68  71
ATOM     69  O   UNK A   1      -0.205  -0.774   0.000  0.00  0.00    +0.000 OA
ATOM     70  N   UNK A   1       0.374  -2.080   0.000  0.00  0.00    +0.000 NA
ATOM     71  C   UNK A   1       0.462  -1.260   0.000  0.00  0.00    +0.000 C 
BRANCH  70  72
ATOM     72  C   UNK A   1      -0.380  -2.415   0.000  0.00  0.00    +0.000 C 
BRANCH  72  79
ATOM     73  O   UNK A   1       0.199  -3.721   0.000  0.00  0.00    +0.000 OA
ATOM     74  N   UNK A   1      -1.222  -3.569   0.000  0.00  0.00    +0.000 N 
ATOM     75  C   UNK A   1      -1.395  -4.376   0.000  0.00  0.00    +0.000 C 
ATOM     76  C   UNK A   1      -2.215  -4.461   0.000  0.00  0.00    +0.000 C 
ATOM     77  C   UNK A   1      -2.550  -3.707   0.000  0.00  0.00    +0.000 C 
ATOM     78  C   UNK A   1      -1.936  -3.156   0.000  0.00  0.00    +0.000 C 
ATOM     79  C   UNK A   1      -0.468  -3.235   0.000  0.00  0.00    +0.000 C 
BRANCH  75  82
ATOM     80  O   UNK A   1      -0.037  -4.820   0.000  0.00  0.00    +0.000 OA
ATOM     81  N   UNK A   1      -1.100  -5.774   0.000  0.00  0.00    +0.000 NA
ATOM     82  C   UNK A   1      -0.844  -4.990   0.000  0.00  0.00    +0.000 C 
BRANCH  81  83
ATOM     83  C   UNK A   1      -0.549  -6.388   0.000  0.00  0.00    +0.000 C 
BRANCH  83  84
ATOM     84  C   UNK A   1       0.258  -6.218   0.000  0.00  0.00    +0.000 C 
ATOM     85  C   UNK A   1       0.514  -5.434   0.000  0.00  0.00    +0.000 C 
ATOM     86  C   UNK A   1       0.809  -6.832   0.000  0.00  0.00    +0.000 C 
ENDBRANCH  83  84
BRANCH  83  89
ATOM     87  O   UNK A   1      -1.613  -7.343   0.000  0.00  0.00    +0.000 OA
ATOM     88  N   UNK A   1      -0.255  -7.787   0.000  0.00  0.00    +0.000 NA
ATOM     89  C   UNK A   1      -0.805  -7.172   0.000  0.00  0.00    +0.000 C 
ENDBRANCH  83  89
ENDBRANCH  81  83
ENDBRANCH  75  82
ENDBRANCH  72  79
BRANCH  72  90
ATOM     90  C   UNK A   1      -1.047  -1.929   0.000  0.00  0.00    +0.000 C 
BRANCH  90  91
ATOM     91  C   UNK A   1      -1.801  -2.263   0.000  0.00  0.00    +0.000 C 
BRANCH  91  92
ATOM     92  C   UNK A   1      -2.467  -1.777   0.000  0.00  0.00    +0.000 C 
BRANCH  92  94
ATOM     93  N   UNK A   1      -3.309  -2.931   0.000  0.00  0.00    +0.000 NA
ATOM     94  C   UNK A   1      -3.222  -2.111   0.000  0.00  0.00    +0.000 C 
ENDBRANCH  92  94
ENDBRANCH  91  92
ENDBRANCH  90  91
ENDBRANCH  72  90
ENDBRANCH  70  72
ENDBRANCH  68  71
ENDBRANCH  66  68
ENDBRANCH  64  67
BRANCH  64  95
ATOM     95  C   UNK A   1       1.479   1.535   0.000  0.00  0.00    +0.000 C 
BRANCH  95  97
ATOM     96  N   UNK A   1      -0.640   1.347   0.000  0.00  0.00    +0.000 NA
ATOM     97  C   UNK A   1       0.659   1.623   0.000  0.00  0.00    +0.000 A 
ATOM     98  C   UNK A   1       0.251   2.334   0.000  0.00  0.00    +0.000 A 
ATOM     99  C   UNK A   1       0.109   1.014   0.000  0.00  0.00    +0.000 A 
ATOM    100  C   UNK A   1      -0.556   2.163   0.000  0.00  0.00    +0.000 A 
ATOM    101  C   UNK A   1       0.505   3.119   0.000  0.00  0.00    +0.000 A 
ATOM    102  C   UNK A   1      -1.108   2.776   0.000  0.00  0.00    +0.000 A 
ATOM    103  C   UNK A   1      -0.046   3.732   0.000  0.00  0.00    +0.000 A 
ATOM    104  C   UNK A   1      -0.854   3.560   0.000  0.00  0.00    +0.000 A 
ENDBRANCH  95  97
ENDBRANCH  64  95
ENDBRANCH  62  64
ENDBRANCH  60  63
BRANCH  60 105
ATOM    105  C   UNK A   1       4.409   2.052   0.000  0.00  0.00    +0.000 C 
BRANCH 105 106
ATOM    106  C   UNK A   1       3.742   2.538   0.000  0.00  0.00    +0.000 C 
BRANCH 106 107
ATOM    107  C   UNK A   1       3.829   3.358   0.000  0.00  0.00    +0.000 C 
BRANCH 107 108
ATOM    108  N   UNK A   1       3.163   3.844   0.000  0.00  0.00    +0.000 NA
ATOM    109  N   UNK A   1       4.005   4.999   0.000  0.00  0.00    +0.000 NA
ATOM    110  N   UNK A   1       2.584   5.151   0.000  0.00  0.00    +0.000 NA
ATOM    111  C   UNK A   1       3.251   4.665   0.000  0.00  0.00    +0.000 C 
ENDBRANCH 107 108
ENDBRANCH 106 107
ENDBRANCH 105 106
ENDBRANCH  60 105
ENDBRANCH  58  60
ENDBRANCH   1  59
BRANCH   1 112
ATOM    112  C   UNK A   1       6.321  -0.227   0.000  0.00  0.00    +0.000 C 
BRANCH 112 113
ATOM    113  C   UNK A   1       6.987  -0.713   0.000  0.00  0.00    +0.000 A 
ATOM    114  C   UNK A   1       7.742  -0.379   0.000  0.00  0.00    +0.000 A 
ATOM    115  C   UNK A   1       6.900  -1.533   0.000  0.00  0.00    +0.000 A 
ATOM    116  C   UNK A   1       8.408  -0.865   0.000  0.00  0.00    +0.000 A 
ATOM    117  C   UNK A   1       7.566  -2.019   0.000  0.00  0.00    +0.000 A 
ATOM    118  C   UNK A   1       8.320  -1.685   0.000  0.00  0.00    +0.000 A 
ENDBRANCH 112 113
ENDBRANCH   1 112
TORSDOF 50
