REMARK  Name = 
REMARK  4 active torsions:
REMARK  status: ('A' for Active; 'I' for Inactive)
REMARK    1  A    between atoms: C_11  and  N_15
REMARK    2  A    between atoms: C_17  and  C_22
REMARK    3  A    between atoms: N_24  and  C_35
REMARK    4  A    between atoms: C_35  and  N_36
REMARK                            x       y       z     vdW  Elec       q    Type
REMARK                         _______ _______ _______ _____ _____    ______ ____
ROOT
ATOM      1  C   UNL     1      -3.511  -0.206   0.000  0.00  0.00    +0.000 A 
ATOM      2  C   UNL     1      -3.511   0.619   0.000  0.00  0.00    +0.000 A 
ATOM      3  C   UNL     1      -0.653  -0.206   0.000  0.00  0.00    +0.000 C 
ATOM      4  C   UNL     1      -0.653   0.619   0.000  0.00  0.00    +0.000 C 
ATOM      5  C   UNL     1      -1.367  -0.619   0.000  0.00  0.00    +0.000 C 
ATOM      6  C   UNL     1      -1.367   1.031   0.000  0.00  0.00    +0.000 C 
ATOM      7  C   UNL     1      -2.082  -0.206   0.000  0.00  0.00    +0.000 C 
ATOM      8  C   UNL     1      -2.082   0.619   0.000  0.00  0.00    +0.000 C 
ATOM      9  C   UNL     1      -2.796   1.031   0.000  0.00  0.00    +0.000 C 
ATOM     10  C   UNL     1      -2.796  -0.619   0.000  0.00  0.00    +0.000 C 
ATOM     11  C   UNL     1       0.061  -0.619   0.000  0.00  0.00    +0.000 C 
ATOM     12  C   UNL     1       0.061   1.031   0.000  0.00  0.00    +0.000 C 
ATOM     13  O   UNL     1      -0.653   1.444   0.000  0.00  0.00    +0.000 OA
ATOM     14  C   UNL     1       0.776  -0.206   0.000  0.00  0.00    +0.000 C 
ATOM     15  O   UNL     1      -1.367   1.856   0.000  0.00  0.00    +0.000 OA
ATOM     16  C   UNL     1       0.776   0.619   0.000  0.00  0.00    +0.000 C 
ATOM     17  O   UNL     1       0.061   1.856   0.000  0.00  0.00    +0.000 OA
ATOM     18  O   UNL     1       1.490  -0.619   0.000  0.00  0.00    +0.000 OA
ATOM     19  O   UNL     1      -2.796   1.856   0.000  0.00  0.00    +0.000 OA
ATOM     20  C   UNL     1      -4.225  -0.619   0.000  0.00  0.00    +0.000 A 
ATOM     21  C   UNL     1      -4.225   1.031   0.000  0.00  0.00    +0.000 A 
ATOM     22  C   UNL     1      -4.940  -0.206   0.000  0.00  0.00    +0.000 A 
ATOM     23  C   UNL     1      -4.940   0.619   0.000  0.00  0.00    +0.000 A 
ATOM     24  O   UNL     1      -4.225   1.856   0.000  0.00  0.00    +0.000 OA
ATOM     25  O   UNL     1      -3.511  -1.031   0.000  0.00  0.00    +0.000 OA
ATOM     26  C   UNL     1      -2.796  -1.444   0.000  0.00  0.00    +0.000 C 
ENDROOT
BRANCH  11  27
ATOM     27  N   UNL     1       0.061  -1.444   0.000  0.00  0.00    +0.000 NA
ATOM     28  C   UNL     1       0.776  -1.856   0.000  0.00  0.00    +0.000 C 
ATOM     29  C   UNL     1      -0.653  -1.856   0.000  0.00  0.00    +0.000 C 
ENDBRANCH  11  27
BRANCH  16  30
ATOM     30  C   UNL     1       1.490   1.031   0.000  0.00  0.00    +0.000 C 
ATOM     31  N   UNL     1       2.205   0.619   0.000  0.00  0.00    +0.000 NA
ATOM     32  O   UNL     1       1.490   1.856   0.000  0.00  0.00    +0.000 OA
BRANCH  31  33
ATOM     33  C   UNL     1       2.919   1.031   0.000  0.00  0.00    +0.000 C 
BRANCH  33  34
ATOM     34  N   UNL     1       3.634   0.619   0.000  0.00  0.00    +0.000 NA
ATOM     35  C   UNL     1       4.388   0.954   0.000  0.00  0.00    +0.000 C 
ATOM     36  C   UNL     1       3.720  -0.202   0.000  0.00  0.00    +0.000 C 
ATOM     37  C   UNL     1       4.940   0.341   0.000  0.00  0.00    +0.000 C 
ATOM     38  C   UNL     1       4.527  -0.373   0.000  0.00  0.00    +0.000 C 
ENDBRANCH  33  34
ENDBRANCH  31  33
ENDBRANCH  16  30
TORSDOF 4
