REMARK  Name = 
REMARK  4 active torsions:
REMARK  status: ('A' for Active; 'I' for Inactive)
REMARK    1  A    between atoms: C_6  and  C_9
REMARK    2  A    between atoms: C_6  and  C_10
REMARK    3  A    between atoms: C_9  and  C_12
REMARK    4  A    between atoms: C_12  and  C_15
REMARK                            x       y       z     vdW  Elec       q    Type
REMARK                         _______ _______ _______ _____ _____    ______ ____
ROOT
ATOM      1  O   UNL     1      -0.890   1.238   0.000  0.00  0.00    +0.000 OA
ATOM      2  O   UNL     1       0.547  -1.242   0.000  0.00  0.00    +0.000 OA
ATOM      3  O   UNL     1      -2.317  -1.238   0.000  0.00  0.00    +0.000 OA
ATOM      4  N   UNL     1      -1.604   0.000   0.000  0.00  0.00    +0.000 NA
ATOM      5  N   UNL     1      -0.890  -1.238   0.000  0.00  0.00    +0.000 NA
ATOM      6  C   UNL     1      -0.176   0.000   0.000  0.00  0.00    +0.000 C 
ATOM      7  C   UNL     1      -0.176  -0.825   0.000  0.00  0.00    +0.000 C 
ATOM      8  C   UNL     1      -0.890   0.412   0.000  0.00  0.00    +0.000 C 
ATOM      9  C   UNL     1      -1.604  -0.825   0.000  0.00  0.00    +0.000 C 
ENDROOT
BRANCH   6  10
ATOM     10  C   UNL     1       0.663   0.000   0.000  0.00  0.00    +0.000 C 
ATOM     11  C   UNL     1       1.075  -0.714   0.000  0.00  0.00    +0.000 C 
BRANCH  10  12
ATOM     12  C   UNL     1       1.071   0.714   0.000  0.00  0.00    +0.000 C 
BRANCH  12  13
ATOM     13  C   UNL     1       1.900   0.714   0.000  0.00  0.00    +0.000 C 
ATOM     14  C   UNL     1       2.317  -0.009   0.000  0.00  0.00    +0.000 C 
ENDBRANCH  12  13
ENDBRANCH  10  12
ENDBRANCH   6  10
BRANCH   6  15
ATOM     15  C   UNL     1      -0.181   0.825   0.000  0.00  0.00    +0.000 C 
ATOM     16  C   UNL     1       0.547   1.242   0.000  0.00  0.00    +0.000 C 
ENDBRANCH   6  15
TORSDOF 4
