REMARK  Name = 
REMARK  0 active torsions:
REMARK  status: ('A' for Active; 'I' for Inactive)
REMARK                            x       y       z     vdW  Elec       q    Type
REMARK                         _______ _______ _______ _____ _____    ______ ____
ROOT
ATOM      1  C   UNL     1       1.091   1.174   0.000  0.00  0.00    +0.000 C 
ATOM      2  C   UNL     1       0.347   0.816   0.000  0.00  0.00    +0.000 A 
ATOM      3  C   UNL     1       0.164   0.011   0.000  0.00  0.00    +0.000 A 
ATOM      4  C   UNL     1       0.678  -0.633   0.000  0.00  0.00    +0.000 C 
ATOM      5  C   UNL     1       1.503  -0.633   0.000  0.00  0.00    +0.000 C 
ATOM      6  N   UNL     1       2.018   0.011   0.000  0.00  0.00    +0.000 NA
ATOM      7  C   UNL     1       1.834   0.816   0.000  0.00  0.00    +0.000 C 
ATOM      8  C   UNL     1      -0.257   1.377   0.000  0.00  0.00    +0.000 A 
ATOM      9  C   UNL     1      -1.046   1.134   0.000  0.00  0.00    +0.000 A 
ATOM     10  C   UNL     1      -1.229   0.329   0.000  0.00  0.00    +0.000 A 
ATOM     11  C   UNL     1      -0.624  -0.232   0.000  0.00  0.00    +0.000 A 
ATOM     12  C   UNL     1       0.320  -1.377   0.000  0.00  0.00    +0.000 C 
ATOM     13 CL   UNL     1      -2.018   0.086   0.000  0.00  0.00    +0.000 Cl
ENDROOT
TORSDOF 0
