REMARK  Name = 
REMARK  29 active torsions:
REMARK  status: ('A' for Active; 'I' for Inactive)
REMARK    1  A    between atoms: N_5  and  N_6
REMARK    2  A    between atoms: N_5  and  C_17
REMARK    3  A    between atoms: N_6  and  C_18
REMARK    4  A    between atoms: N_7  and  C_23
REMARK    5  A    between atoms: N_8  and  C_24
REMARK    6  A    between atoms: N_9  and  C_39
REMARK    7  A    between atoms: N_10  and  C_40
REMARK    8  A    between atoms: N_11  and  C_37
REMARK    9  A    between atoms: N_12  and  C_38
REMARK   10  A    between atoms: C_13  and  C_15
REMARK   11  A    between atoms: C_13  and  C_17
REMARK   12  A    between atoms: C_13  and  C_21
REMARK   13  A    between atoms: C_14  and  C_16
REMARK   14  A    between atoms: C_14  and  C_18
REMARK   15  A    between atoms: C_14  and  C_22
REMARK   16  A    between atoms: C_15  and  C_19
REMARK   17  A    between atoms: C_16  and  C_20
REMARK   18  A    between atoms: C_19  and  C_27
REMARK   19  A    between atoms: C_20  and  C_28
REMARK   20  A    between atoms: C_23  and  C_25
REMARK   21  A    between atoms: C_23  and  C_33
REMARK   22  A    between atoms: C_24  and  C_26
REMARK   23  A    between atoms: C_24  and  C_34
REMARK   24  A    between atoms: C_25  and  C_29
REMARK   25  A    between atoms: C_26  and  C_30
REMARK   26  A    between atoms: C_29  and  C_31
REMARK   27  A    between atoms: C_30  and  C_32
REMARK   28  A    between atoms: C_31  and  C_37
REMARK   29  A    between atoms: C_32  and  C_38
REMARK                            x       y       z     vdW  Elec       q    Type
REMARK                         _______ _______ _______ _____ _____    ______ ____
ROOT
ATOM      1  N   UNL     1      -0.714  -0.412   0.000  0.00  0.00    +0.000 NA
ATOM      2  H   UNL     1      -0.272  -0.668   0.000  0.00  0.00    +0.000 HD
ENDROOT
BRANCH   1   3
ATOM      3  N   UNL     1      -0.714   0.412   0.000  0.00  0.00    +0.000 NA
ATOM      4  H   UNL     1      -1.157   0.668   0.000  0.00  0.00    +0.000 HD
BRANCH   3   5
ATOM      5  C   UNL     1       0.000   0.825   0.000  0.00  0.00    +0.000 C 
BRANCH   5   6
ATOM      6  C   UNL     1       0.000   1.650   0.000  0.00  0.00    +0.000 C 
BRANCH   6   9
ATOM      7  O   UNL     1       1.429   1.650   0.000  0.00  0.00    +0.000 OA
ATOM      8  N   UNL     1       0.714   2.888   0.000  0.00  0.00    +0.000 N 
ATOM      9  C   UNL     1       0.714   2.062   0.000  0.00  0.00    +0.000 C 
ATOM     10  H   UNL     1       0.272   3.143   0.000  0.00  0.00    +0.000 HD
BRANCH   8  11
ATOM     11  C   UNL     1       1.429   3.300   0.000  0.00  0.00    +0.000 C 
BRANCH  11  14
ATOM     12  O   UNL     1       0.714   4.537   0.000  0.00  0.00    +0.000 OA
ATOM     13  N   UNL     1       2.143   4.537   0.000  0.00  0.00    +0.000 N 
ATOM     14  C   UNL     1       1.429   4.125   0.000  0.00  0.00    +0.000 C 
ATOM     15  H   UNL     1       2.586   4.282   0.000  0.00  0.00    +0.000 HD
BRANCH  13  16
ATOM     16  C   UNL     1       2.143   5.363   0.000  0.00  0.00    +0.000 A 
ATOM     17  C   UNL     1       1.429   5.775   0.000  0.00  0.00    +0.000 A 
ATOM     18  C   UNL     1       2.858   5.775   0.000  0.00  0.00    +0.000 A 
ATOM     19  C   UNL     1       1.429   6.600   0.000  0.00  0.00    +0.000 A 
ATOM     20  C   UNL     1       2.858   6.600   0.000  0.00  0.00    +0.000 A 
ATOM     21  C   UNL     1       2.143   7.013   0.000  0.00  0.00    +0.000 A 
ENDBRANCH  13  16
ENDBRANCH  11  14
BRANCH  11  22
ATOM     22  C   UNL     1       2.143   2.888   0.000  0.00  0.00    +0.000 C 
BRANCH  22  23
ATOM     23  C   UNL     1       2.858   3.300   0.000  0.00  0.00    +0.000 C 
BRANCH  23  24
ATOM     24  C   UNL     1       3.572   2.888   0.000  0.00  0.00    +0.000 C 
BRANCH  24  25
ATOM     25  C   UNL     1       4.287   3.300   0.000  0.00  0.00    +0.000 C 
BRANCH  25  26
ATOM     26  N   UNL     1       5.001   2.888   0.000  0.00  0.00    +0.000 NA
ATOM     27  H   UNL     1       5.001   2.376   0.000  0.00  0.00    +0.000 HD
ATOM     28  H   UNL     1       5.444   3.143   0.000  0.00  0.00    +0.000 HD
ENDBRANCH  25  26
ENDBRANCH  24  25
ENDBRANCH  23  24
ENDBRANCH  22  23
ENDBRANCH  11  22
ENDBRANCH   8  11
ENDBRANCH   6   9
BRANCH   6  29
ATOM     29  C   UNL     1      -0.714   2.062   0.000  0.00  0.00    +0.000 C 
BRANCH  29  30
ATOM     30  C   UNL     1      -0.714   2.888   0.000  0.00  0.00    +0.000 C 
BRANCH  30  31
ATOM     31  C   UNL     1      -1.429   3.300   0.000  0.00  0.00    +0.000 C 
ATOM     32  C   UNL     1      -1.429   4.125   0.000  0.00  0.00    +0.000 C 
ENDBRANCH  30  31
ENDBRANCH  29  30
ENDBRANCH   6  29
ENDBRANCH   5   6
ENDBRANCH   3   5
ENDBRANCH   1   3
BRANCH   1  33
ATOM     33  C   UNL     1      -1.429  -0.825   0.000  0.00  0.00    +0.000 C 
BRANCH  33  34
ATOM     34  C   UNL     1      -1.429  -1.650   0.000  0.00  0.00    +0.000 C 
BRANCH  34  37
ATOM     35  O   UNL     1      -2.858  -1.650   0.000  0.00  0.00    +0.000 OA
ATOM     36  N   UNL     1      -2.143  -2.888   0.000  0.00  0.00    +0.000 N 
ATOM     37  C   UNL     1      -2.143  -2.062   0.000  0.00  0.00    +0.000 C 
ATOM     38  H   UNL     1      -1.700  -3.143   0.000  0.00  0.00    +0.000 HD
BRANCH  36  39
ATOM     39  C   UNL     1      -2.858  -3.300   0.000  0.00  0.00    +0.000 C 
BRANCH  39  42
ATOM     40  O   UNL     1      -2.143  -4.537   0.000  0.00  0.00    +0.000 OA
ATOM     41  N   UNL     1      -3.572  -4.537   0.000  0.00  0.00    +0.000 N 
ATOM     42  C   UNL     1      -2.858  -4.125   0.000  0.00  0.00    +0.000 C 
ATOM     43  H   UNL     1      -4.015  -4.282   0.000  0.00  0.00    +0.000 HD
BRANCH  41  44
ATOM     44  C   UNL     1      -3.572  -5.363   0.000  0.00  0.00    +0.000 A 
ATOM     45  C   UNL     1      -2.858  -5.775   0.000  0.00  0.00    +0.000 A 
ATOM     46  C   UNL     1      -4.287  -5.775   0.000  0.00  0.00    +0.000 A 
ATOM     47  C   UNL     1      -2.858  -6.600   0.000  0.00  0.00    +0.000 A 
ATOM     48  C   UNL     1      -4.287  -6.600   0.000  0.00  0.00    +0.000 A 
ATOM     49  C   UNL     1      -3.572  -7.013   0.000  0.00  0.00    +0.000 A 
ENDBRANCH  41  44
ENDBRANCH  39  42
BRANCH  39  50
ATOM     50  C   UNL     1      -3.572  -2.888   0.000  0.00  0.00    +0.000 C 
BRANCH  50  51
ATOM     51  C   UNL     1      -3.572  -2.062   0.000  0.00  0.00    +0.000 C 
BRANCH  51  52
ATOM     52  C   UNL     1      -4.287  -1.650   0.000  0.00  0.00    +0.000 C 
BRANCH  52  53
ATOM     53  C   UNL     1      -4.287  -0.825   0.000  0.00  0.00    +0.000 C 
BRANCH  53  54
ATOM     54  N   UNL     1      -5.001  -0.412   0.000  0.00  0.00    +0.000 NA
ATOM     55  H   UNL     1      -5.444  -0.668   0.000  0.00  0.00    +0.000 HD
ATOM     56  H   UNL     1      -5.001   0.099   0.000  0.00  0.00    +0.000 HD
ENDBRANCH  53  54
ENDBRANCH  52  53
ENDBRANCH  51  52
ENDBRANCH  50  51
ENDBRANCH  39  50
ENDBRANCH  36  39
ENDBRANCH  34  37
BRANCH  34  57
ATOM     57  C   UNL     1      -0.714  -2.062   0.000  0.00  0.00    +0.000 C 
BRANCH  57  58
ATOM     58  C   UNL     1       0.000  -1.650   0.000  0.00  0.00    +0.000 C 
BRANCH  58  59
ATOM     59  C   UNL     1       0.714  -2.062   0.000  0.00  0.00    +0.000 C 
ATOM     60  C   UNL     1       1.429  -1.650   0.000  0.00  0.00    +0.000 C 
ENDBRANCH  58  59
ENDBRANCH  57  58
ENDBRANCH  34  57
ENDBRANCH  33  34
ENDBRANCH   1  33
TORSDOF 29
