REMARK  Name = 
REMARK  5 active torsions:
REMARK  status: ('A' for Active; 'I' for Inactive)
REMARK    1  A    between atoms: C_1  and  C_3
REMARK    2  A    between atoms: C_1  and  O_21
REMARK    3  A    between atoms: C_3  and  C_4
REMARK    4  A    between atoms: C_4  and  C_5
REMARK    5  A    between atoms: C_14  and  O_21
REMARK                            x       y       z     vdW  Elec       q    Type
REMARK                         _______ _______ _______ _____ _____    ______ ____
ROOT
ATOM      1  C   UNL     1      -2.308  -1.117   0.000  0.00  0.00    +0.000 C 
ATOM      2  C   UNL     1      -0.162   0.117   0.000  0.00  0.00    +0.000 C 
ATOM      3  C   UNL     1      -2.296  -1.942   0.000  0.00  0.00    +0.000 C 
ATOM      4  C   UNL     1      -1.593  -0.706   0.000  0.00  0.00    +0.000 C 
ATOM      5  C   UNL     1      -0.150  -0.708   0.000  0.00  0.00    +0.000 C 
ATOM      6  C   UNL     1      -0.866  -1.119   0.000  0.00  0.00    +0.000 C 
ATOM      7  C   UNL     1       0.610   0.375   0.000  0.00  0.00    +0.000 C 
ATOM      8  C   UNL     1      -3.011  -2.353   0.000  0.00  0.00    +0.000 C 
ATOM      9  C   UNL     1      -0.889   0.530   0.000  0.00  0.00    +0.000 C 
ATOM     10  C   UNL     1      -1.604   0.119   0.000  0.00  0.00    +0.000 C 
ATOM     11  C   UNL     1      -3.035  -0.703   0.000  0.00  0.00    +0.000 C 
ATOM     12  C   UNL     1      -0.854  -1.944   0.000  0.00  0.00    +0.000 C 
ATOM     13  C   UNL     1       0.641  -0.966   0.000  0.00  0.00    +0.000 C 
ATOM     14  C   UNL     1      -1.569  -2.356   0.000  0.00  0.00    +0.000 C 
ATOM     15  C   UNL     1      -3.738  -1.939   0.000  0.00  0.00    +0.000 C 
ATOM     16  C   UNL     1       1.117  -0.299   0.000  0.00  0.00    +0.000 C 
ATOM     17  O   UNL     1      -4.453  -2.351   0.000  0.00  0.00    +0.000 OA
ATOM     18  C   UNL     1      -3.750  -1.115   0.000  0.00  0.00    +0.000 C 
ATOM     19  C   UNL     1      -2.320  -0.292   0.000  0.00  0.00    +0.000 C 
ATOM     20  C   UNL     1      -0.202   0.911   0.000  0.00  0.00    +0.000 C 
ENDROOT
BRANCH   7  21
ATOM     21  O   UNL     1       0.868   1.167   0.000  0.00  0.00    +0.000 OA
BRANCH  21  22
ATOM     22  C   UNL     1       1.583   1.588   0.000  0.00  0.00    +0.000 C 
ATOM     23  O   UNL     1       1.552   2.356   0.000  0.00  0.00    +0.000 OA
BRANCH  22  24
ATOM     24  C   UNL     1       2.316   1.194   0.000  0.00  0.00    +0.000 C 
BRANCH  24  25
ATOM     25  C   UNL     1       3.018   1.644   0.000  0.00  0.00    +0.000 C 
BRANCH  25  26
ATOM     26  C   UNL     1       3.752   1.250   0.000  0.00  0.00    +0.000 C 
ATOM     27  C   UNL     1       4.453   1.700   0.000  0.00  0.00    +0.000 C 
ATOM     28  C   UNL     1       3.781   0.436   0.000  0.00  0.00    +0.000 C 
ENDBRANCH  25  26
ENDBRANCH  24  25
ENDBRANCH  22  24
ENDBRANCH  21  22
ENDBRANCH   7  21
TORSDOF 5
