REMARK  Name = 
REMARK  3 active torsions:
REMARK  status: ('A' for Active; 'I' for Inactive)
REMARK    1  A    between atoms: N_5  and  C_8
REMARK    2  A    between atoms: C_11  and  C_24
REMARK    3  A    between atoms: N_12  and  C_13
REMARK                            x       y       z     vdW  Elec       q    Type
REMARK                         _______ _______ _______ _____ _____    ______ ____
ROOT
ATOM      1  C   UNL     1       0.715  -0.412   0.000  0.00  0.00    +0.000 A 
ATOM      2  C   UNL     1       0.000   0.000   0.000  0.00  0.00    +0.000 A 
ATOM      3  N   UNL     1      -0.785  -0.255   0.000  0.00  0.00    +0.000 NA
ATOM      4  C   UNL     1      -1.270   0.412   0.000  0.00  0.00    +0.000 A 
ATOM      5  N   UNL     1      -0.785   1.080   0.000  0.00  0.00    +0.000 N 
ATOM      6  C   UNL     1       0.000   0.825   0.000  0.00  0.00    +0.000 A 
ATOM      7  N   UNL     1       0.715   1.238   0.000  0.00  0.00    +0.000 NA
ATOM      8  C   UNL     1       1.429   0.825   0.000  0.00  0.00    +0.000 A 
ATOM      9  C   UNL     1       2.143   1.238   0.000  0.00  0.00    +0.000 C 
ATOM     10  N   UNL     1       1.429   0.000   0.000  0.00  0.00    +0.000 NA
ENDROOT
BRANCH   1  15
ATOM     11  C   UNL     1       0.715  -3.712   0.000  0.00  0.00    +0.000 C 
ATOM     12  N   UNL     1       0.715  -2.888   0.000  0.00  0.00    +0.000 NA
ATOM     13  C   UNL     1       0.000  -2.475   0.000  0.00  0.00    +0.000 C 
ATOM     14  C   UNL     1       0.000  -1.650   0.000  0.00  0.00    +0.000 C 
ATOM     15  N   UNL     1       0.715  -1.238   0.000  0.00  0.00    +0.000 N 
ATOM     16  C   UNL     1       1.429  -1.650   0.000  0.00  0.00    +0.000 C 
ATOM     17  C   UNL     1       1.429  -2.475   0.000  0.00  0.00    +0.000 C 
ENDBRANCH   1  15
BRANCH   4  18
ATOM     18  C   UNL     1      -2.095   0.412   0.000  0.00  0.00    +0.000 A 
ATOM     19  C   UNL     1      -2.507   1.127   0.000  0.00  0.00    +0.000 A 
ATOM     20  C   UNL     1      -3.332   1.127   0.000  0.00  0.00    +0.000 A 
ATOM     21  C   UNL     1      -3.744   0.412   0.000  0.00  0.00    +0.000 A 
ATOM     22  C   UNL     1      -3.332  -0.302   0.000  0.00  0.00    +0.000 A 
ATOM     23  C   UNL     1      -2.507  -0.302   0.000  0.00  0.00    +0.000 A 
ATOM     24 CL   UNL     1      -2.095  -1.016   0.000  0.00  0.00    +0.000 Cl
ENDBRANCH   4  18
BRANCH   5  25
ATOM     25  C   UNL     1      -1.040   1.865   0.000  0.00  0.00    +0.000 C 
ATOM     26  C   UNL     1      -1.847   2.036   0.000  0.00  0.00    +0.000 C 
ATOM     27  C   UNL     1      -2.102   2.821   0.000  0.00  0.00    +0.000 C 
ATOM     28  O   UNL     1      -1.549   3.434   0.000  0.00  0.00    +0.000 OA
ATOM     29  C   UNL     1      -0.743   3.262   0.000  0.00  0.00    +0.000 C 
ATOM     30  C   UNL     1      -0.487   2.478   0.000  0.00  0.00    +0.000 C 
ENDBRANCH   5  25
TORSDOF 3
