REMARK  Name = 
REMARK  6 active torsions:
REMARK  status: ('A' for Active; 'I' for Inactive)
REMARK    1  A    between atoms: C_8  and  C_9
REMARK    2  A    between atoms: C_17  and  C_24
REMARK    3  A    between atoms: C_18  and  C_19
REMARK    4  A    between atoms: C_18  and  C_24
REMARK    5  A    between atoms: C_19  and  C_20
REMARK    6  A    between atoms: C_20  and  N_21
REMARK                            x       y       z     vdW  Elec       q    Type
REMARK                         _______ _______ _______ _____ _____    ______ ____
ROOT
ATOM      1  C   UNL     1      -0.750   0.952   0.000  0.00  0.00    +0.000 A 
ATOM      2  O   UNL     1       0.520   1.365   0.000  0.00  0.00    +0.000 OA
ATOM      3  C   UNL     1      -0.750   1.777   0.000  0.00  0.00    +0.000 A 
ATOM      4  C   UNL     1      -1.464   0.540   0.000  0.00  0.00    +0.000 A 
ATOM      5  C   UNL     1       0.035   2.032   0.000  0.00  0.00    +0.000 C 
ATOM      6  C   UNL     1      -1.464   2.190   0.000  0.00  0.00    +0.000 A 
ATOM      7  C   UNL     1      -2.178   0.952   0.000  0.00  0.00    +0.000 A 
ATOM      8  C   UNL     1      -2.178   1.777   0.000  0.00  0.00    +0.000 A 
ATOM      9  C   UNL     1       0.035   0.698   0.000  0.00  0.00    +0.000 C 
ENDROOT
BRANCH   9  16
ATOM     10  C   UNL     1      -0.679  -0.540   0.000  0.00  0.00    +0.000 A 
ATOM     11  C   UNL     1       0.750  -0.540   0.000  0.00  0.00    +0.000 A 
ATOM     12  C   UNL     1      -0.679  -1.365   0.000  0.00  0.00    +0.000 A 
ATOM     13  C   UNL     1       0.750  -1.365   0.000  0.00  0.00    +0.000 A 
ATOM     14  C   UNL     1       0.035  -1.777   0.000  0.00  0.00    +0.000 A 
ATOM     15  F   UNL     1       0.035  -2.602   0.000  0.00  0.00    +0.000 F 
ATOM     16  C   UNL     1       0.035  -0.127   0.000  0.00  0.00    +0.000 A 
ENDBRANCH   9  16
BRANCH   8  17
ATOM     17  C   UNL     1      -2.893   2.190   0.000  0.00  0.00    +0.000 C 
ATOM     18  N   UNL     1      -3.607   2.602   0.000  0.00  0.00    +0.000 NA
ENDBRANCH   8  17
BRANCH   9  19
ATOM     19  C   UNL     1       0.750   0.285   0.000  0.00  0.00    +0.000 C 
BRANCH  19  20
ATOM     20  C   UNL     1       1.464   0.698   0.000  0.00  0.00    +0.000 C 
BRANCH  20  21
ATOM     21  C   UNL     1       2.178   0.285   0.000  0.00  0.00    +0.000 C 
BRANCH  21  22
ATOM     22  N   UNL     1       2.893   0.698   0.000  0.00  0.00    +0.000 NA
ATOM     23  C   UNL     1       2.893   1.522   0.000  0.00  0.00    +0.000 C 
ATOM     24  C   UNL     1       3.607   0.285   0.000  0.00  0.00    +0.000 C 
ENDBRANCH  21  22
ENDBRANCH  20  21
ENDBRANCH  19  20
ENDBRANCH   9  19
TORSDOF 6
