REMARK  Name = 
REMARK  8 active torsions:
REMARK  status: ('A' for Active; 'I' for Inactive)
REMARK    1  A    between atoms: C_8  and  C_13
REMARK    2  A    between atoms: C_13  and  C_14
REMARK    3  A    between atoms: C_13  and  C_16
REMARK    4  A    between atoms: C_17  and  N_22
REMARK    5  A    between atoms: C_23  and  C_25
REMARK    6  A    between atoms: C_25  and  N_26
REMARK    7  A    between atoms: C_27  and  O_29
REMARK    8  A    between atoms: O_29  and  C_30
REMARK                            x       y       z     vdW  Elec       q    Type
REMARK                         _______ _______ _______ _____ _____    ______ ____
ROOT
ATOM      1  C   UNL     1       1.431  -2.475   0.000  0.00  0.00    +0.000 A 
ATOM      2  C   UNL     1       2.141  -1.238   0.000  0.00  0.00    +0.000 A 
ATOM      3  C   UNL     1       1.431  -1.650   0.000  0.00  0.00    +0.000 A 
ATOM      4  C   UNL     1       2.141  -2.888   0.000  0.00  0.00    +0.000 A 
ATOM      5  C   UNL     1       2.859  -2.475   0.000  0.00  0.00    +0.000 A 
ATOM      6  C   UNL     1       2.859  -1.650   0.000  0.00  0.00    +0.000 A 
ENDROOT
BRANCH   2   7
ATOM      7  N   UNL     1       2.141  -0.412   0.000  0.00  0.00    +0.000 NA
ATOM      8  C   UNL     1       1.431   0.000   0.000  0.00  0.00    +0.000 C 
ATOM      9  O   UNL     1       0.714  -0.412   0.000  0.00  0.00    +0.000 OA
BRANCH   8  10
ATOM     10  C   UNL     1       1.431   0.825   0.000  0.00  0.00    +0.000 C 
BRANCH  10  11
ATOM     11  N   UNL     1       0.714   1.238   0.000  0.00  0.00    +0.000 NA
ATOM     12  C   UNL     1       0.714   2.062   0.000  0.00  0.00    +0.000 C 
ATOM     13  O   UNL     1       1.431   2.475   0.000  0.00  0.00    +0.000 OA
BRANCH  12  14
ATOM     14  O   UNL     1      -0.004   2.475   0.000  0.00  0.00    +0.000 OA
BRANCH  14  15
ATOM     15  C   UNL     1      -0.004   3.300   0.000  0.00  0.00    +0.000 C 
ATOM     16  C   UNL     1      -0.004   4.125   0.000  0.00  0.00    +0.000 C 
ATOM     17  C   UNL     1      -0.829   3.300   0.000  0.00  0.00    +0.000 C 
ATOM     18  C   UNL     1       0.821   3.300   0.000  0.00  0.00    +0.000 C 
ENDBRANCH  14  15
ENDBRANCH  12  14
ENDBRANCH  10  11
ENDBRANCH   8  10
ENDBRANCH   2   7
BRANCH   1  19
ATOM     19  C   UNL     1       0.714  -2.888   0.000  0.00  0.00    +0.000 C 
BRANCH  19  27
ATOM     20  C   UNL     1      -2.141  -1.238   0.000  0.00  0.00    +0.000 A 
ATOM     21  C   UNL     1      -2.859  -1.650   0.000  0.00  0.00    +0.000 A 
ATOM     22  C   UNL     1      -2.859  -2.475   0.000  0.00  0.00    +0.000 A 
ATOM     23  C   UNL     1      -2.141  -2.888   0.000  0.00  0.00    +0.000 A 
ATOM     24  C   UNL     1      -1.431  -1.650   0.000  0.00  0.00    +0.000 A 
ATOM     25  C   UNL     1      -1.431  -2.475   0.000  0.00  0.00    +0.000 A 
ATOM     26  C   UNL     1      -0.714  -2.888   0.000  0.00  0.00    +0.000 A 
ATOM     27  C   UNL     1      -0.004  -2.475   0.000  0.00  0.00    +0.000 A 
ATOM     28  C   UNL     1      -0.004  -1.650   0.000  0.00  0.00    +0.000 A 
ATOM     29  O   UNL     1      -0.714  -1.238   0.000  0.00  0.00    +0.000 OA
ATOM     30  O   UNL     1       0.714  -1.238   0.000  0.00  0.00    +0.000 OA
ATOM     31  O   UNL     1      -0.714  -3.712   0.000  0.00  0.00    +0.000 OA
ENDBRANCH  19  27
BRANCH  19  32
ATOM     32  C   UNL     1       0.714  -3.712   0.000  0.00  0.00    +0.000 C 
ATOM     33  C   UNL     1       1.431  -4.125   0.000  0.00  0.00    +0.000 C 
ENDBRANCH  19  32
ENDBRANCH   1  19
TORSDOF 8
