REMARK  Name = 
REMARK  11 active torsions:
REMARK  status: ('A' for Active; 'I' for Inactive)
REMARK    1  A    between atoms: CG_1  and  CB_2
REMARK    2  A    between atoms: CB_2  and  CA_3
REMARK    3  A    between atoms: CA_3  and  N_4
REMARK    4  A    between atoms: CA_3  and  C_19
REMARK    5  A    between atoms: C_5  and  C_6
REMARK    6  A    between atoms: C_6  and  N_7
REMARK    7  A    between atoms: C_6  and  C_20
REMARK    8  A    between atoms: N_7  and  P_8
REMARK    9  A    between atoms: P_8  and  O_9
REMARK   10  A    between atoms: O_9  and  C_10
REMARK   11  A    between atoms: C_20  and  C_24
REMARK                            x       y       z     vdW  Elec       q    Type
REMARK                         _______ _______ _______ _____ _____    ______ ____
ROOT
ATOM      1  C   UNK A   0       0.068   0.989   0.000  0.00  0.00    +0.000 C 
ENDROOT
BRANCH   1   3
ATOM      2  N   TRP A   1       1.497   0.989   0.000  0.00  0.00    +0.000 NA
ATOM      3  C   UNK A   0       0.783   0.576   0.000  0.00  0.00    +0.000 C 
ATOM      4  O   UNK A   0       0.783  -0.249   0.000  0.00  0.00    +0.000 OA
BRANCH   2   5
ATOM      5  CA  TRP A   1       2.212   0.576   0.000  0.00  0.00    +0.000 C 
BRANCH   5   6
ATOM      6  C   TRP A   1       2.926   0.989   0.000  0.00  0.00    +0.000 C 
ATOM      7  O   TRP A   1       2.926   1.827   0.000  0.00  0.00    +0.000 OA
ATOM      8  OXT TRP A   1       3.630   0.583   0.000  0.00  0.00    +0.000 OA
ENDBRANCH   5   6
BRANCH   5   9
ATOM      9  CB  TRP A   1       2.212  -0.249   0.000  0.00  0.00    +0.000 C 
BRANCH   9  10
ATOM     10  CG  TRP A   1       2.926  -0.661   0.000  0.00  0.00    +0.000 A 
ATOM     11  CD1 TRP A   1       3.680  -0.326   0.000  0.00  0.00    +0.000 A 
ATOM     12  NE1 TRP A   1       4.232  -0.939   0.000  0.00  0.00    +0.000 NA
ATOM     13  CE2 TRP A   1       3.820  -1.653   0.000  0.00  0.00    +0.000 A 
ATOM     14  CD2 TRP A   1       3.013  -1.482   0.000  0.00  0.00    +0.000 A 
ATOM     15  CZ2 TRP A   1       4.075  -2.438   0.000  0.00  0.00    +0.000 A 
ATOM     16  CH2 TRP A   1       3.523  -3.051   0.000  0.00  0.00    +0.000 A 
ATOM     17  CZ3 TRP A   1       2.716  -2.880   0.000  0.00  0.00    +0.000 A 
ATOM     18  CE3 TRP A   1       2.461  -2.095   0.000  0.00  0.00    +0.000 A 
ENDBRANCH   9  10
ENDBRANCH   5   9
ENDBRANCH   2   5
ENDBRANCH   1   3
BRANCH   1  19
ATOM     19  N   UNK A   0      -0.646   0.576   0.000  0.00  0.00    +0.000 NA
BRANCH  19  20
ATOM     20  P   UNK A   0      -1.361   0.989   0.000  0.00  0.00    +0.000 P 
ATOM     21  O   UNK A   0      -1.356   1.813   0.000  0.00  0.00    +0.000 OA
ATOM     22  O   UNK A   0      -2.071   0.570   0.000  0.00  0.00    +0.000 OA
BRANCH  20  23
ATOM     23  O   UNK A   0      -1.360   0.159   0.000  0.00  0.00    +0.000 OA
BRANCH  23  24
ATOM     24  C   UNK A   0      -2.089  -0.260   0.000  0.00  0.00    +0.000 C 
ATOM     25  O   UNK A   0      -2.796   0.149   0.000  0.00  0.00    +0.000 OA
ATOM     26  C   UNK A   0      -3.511  -0.262   0.000  0.00  0.00    +0.000 C 
ATOM     27  C   UNK A   0      -3.512  -1.087   0.000  0.00  0.00    +0.000 C 
ATOM     28  C   UNK A   0      -2.805  -1.496   0.000  0.00  0.00    +0.000 C 
ATOM     29  C   UNK A   0      -2.090  -1.085   0.000  0.00  0.00    +0.000 C 
ATOM     30  O   UNK A   0      -2.807  -2.331   0.000  0.00  0.00    +0.000 OA
ATOM     31  O   UNK A   0      -1.369  -1.503   0.000  0.00  0.00    +0.000 OA
ATOM     32  C   UNK A   0      -4.224   0.152   0.000  0.00  0.00    +0.000 C 
ATOM     33  O   UNK A   0      -4.232  -1.501   0.000  0.00  0.00    +0.000 OA
ENDBRANCH  23  24
ENDBRANCH  20  23
ENDBRANCH  19  20
ENDBRANCH   1  19
BRANCH   1  34
ATOM     34  C   UNK A   0       0.068   1.813   0.000  0.00  0.00    +0.000 C 
BRANCH  34  35
ATOM     35  C   UNK A   0       0.770   2.219   0.000  0.00  0.00    +0.000 C 
ATOM     36  C   UNK A   0       1.469   1.816   0.000  0.00  0.00    +0.000 C 
ATOM     37  C   UNK A   0       0.770   3.051   0.000  0.00  0.00    +0.000 C 
ENDBRANCH  34  35
ENDBRANCH   1  34
TORSDOF 11
