REMARK  Name = 
REMARK  11 active torsions:
REMARK  status: ('A' for Active; 'I' for Inactive)
REMARK    1  A    between atoms: N_2  and  C_3
REMARK    2  A    between atoms: C_3  and  C_4
REMARK    3  A    between atoms: C_4  and  N_5
REMARK    4  A    between atoms: C_8  and  O_11
REMARK    5  A    between atoms: O_11  and  C_12
REMARK    6  A    between atoms: N_14  and  C_15
REMARK    7  A    between atoms: C_20  and  C_21
REMARK    8  A    between atoms: C_27  and  C_29
REMARK    9  A    between atoms: C_32  and  C_35
REMARK   10  A    between atoms: C_35  and  N_36
REMARK   11  A    between atoms: C_39  and  C_42
REMARK                            x       y       z     vdW  Elec       q    Type
REMARK                         _______ _______ _______ _____ _____    ______ ____
ROOT
ATOM      1  C   UNL     1      -4.287  -4.125   0.000  0.00  0.00    +0.000 C 
ENDROOT
BRANCH   1   2
ATOM      2  N   UNL     1      -4.287  -4.950   0.000  0.00  0.00    +0.000 NA
ATOM      3  C   UNL     1      -3.572  -5.362   0.000  0.00  0.00    +0.000 C 
ATOM      4  C   UNL     1      -3.572  -6.188   0.000  0.00  0.00    +0.000 C 
ATOM      5  C   UNL     1      -4.287  -6.600   0.000  0.00  0.00    +0.000 C 
ATOM      6  C   UNL     1      -5.001  -6.188   0.000  0.00  0.00    +0.000 C 
ATOM      7  C   UNL     1      -5.001  -5.362   0.000  0.00  0.00    +0.000 C 
BRANCH   5   8
ATOM      8  O   UNL     1      -4.287  -7.425   0.000  0.00  0.00    +0.000 OA
BRANCH   8   9
ATOM      9  C   UNL     1      -5.001  -7.838   0.000  0.00  0.00    +0.000 C 
ATOM     10  O   UNL     1      -5.716  -7.425   0.000  0.00  0.00    +0.000 OA
ATOM     11  N   UNL     1      -5.001  -8.662   0.000  0.00  0.00    +0.000 NA
BRANCH  11  12
ATOM     12  C   UNL     1      -5.716  -9.075   0.000  0.00  0.00    +0.000 A 
ATOM     13  C   UNL     1      -6.430  -8.662   0.000  0.00  0.00    +0.000 A 
ATOM     14  C   UNL     1      -7.145  -9.075   0.000  0.00  0.00    +0.000 A 
ATOM     15  C   UNL     1      -7.145  -9.900   0.000  0.00  0.00    +0.000 A 
ATOM     16  C   UNL     1      -6.430 -10.312   0.000  0.00  0.00    +0.000 A 
ATOM     17  C   UNL     1      -5.716  -9.900   0.000  0.00  0.00    +0.000 A 
BRANCH  17  18
ATOM     18  C   UNL     1      -5.001 -10.312   0.000  0.00  0.00    +0.000 A 
ATOM     19  C   UNL     1      -4.287  -9.900   0.000  0.00  0.00    +0.000 A 
ATOM     20  C   UNL     1      -3.572 -10.312   0.000  0.00  0.00    +0.000 A 
ATOM     21  C   UNL     1      -3.572 -11.137   0.000  0.00  0.00    +0.000 A 
ATOM     22  C   UNL     1      -4.287 -11.550   0.000  0.00  0.00    +0.000 A 
ATOM     23  C   UNL     1      -5.001 -11.137   0.000  0.00  0.00    +0.000 A 
ENDBRANCH  17  18
ENDBRANCH  11  12
ENDBRANCH   8   9
ENDBRANCH   5   8
ENDBRANCH   1   2
BRANCH   1  24
ATOM     24  C   UNL     1      -5.001  -3.712   0.000  0.00  0.00    +0.000 C 
BRANCH  24  26
ATOM     25  C   UNL     1      -4.287  -2.475   0.000  0.00  0.00    +0.000 C 
ATOM     26  N   UNL     1      -5.001  -2.888   0.000  0.00  0.00    +0.000 N 
ATOM     27  C   UNL     1      -5.716  -2.475   0.000  0.00  0.00    +0.000 C 
ATOM     28  O   UNL     1      -6.430  -2.888   0.000  0.00  0.00    +0.000 OA
BRANCH  27  29
ATOM     29  C   UNL     1      -5.716  -1.650   0.000  0.00  0.00    +0.000 A 
ATOM     30  C   UNL     1      -6.430  -1.238   0.000  0.00  0.00    +0.000 A 
ATOM     31  C   UNL     1      -6.430  -0.412   0.000  0.00  0.00    +0.000 A 
ATOM     32  C   UNL     1      -5.716   0.000   0.000  0.00  0.00    +0.000 A 
ATOM     33  C   UNL     1      -5.001  -0.412   0.000  0.00  0.00    +0.000 A 
ATOM     34  C   UNL     1      -5.001  -1.238   0.000  0.00  0.00    +0.000 A 
BRANCH  32  35
ATOM     35  C   UNL     1      -5.716   0.825   0.000  0.00  0.00    +0.000 C 
BRANCH  35  36
ATOM     36  N   UNL     1      -6.430   1.238   0.000  0.00  0.00    +0.000 NA
ATOM     37  C   UNL     1      -7.145   0.825   0.000  0.00  0.00    +0.000 C 
ATOM     38  C   UNL     1      -7.859   1.238   0.000  0.00  0.00    +0.000 C 
ATOM     39  C   UNL     1      -7.859   2.062   0.000  0.00  0.00    +0.000 C 
ATOM     40  C   UNL     1      -7.145   2.475   0.000  0.00  0.00    +0.000 C 
ATOM     41  C   UNL     1      -6.430   2.062   0.000  0.00  0.00    +0.000 C 
BRANCH  39  42
ATOM     42  C   UNL     1      -8.574   2.475   0.000  0.00  0.00    +0.000 C 
ATOM     43  O   UNL     1      -9.288   2.062   0.000  0.00  0.00    +0.000 OA
ATOM     44  N   UNL     1      -8.574   3.300   0.000  0.00  0.00    +0.000 NA
ENDBRANCH  39  42
ENDBRANCH  35  36
ENDBRANCH  32  35
ENDBRANCH  27  29
ENDBRANCH  24  26
ENDBRANCH   1  24
TORSDOF 11
