REMARK  Name = 
REMARK  6 active torsions:
REMARK  status: ('A' for Active; 'I' for Inactive)
REMARK    1  A    between atoms: N_1  and  C_2
REMARK    2  A    between atoms: C_2  and  C_3
REMARK    3  A    between atoms: C_3  and  O_7
REMARK    4  A    between atoms: O_7  and  C_8
REMARK    5  A    between atoms: C_8  and  C_9
REMARK    6  A    between atoms: C_8  and  C_15
REMARK                            x       y       z     vdW  Elec       q    Type
REMARK                         _______ _______ _______ _____ _____    ______ ____
ROOT
ATOM      1  C   UNL     1      -0.357  -0.247   0.000  0.00  0.00    +0.000 C 
ATOM      2  C   UNL     1       0.055  -0.961   0.000  0.00  0.00    +0.000 C 
ENDROOT
BRANCH   1   3
ATOM      3  C   UNL     1      -1.072  -0.659   0.000  0.00  0.00    +0.000 A 
ATOM      4  C   UNL     1      -1.072  -1.484   0.000  0.00  0.00    +0.000 A 
ATOM      5  C   UNL     1      -1.786  -1.897   0.000  0.00  0.00    +0.000 A 
ATOM      6  C   UNL     1      -2.501  -1.484   0.000  0.00  0.00    +0.000 A 
ATOM      7  C   UNL     1      -2.501  -0.659   0.000  0.00  0.00    +0.000 A 
ATOM      8  C   UNL     1      -1.786  -0.247   0.000  0.00  0.00    +0.000 A 
ATOM      9 CL   UNL     1      -3.215  -1.897   0.000  0.00  0.00    +0.000 Cl
ENDBRANCH   1   3
BRANCH   1  10
ATOM     10  C   UNL     1      -0.770   0.468   0.000  0.00  0.00    +0.000 A 
ATOM     11  C   UNL     1      -1.595   0.468   0.000  0.00  0.00    +0.000 A 
ATOM     12  C   UNL     1      -2.007   1.182   0.000  0.00  0.00    +0.000 A 
ATOM     13  C   UNL     1      -1.595   1.897   0.000  0.00  0.00    +0.000 A 
ATOM     14  C   UNL     1      -0.770   1.897   0.000  0.00  0.00    +0.000 A 
ATOM     15  C   UNL     1      -0.357   1.182   0.000  0.00  0.00    +0.000 A 
ENDBRANCH   1  10
BRANCH   1  16
ATOM     16  O   UNL     1       0.357   0.166   0.000  0.00  0.00    +0.000 OA
BRANCH  16  17
ATOM     17  C   UNL     1       1.072  -0.247   0.000  0.00  0.00    +0.000 C 
ATOM     18  C   UNL     1       1.072  -1.072   0.000  0.00  0.00    +0.000 C 
BRANCH  17  19
ATOM     19  C   UNL     1       1.786   0.166   0.000  0.00  0.00    +0.000 C 
BRANCH  19  20
ATOM     20  N   UNL     1       2.501  -0.247   0.000  0.00  0.00    +0.000 NA
ATOM     21  C   UNL     1       3.215   0.166   0.000  0.00  0.00    +0.000 C 
ATOM     22  C   UNL     1       2.501  -1.072   0.000  0.00  0.00    +0.000 C 
ENDBRANCH  19  20
ENDBRANCH  17  19
ENDBRANCH  16  17
ENDBRANCH   1  16
TORSDOF 6
