REMARK  Name = 
REMARK  10 active torsions:
REMARK  status: ('A' for Active; 'I' for Inactive)
REMARK    1  A    between atoms: C_1  and  O_14
REMARK    2  A    between atoms: O_14  and  C_15
REMARK    3  A    between atoms: C_15  and  C_16
REMARK    4  A    between atoms: C_16  and  C_17
REMARK    5  A    between atoms: C_17  and  N_18
REMARK    6  A    between atoms: N_18  and  C_19
REMARK    7  A    between atoms: C_19  and  C_20
REMARK    8  A    between atoms: C_20  and  O_21
REMARK    9  A    between atoms: O_21  and  C_22
REMARK   10  A    between atoms: C_24  and  O_28
REMARK                            x       y       z     vdW  Elec       q    Type
REMARK                         _______ _______ _______ _____ _____    ______ ____
ROOT
ATOM      1  C   UNL     1      -1.288   1.444   0.000  0.00  0.00    +0.000 C 
ENDROOT
BRANCH   1   2
ATOM      2  C   UNL     1      -0.573   1.031   0.000  0.00  0.00    +0.000 C 
ATOM      3  O   UNL     1      -0.573   0.206   0.000  0.00  0.00    +0.000 OA
BRANCH   2   4
ATOM      4  C   UNL     1       0.141   1.444   0.000  0.00  0.00    +0.000 C 
BRANCH   4   5
ATOM      5  N   UNL     1       0.856   1.031   0.000  0.00  0.00    +0.000 NA
BRANCH   5   6
ATOM      6  C   UNL     1       1.570   1.444   0.000  0.00  0.00    +0.000 C 
BRANCH   6   7
ATOM      7  C   UNL     1       2.284   1.031   0.000  0.00  0.00    +0.000 C 
BRANCH   7   8
ATOM      8  O   UNL     1       2.999   1.444   0.000  0.00  0.00    +0.000 OA
BRANCH   8   9
ATOM      9  C   UNL     1       3.713   1.031   0.000  0.00  0.00    +0.000 A 
ATOM     10  C   UNL     1       4.428   1.444   0.000  0.00  0.00    +0.000 A 
ATOM     11  C   UNL     1       3.713   0.206   0.000  0.00  0.00    +0.000 A 
ATOM     12  C   UNL     1       4.428  -0.206   0.000  0.00  0.00    +0.000 A 
ATOM     13  C   UNL     1       5.142   0.206   0.000  0.00  0.00    +0.000 A 
ATOM     14  C   UNL     1       5.142   1.031   0.000  0.00  0.00    +0.000 A 
BRANCH  11  15
ATOM     15  O   UNL     1       2.999  -0.206   0.000  0.00  0.00    +0.000 OA
ATOM     16  C   UNL     1       2.284   0.206   0.000  0.00  0.00    +0.000 C 
ENDBRANCH  11  15
ENDBRANCH   8   9
ENDBRANCH   7   8
ENDBRANCH   6   7
ENDBRANCH   5   6
ENDBRANCH   4   5
ENDBRANCH   2   4
ENDBRANCH   1   2
BRANCH   1  17
ATOM     17  O   UNL     1      -2.002   1.031   0.000  0.00  0.00    +0.000 OA
BRANCH  17  18
ATOM     18  C   UNL     1      -2.002   0.206   0.000  0.00  0.00    +0.000 A 
ATOM     19  C   UNL     1      -2.717  -0.206   0.000  0.00  0.00    +0.000 A 
ATOM     20  C   UNL     1      -2.717  -1.031   0.000  0.00  0.00    +0.000 A 
ATOM     21  C   UNL     1      -2.002  -1.444   0.000  0.00  0.00    +0.000 A 
ATOM     22  C   UNL     1      -1.288  -1.031   0.000  0.00  0.00    +0.000 A 
ATOM     23  C   UNL     1      -1.288  -0.206   0.000  0.00  0.00    +0.000 A 
ATOM     24  C   UNL     1      -3.501   0.049   0.000  0.00  0.00    +0.000 A 
ATOM     25  C   UNL     1      -3.986  -0.619   0.000  0.00  0.00    +0.000 A 
ATOM     26  N   UNL     1      -3.501  -1.286   0.000  0.00  0.00    +0.000 NA
ATOM     27  C   UNL     1      -4.657   0.888   0.000  0.00  0.00    +0.000 A 
ATOM     28  C   UNL     1      -5.142   0.221   0.000  0.00  0.00    +0.000 A 
ATOM     29  C   UNL     1      -4.807  -0.532   0.000  0.00  0.00    +0.000 A 
ATOM     30  C   UNL     1      -3.837   0.802   0.000  0.00  0.00    +0.000 A 
ENDBRANCH  17  18
ENDBRANCH   1  17
TORSDOF 10
