REMARK  Name = 
REMARK  2 active torsions:
REMARK  status: ('A' for Active; 'I' for Inactive)
REMARK    1  A    between atoms: N_16  and  C_17
REMARK    2  A    between atoms: C_17  and  C_18
REMARK                            x       y       z     vdW  Elec       q    Type
REMARK                         _______ _______ _______ _____ _____    ______ ____
ROOT
ATOM      1  C   UNL     1       1.933   0.563   0.000  0.00  0.00    +0.000 C 
ATOM      2  C   UNL     1       1.110   0.613   0.000  0.00  0.00    +0.000 C 
ATOM      3  C   UNL     1       0.807   1.381   0.000  0.00  0.00    +0.000 C 
ATOM      4  N   UNL     1      -0.056   1.493   0.000  0.00  0.00    +0.000 N 
ATOM      5  C   UNL     1      -0.290   2.284   0.000  0.00  0.00    +0.000 A 
ATOM      6  S   UNL     1       0.195   2.952   0.000  0.00  0.00    +0.000 S 
ATOM      7  N   UNL     1      -1.115   2.263   0.000  0.00  0.00    +0.000 N 
ATOM      8  C   UNL     1      -1.485   1.456   0.000  0.00  0.00    +0.000 A 
ATOM      9  C   UNL     1      -0.760   1.062   0.000  0.00  0.00    +0.000 A 
ATOM     10  C   UNL     1      -0.738   0.237   0.000  0.00  0.00    +0.000 A 
ATOM     11  C   UNL     1      -1.442  -0.194   0.000  0.00  0.00    +0.000 A 
ATOM     12 CL   UNL     1      -1.420  -1.018   0.000  0.00  0.00    +0.000 Cl
ATOM     13  C   UNL     1      -2.167   0.200   0.000  0.00  0.00    +0.000 A 
ATOM     14  C   UNL     1      -2.188   1.025   0.000  0.00  0.00    +0.000 A 
ATOM     15  C   UNL     1      -0.092  -0.276   0.000  0.00  0.00    +0.000 C 
ATOM     16  N   UNL     1       0.716  -0.112   0.000  0.00  0.00    +0.000 NA
ATOM     17  H   UNL     1      -1.570   2.951   0.000  0.00  0.00    +0.000 HD
ENDROOT
BRANCH  16  18
ATOM     18  C   UNL     1       1.207  -0.775   0.000  0.00  0.00    +0.000 C 
BRANCH  18  19
ATOM     19  C   UNL     1       0.878  -1.532   0.000  0.00  0.00    +0.000 C 
ATOM     20  C   UNL     1       1.368  -2.195   0.000  0.00  0.00    +0.000 C 
ATOM     21  C   UNL     1       1.039  -2.952   0.000  0.00  0.00    +0.000 C 
ATOM     22  C   UNL     1       2.188  -2.102   0.000  0.00  0.00    +0.000 C 
ENDBRANCH  18  19
ENDBRANCH  16  18
TORSDOF 2
