REMARK  Name = 
REMARK  9 active torsions:
REMARK  status: ('A' for Active; 'I' for Inactive)
REMARK    1  A    between atoms: C_1  and  C_2
REMARK    2  A    between atoms: C_1  and  O_6
REMARK    3  A    between atoms: C_2  and  C_4
REMARK    4  A    between atoms: C_2  and  C_5
REMARK    5  A    between atoms: O_6  and  C_8
REMARK    6  A    between atoms: N_7  and  C_9
REMARK    7  A    between atoms: N_7  and  C_14
REMARK    8  A    between atoms: N_7  and  C_15
REMARK    9  A    between atoms: C_8  and  C_9
REMARK                            x       y       z     vdW  Elec       q    Type
REMARK                         _______ _______ _______ _____ _____    ______ ____
ROOT
ATOM      1  C   UNL     1       1.071   0.403   0.000  0.00  0.00    +0.000 C 
ENDROOT
BRANCH   1   2
ATOM      2  C   UNL     1       1.071  -0.424   0.000  0.00  0.00    +0.000 A 
ATOM      3  C   UNL     1       0.345  -0.830   0.000  0.00  0.00    +0.000 A 
ATOM      4  C   UNL     1       1.779  -0.830   0.000  0.00  0.00    +0.000 A 
ATOM      5  C   UNL     1       0.360  -1.656   0.000  0.00  0.00    +0.000 A 
ATOM      6  C   UNL     1       1.787  -1.659   0.000  0.00  0.00    +0.000 A 
ATOM      7  C   UNL     1       1.063  -2.062   0.000  0.00  0.00    +0.000 A 
ENDBRANCH   1   2
BRANCH   1   8
ATOM      8  C   UNL     1       1.779   0.822   0.000  0.00  0.00    +0.000 A 
ATOM      9  C   UNL     1       1.784   1.646   0.000  0.00  0.00    +0.000 A 
ATOM     10  C   UNL     1       2.500   0.403   0.000  0.00  0.00    +0.000 A 
ATOM     11  C   UNL     1       3.211   0.822   0.000  0.00  0.00    +0.000 A 
ATOM     12  C   UNL     1       2.492   2.054   0.000  0.00  0.00    +0.000 A 
ATOM     13  C   UNL     1       3.213   1.643   0.000  0.00  0.00    +0.000 A 
ENDBRANCH   1   8
BRANCH   1  14
ATOM     14  C   UNL     1       0.353   0.822   0.000  0.00  0.00    +0.000 C 
ATOM     15  O   UNL     1       0.353   1.651   0.000  0.00  0.00    +0.000 OA
BRANCH  14  16
ATOM     16  O   UNL     1      -0.355   0.403   0.000  0.00  0.00    +0.000 OA
BRANCH  16  17
ATOM     17  C   UNL     1      -1.076   0.822   0.000  0.00  0.00    +0.000 C 
BRANCH  17  18
ATOM     18  C   UNL     1      -1.787   0.411   0.000  0.00  0.00    +0.000 C 
BRANCH  18  19
ATOM     19  N   UNL     1      -2.503   0.822   0.000  0.00  0.00    +0.000 NA
BRANCH  19  20
ATOM     20  C   UNL     1      -2.500   1.643   0.000  0.00  0.00    +0.000 C 
ATOM     21  C   UNL     1      -1.795   2.062   0.000  0.00  0.00    +0.000 C 
ENDBRANCH  19  20
BRANCH  19  22
ATOM     22  C   UNL     1      -3.213   0.411   0.000  0.00  0.00    +0.000 C 
ATOM     23  C   UNL     1      -3.213  -0.418   0.000  0.00  0.00    +0.000 C 
ENDBRANCH  19  22
ENDBRANCH  18  19
ENDBRANCH  17  18
ENDBRANCH  16  17
ENDBRANCH  14  16
ENDBRANCH   1  14
TORSDOF 9
