REMARK  Name = 
REMARK  2 active torsions:
REMARK  status: ('A' for Active; 'I' for Inactive)
REMARK    1  A    between atoms: C_3  and  C_5
REMARK    2  A    between atoms: C_10  and  C_15
REMARK                            x       y       z     vdW  Elec       q    Type
REMARK                         _______ _______ _______ _____ _____    ______ ____
ROOT
ATOM      1  C   UNL     1       0.545   4.860   0.000  0.00  0.00    +0.000 A 
ATOM      2  C   UNL     1       1.030   4.192   0.000  0.00  0.00    +0.000 A 
ATOM      3  C   UNL     1       0.694   3.439   0.000  0.00  0.00    +0.000 A 
ATOM      4  C   UNL     1      -0.126   3.353   0.000  0.00  0.00    +0.000 A 
ATOM      5  C   UNL     1      -0.462   2.599   0.000  0.00  0.00    +0.000 A 
ATOM      6  C   UNL     1      -1.282   2.513   0.000  0.00  0.00    +0.000 A 
ATOM      7  C   UNL     1      -1.767   3.180   0.000  0.00  0.00    +0.000 A 
ATOM      8  C   UNL     1      -1.432   3.934   0.000  0.00  0.00    +0.000 A 
ATOM      9  C   UNL     1      -0.611   4.020   0.000  0.00  0.00    +0.000 A 
ATOM     10  C   UNL     1      -0.276   4.774   0.000  0.00  0.00    +0.000 A 
ENDROOT
BRANCH   6  11
ATOM     11  C   UNL     1      -1.618   1.759   0.000  0.00  0.00    +0.000 C 
ATOM     12  C   UNL     1      -2.103   1.092   0.000  0.00  0.00    +0.000 C 
ATOM     13  C   UNL     1      -1.618   0.424   0.000  0.00  0.00    +0.000 C 
ATOM     14  N   UNL     1      -0.833   0.679   0.000  0.00  0.00    +0.000 N 
ATOM     15  C   UNL     1      -0.833   1.504   0.000  0.00  0.00    +0.000 A 
ATOM     16  C   UNL     1      -0.049   1.759   0.000  0.00  0.00    +0.000 A 
ATOM     17  N   UNL     1       0.436   1.092   0.000  0.00  0.00    +0.000 NA
ATOM     18  C   UNL     1      -0.049   0.424   0.000  0.00  0.00    +0.000 A 
ATOM     19  O   UNL     1      -2.332   2.171   0.000  0.00  0.00    +0.000 OA
ENDBRANCH   6  11
BRANCH   1  22
ATOM     20  C   UNL     1       0.731   7.035   0.000  0.00  0.00    +0.000 C 
ATOM     21  N   UNL     1       0.396   6.281   0.000  0.00  0.00    +0.000 NA
ATOM     22  C   UNL     1       0.880   5.614   0.000  0.00  0.00    +0.000 C 
ATOM     23  O   UNL     1       1.701   5.700   0.000  0.00  0.00    +0.000 OA
ENDBRANCH   1  22
TORSDOF 2
