REMARK  Name = 
REMARK  4 active torsions:
REMARK  status: ('A' for Active; 'I' for Inactive)
REMARK    1  A    between atoms: C_1  and  C_16
REMARK    2  A    between atoms: C_9  and  C_10
REMARK    3  A    between atoms: N_13  and  C_19
REMARK    4  A    between atoms: C_19  and  C_20
REMARK                            x       y       z     vdW  Elec       q    Type
REMARK                         _______ _______ _______ _____ _____    ______ ____
ROOT
ATOM      1  C   UNL     1      -0.919   0.619   0.000  0.00  0.00    +0.000 A 
ATOM      2  N   UNL     1      -1.404   1.286   0.000  0.00  0.00    +0.000 NA
ATOM      3  C   UNL     1      -2.189   1.031   0.000  0.00  0.00    +0.000 A 
ATOM      4  C   UNL     1      -2.189   0.206   0.000  0.00  0.00    +0.000 A 
ATOM      5  N   UNL     1      -1.404  -0.049   0.000  0.00  0.00    +0.000 NA
ATOM      6  C   UNL     1      -2.904   1.444   0.000  0.00  0.00    +0.000 A 
ATOM      7  C   UNL     1      -3.618   1.031   0.000  0.00  0.00    +0.000 A 
ATOM      8  C   UNL     1      -3.618   0.206   0.000  0.00  0.00    +0.000 A 
ATOM      9  C   UNL     1      -2.904  -0.206   0.000  0.00  0.00    +0.000 A 
ENDROOT
BRANCH   1  13
ATOM     10  N   UNL     1       1.556   0.619   0.000  0.00  0.00    +0.000 NA
ATOM     11  C   UNL     1       1.143  -0.096   0.000  0.00  0.00    +0.000 C 
ATOM     12  C   UNL     1       0.318  -0.096   0.000  0.00  0.00    +0.000 C 
ATOM     13  C   UNL     1      -0.094   0.619   0.000  0.00  0.00    +0.000 C 
ATOM     14  C   UNL     1       0.318   1.333   0.000  0.00  0.00    +0.000 C 
ATOM     15  C   UNL     1       1.143   1.333   0.000  0.00  0.00    +0.000 C 
BRANCH  10  16
ATOM     16  C   UNL     1       2.381   0.619   0.000  0.00  0.00    +0.000 C 
BRANCH  16  17
ATOM     17  C   UNL     1       2.793   1.333   0.000  0.00  0.00    +0.000 C 
ATOM     18  C   UNL     1       3.618   1.333   0.000  0.00  0.00    +0.000 C 
ENDBRANCH  16  17
ENDBRANCH  10  16
ENDBRANCH   1  13
BRANCH   9  19
ATOM     19  C   UNL     1      -2.904  -1.031   0.000  0.00  0.00    +0.000 C 
ATOM     20  O   UNL     1      -3.618  -1.444   0.000  0.00  0.00    +0.000 OA
ATOM     21  N   UNL     1      -2.189  -1.444   0.000  0.00  0.00    +0.000 NA
ENDBRANCH   9  19
TORSDOF 4
