REMARK  Name = 
REMARK  14 active torsions:
REMARK  status: ('A' for Active; 'I' for Inactive)
REMARK    1  A    between atoms: C_2  and  C_5
REMARK    2  A    between atoms: C_5  and  C_6
REMARK    3  A    between atoms: C_5  and  C_15
REMARK    4  A    between atoms: C_6  and  C_7
REMARK    5  A    between atoms: C_19  and  O_39
REMARK    6  A    between atoms: C_21  and  C_22
REMARK    7  A    between atoms: N_24  and  C_25
REMARK    8  A    between atoms: C_25  and  C_30
REMARK    9  A    between atoms: C_27  and  C_28
REMARK   10  A    between atoms: N_32  and  S_33
REMARK   11  A    between atoms: S_33  and  C_36
REMARK   12  A    between atoms: O_39  and  C_40
REMARK   13  A    between atoms: C_42  and  C_52
REMARK   14  A    between atoms: C_48  and  O_50
REMARK                            x       y       z     vdW  Elec       q    Type
REMARK                         _______ _______ _______ _____ _____    ______ ____
ROOT
ATOM      1  C   UNL     1      -1.943   2.983   0.000  0.00  0.00    +0.000 C 
ATOM      2  O   UNL     1      -2.764   3.069   0.000  0.00  0.00    +0.000 OA
ATOM      3  N   UNL     1      -1.608   2.229   0.000  0.00  0.00    +0.000 N 
ATOM      4  C   UNL     1      -0.801   2.058   0.000  0.00  0.00    +0.000 C 
ATOM      5  C   UNL     1      -0.715   1.238   0.000  0.00  0.00    +0.000 C 
ATOM      6  C   UNL     1      -1.468   0.902   0.000  0.00  0.00    +0.000 C 
ATOM      7  C   UNL     1      -2.020   1.515   0.000  0.00  0.00    +0.000 C 
ENDROOT
BRANCH   7   8
ATOM      8  C   UNL     1      -2.841   1.429   0.000  0.00  0.00    +0.000 C 
ATOM      9  O   UNL     1      -3.176   0.675   0.000  0.00  0.00    +0.000 OA
ATOM     10  N   UNL     1      -3.326   2.096   0.000  0.00  0.00    +0.000 NA
BRANCH  10  11
ATOM     11  C   UNL     1      -4.146   2.010   0.000  0.00  0.00    +0.000 C 
ATOM     12  C   UNL     1      -4.947   2.210   0.000  0.00  0.00    +0.000 C 
ATOM     13  C   UNL     1      -4.373   2.803   0.000  0.00  0.00    +0.000 C 
BRANCH  11  14
ATOM     14  C   UNL     1      -4.204   1.187   0.000  0.00  0.00    +0.000 C 
ATOM     15  O   UNL     1      -3.520   0.726   0.000  0.00  0.00    +0.000 OA
ATOM     16  N   UNL     1      -4.945   0.825   0.000  0.00  0.00    +0.000 NA
BRANCH  16  17
ATOM     17  S   UNL     1      -5.003   0.002   0.000  0.00  0.00    +0.000 S 
ATOM     18  O   UNL     1      -5.826   0.060   0.000  0.00  0.00    +0.000 OA
ATOM     19  O   UNL     1      -4.180  -0.055   0.000  0.00  0.00    +0.000 OA
BRANCH  17  20
ATOM     20  C   UNL     1      -5.060  -0.821   0.000  0.00  0.00    +0.000 C 
ATOM     21  C   UNL     1      -4.699  -1.562   0.000  0.00  0.00    +0.000 C 
ATOM     22  C   UNL     1      -5.521  -1.505   0.000  0.00  0.00    +0.000 C 
ENDBRANCH  17  20
ENDBRANCH  16  17
ENDBRANCH  11  14
BRANCH  13  23
ATOM     23  C   UNL     1      -4.174   3.603   0.000  0.00  0.00    +0.000 C 
ATOM     24  C   UNL     1      -4.767   4.177   0.000  0.00  0.00    +0.000 C 
ENDBRANCH  13  23
ENDBRANCH  10  11
ENDBRANCH   7   8
BRANCH   5  25
ATOM     25  O   UNL     1       0.000   0.825   0.000  0.00  0.00    +0.000 OA
BRANCH  25  26
ATOM     26  C   UNL     1       0.000   0.000   0.000  0.00  0.00    +0.000 A 
ATOM     27  C   UNL     1      -0.715  -0.412   0.000  0.00  0.00    +0.000 A 
ATOM     28  C   UNL     1      -0.715  -1.238   0.000  0.00  0.00    +0.000 A 
ATOM     29  N   UNL     1       0.000  -1.650   0.000  0.00  0.00    +0.000 NA
ATOM     30  C   UNL     1       0.715  -1.238   0.000  0.00  0.00    +0.000 A 
ATOM     31  C   UNL     1       0.715  -0.412   0.000  0.00  0.00    +0.000 A 
ATOM     32  C   UNL     1       1.429   0.000   0.000  0.00  0.00    +0.000 A 
ATOM     33  C   UNL     1       2.143  -0.412   0.000  0.00  0.00    +0.000 A 
ATOM     34  C   UNL     1       2.143  -1.238   0.000  0.00  0.00    +0.000 A 
ATOM     35  C   UNL     1       1.429  -1.650   0.000  0.00  0.00    +0.000 A 
BRANCH  28  36
ATOM     36  C   UNL     1      -1.429  -1.650   0.000  0.00  0.00    +0.000 A 
ATOM     37  C   UNL     1      -1.429  -2.475   0.000  0.00  0.00    +0.000 A 
ATOM     38  C   UNL     1      -2.143  -2.888   0.000  0.00  0.00    +0.000 A 
ATOM     39  C   UNL     1      -2.858  -2.475   0.000  0.00  0.00    +0.000 A 
ATOM     40  C   UNL     1      -2.858  -1.650   0.000  0.00  0.00    +0.000 A 
ATOM     41  C   UNL     1      -2.143  -1.238   0.000  0.00  0.00    +0.000 A 
ENDBRANCH  28  36
BRANCH  34  42
ATOM     42  O   UNL     1       2.858  -1.650   0.000  0.00  0.00    +0.000 OA
ATOM     43  C   UNL     1       3.572  -1.238   0.000  0.00  0.00    +0.000 C 
ENDBRANCH  34  42
ENDBRANCH  25  26
ENDBRANCH   5  25
BRANCH   1  44
ATOM     44  C   UNL     1      -1.458   3.651   0.000  0.00  0.00    +0.000 C 
BRANCH  44  46
ATOM     45  C   UNL     1      -1.040   4.740   0.000  0.00  0.00    +0.000 C 
ATOM     46  C   UNL     1      -1.794   4.404   0.000  0.00  0.00    +0.000 C 
ATOM     47  C   UNL     1      -2.547   4.069   0.000  0.00  0.00    +0.000 C 
ATOM     48  C   UNL     1      -2.129   5.158   0.000  0.00  0.00    +0.000 C 
ENDBRANCH  44  46
BRANCH  44  49
ATOM     49  C   UNL     1      -0.638   3.564   0.000  0.00  0.00    +0.000 C 
BRANCH  49  50
ATOM     50  C   UNL     1      -0.153   4.232   0.000  0.00  0.00    +0.000 C 
ATOM     51  O   UNL     1      -0.488   4.986   0.000  0.00  0.00    +0.000 OA
ATOM     52  N   UNL     1       0.668   4.146   0.000  0.00  0.00    +0.000 N 
ATOM     53  C   UNL     1       1.153   4.813   0.000  0.00  0.00    +0.000 C 
ATOM     54  C   UNL     1       1.973   4.727   0.000  0.00  0.00    +0.000 C 
ATOM     55  C   UNL     1       2.308   3.973   0.000  0.00  0.00    +0.000 C 
ATOM     56  C   UNL     1       1.824   3.306   0.000  0.00  0.00    +0.000 C 
ATOM     57  C   UNL     1       1.003   3.392   0.000  0.00  0.00    +0.000 C 
ENDBRANCH  49  50
ENDBRANCH  44  49
ENDBRANCH   1  44
TORSDOF 14
