REMARK  Name = 
REMARK  5 active torsions:
REMARK  status: ('A' for Active; 'I' for Inactive)
REMARK    1  A    between atoms: BE_1  and  O_2
REMARK    2  A    between atoms: O_2  and  C_3
REMARK    3  A    between atoms: C_3  and  C_5
REMARK    4  A    between atoms: C_5  and  C_6
REMARK    5  A    between atoms: C_6  and  C_7
REMARK                            x       y       z     vdW  Elec       q    Type
REMARK                         _______ _______ _______ _____ _____    ______ ____
ROOT
ATOM      1  C   UNK     1      -0.055   0.206   0.000  0.00  0.00    +0.000 C 
ATOM      2  O   UNK     1      -0.770   0.619   0.000  0.00  0.00    +0.000 OA
ENDROOT
BRANCH   1   3
ATOM      3  O   UNK     1       0.659   0.619   0.000  0.00  0.00    +0.000 OA
BRANCH   3   4
ATOM      4 BE   UNK     1       0.659   1.444   0.000  0.00  0.00    +0.000 Be
ATOM      5  F   UNK     1       0.659   2.269   0.000  0.00  0.00    +0.000 F 
ATOM      6  F   UNK     1       1.484   1.444   0.000  0.00  0.00    +0.000 F 
ATOM      7  F   UNK     1      -0.166   1.444   0.000  0.00  0.00    +0.000 F 
ENDBRANCH   3   4
ENDBRANCH   1   3
BRANCH   1   8
ATOM      8  C   UNK     1      -0.055  -0.619   0.000  0.00  0.00    +0.000 C 
BRANCH   8   9
ATOM      9  C   UNK     1      -0.770  -1.031   0.000  0.00  0.00    +0.000 C 
ATOM     10  N   UNK     1      -1.484  -0.619   0.000  0.00  0.00    +0.000 NA
BRANCH   9  11
ATOM     11  C   UNK     1      -0.770  -1.856   0.000  0.00  0.00    +0.000 C 
ATOM     12  O   UNK     1      -1.484  -2.269   0.000  0.00  0.00    +0.000 OA
ATOM     13  O   UNK     1      -0.055  -2.269   0.000  0.00  0.00    +0.000 OA
ENDBRANCH   9  11
ENDBRANCH   8   9
ENDBRANCH   1   8
TORSDOF 5
