REMARK  Name = 
REMARK  5 active torsions:
REMARK  status: ('A' for Active; 'I' for Inactive)
REMARK    1  A    between atoms: N_2  and  S_27
REMARK    2  A    between atoms: C_5  and  N_7
REMARK    3  A    between atoms: C_11  and  C_15
REMARK    4  A    between atoms: C_15  and  C_16
REMARK    5  A    between atoms: C_17  and  O_24
REMARK                            x       y       z     vdW  Elec       q    Type
REMARK                         _______ _______ _______ _____ _____    ______ ____
ROOT
ATOM      1  N   UNL     1      -0.639   2.147   0.000  0.00  0.00    +0.000 NA
ATOM      2  C   UNL     1       0.074   1.730   0.000  0.00  0.00    +0.000 A 
ATOM      3  N   UNL     1       0.074   0.905   0.000  0.00  0.00    +0.000 NA
ATOM      4  C   UNL     1       0.783   0.493   0.000  0.00  0.00    +0.000 A 
ATOM      5  C   UNL     1       1.498   0.904   0.000  0.00  0.00    +0.000 A 
ATOM      6  C   UNL     1       1.498   1.732   0.000  0.00  0.00    +0.000 A 
ATOM      7  N   UNL     1       0.783   2.144   0.000  0.00  0.00    +0.000 NA
ATOM      8  N   UNL     1       2.206   2.151   0.000  0.00  0.00    +0.000 NA
ENDROOT
BRANCH   1  13
ATOM      9  C   UNL     1      -2.775   1.730   0.000  0.00  0.00    +0.000 C 
ATOM     10  N   UNL     1      -2.775   0.900   0.000  0.00  0.00    +0.000 NA
ATOM     11  C   UNL     1      -2.062   0.492   0.000  0.00  0.00    +0.000 C 
ATOM     12  C   UNL     1      -1.349   0.900   0.000  0.00  0.00    +0.000 C 
ATOM     13  C   UNL     1      -1.349   1.730   0.000  0.00  0.00    +0.000 C 
ATOM     14  C   UNL     1      -2.062   2.147   0.000  0.00  0.00    +0.000 C 
BRANCH  10  15
ATOM     15  S   UNL     1      -3.494   0.492   0.000  0.00  0.00    +0.000 S 
ATOM     16  O   UNL     1      -3.086  -0.221   0.000  0.00  0.00    +0.000 OA
ATOM     17  O   UNL     1      -3.911   1.210   0.000  0.00  0.00    +0.000 OA
ATOM     18  C   UNL     1      -4.212   0.085   0.000  0.00  0.00    +0.000 C 
ENDBRANCH  10  15
ENDBRANCH   1  13
BRANCH   5  19
ATOM     19  C   UNL     1       2.080   0.321   0.000  0.00  0.00    +0.000 C 
ATOM     20  O   UNL     1       2.794   0.738   0.000  0.00  0.00    +0.000 OA
BRANCH  19  21
ATOM     21  C   UNL     1       2.080  -0.504   0.000  0.00  0.00    +0.000 A 
ATOM     22  C   UNL     1       2.786  -0.915   0.000  0.00  0.00    +0.000 A 
ATOM     23  C   UNL     1       2.786  -1.738   0.000  0.00  0.00    +0.000 A 
ATOM     24  C   UNL     1       2.064  -2.151   0.000  0.00  0.00    +0.000 A 
ATOM     25  C   UNL     1       1.355  -1.734   0.000  0.00  0.00    +0.000 A 
ATOM     26  C   UNL     1       1.355  -0.910   0.000  0.00  0.00    +0.000 A 
ATOM     27  F   UNL     1       0.380  -0.490   0.000  0.00  0.00    +0.000 F 
ATOM     28  F   UNL     1       0.630  -2.144   0.000  0.00  0.00    +0.000 F 
BRANCH  22  29
ATOM     29  O   UNL     1       3.498  -0.494   0.000  0.00  0.00    +0.000 OA
ATOM     30  C   UNL     1       4.212  -0.907   0.000  0.00  0.00    +0.000 C 
ENDBRANCH  22  29
ENDBRANCH  19  21
ENDBRANCH   5  19
TORSDOF 5
