REMARK  Name = 
REMARK  3 active torsions:
REMARK  status: ('A' for Active; 'I' for Inactive)
REMARK    1  A    between atoms: C_4  and  C_11
REMARK    2  A    between atoms: C_12  and  C_18
REMARK    3  A    between atoms: C_25  and  N_27
REMARK                            x       y       z     vdW  Elec       q    Type
REMARK                         _______ _______ _______ _____ _____    ______ ____
ROOT
ATOM      1  C   UNL     1       0.086   1.422   0.000  0.00  0.00    +0.000 C 
ATOM      2  C   UNL     1      -0.398   0.754   0.000  0.00  0.00    +0.000 C 
ATOM      3  C   UNL     1      -1.183   1.009   0.000  0.00  0.00    +0.000 C 
ATOM      4  O   UNL     1      -1.851   0.524   0.000  0.00  0.00    +0.000 OA
ATOM      5  N   UNL     1      -1.183   1.834   0.000  0.00  0.00    +0.000 NA
ATOM      6  C   UNL     1      -0.398   2.089   0.000  0.00  0.00    +0.000 C 
ATOM      7  O   UNL     1      -0.143   2.874   0.000  0.00  0.00    +0.000 OA
ENDROOT
BRANCH   1  11
ATOM      8  C   UNL     1       2.849   0.524   0.000  0.00  0.00    +0.000 C 
ATOM      9  N   UNL     1       2.181   1.009   0.000  0.00  0.00    +0.000 N 
ATOM     10  C   UNL     1       1.396   0.754   0.000  0.00  0.00    +0.000 A 
ATOM     11  C   UNL     1       0.911   1.422   0.000  0.00  0.00    +0.000 A 
ATOM     12  C   UNL     1       1.396   2.089   0.000  0.00  0.00    +0.000 A 
ATOM     13  C   UNL     1       2.181   1.834   0.000  0.00  0.00    +0.000 A 
ATOM     14  C   UNL     1       2.794   2.386   0.000  0.00  0.00    +0.000 A 
ATOM     15  C   UNL     1       2.623   3.193   0.000  0.00  0.00    +0.000 A 
ATOM     16  C   UNL     1       1.838   3.448   0.000  0.00  0.00    +0.000 A 
ATOM     17  C   UNL     1       1.225   2.896   0.000  0.00  0.00    +0.000 A 
ENDBRANCH   1  11
BRANCH   2  18
ATOM     18  C   UNL     1      -0.143  -0.030   0.000  0.00  0.00    +0.000 A 
ATOM     19  C   UNL     1      -0.628  -0.698   0.000  0.00  0.00    +0.000 A 
ATOM     20  N   UNL     1      -0.143  -1.365   0.000  0.00  0.00    +0.000 N 
ATOM     21  C   UNL     1       0.641  -1.110   0.000  0.00  0.00    +0.000 A 
ATOM     22  C   UNL     1       0.641  -0.285   0.000  0.00  0.00    +0.000 A 
ATOM     23  C   UNL     1       1.356   0.127   0.000  0.00  0.00    +0.000 A 
ATOM     24  C   UNL     1       2.070  -0.285   0.000  0.00  0.00    +0.000 A 
ATOM     25  C   UNL     1       2.070  -1.110   0.000  0.00  0.00    +0.000 A 
ATOM     26  C   UNL     1       1.356  -1.523   0.000  0.00  0.00    +0.000 A 
ATOM     27  C   UNL     1      -0.398  -2.150   0.000  0.00  0.00    +0.000 C 
BRANCH  25  28
ATOM     28  N   UNL     1       2.784  -1.523   0.000  0.00  0.00    +0.000 N 
ATOM     29  O   UNL     1       3.499  -1.110   0.000  0.00  0.00    +0.000 OA
ATOM     30  O   UNL     1       2.784  -2.348   0.000  0.00  0.00    +0.000 OA
ENDBRANCH  25  28
ENDBRANCH   2  18
TORSDOF 3
