REMARK  Name = 
REMARK  15 active torsions:
REMARK  status: ('A' for Active; 'I' for Inactive)
REMARK    1  A    between atoms: C_1  and  O_38
REMARK    2  A    between atoms: C_2  and  C_25
REMARK    3  A    between atoms: C_4  and  C_5
REMARK    4  A    between atoms: C_4  and  C_9
REMARK    5  A    between atoms: C_4  and  N_26
REMARK    6  A    between atoms: C_5  and  C_6
REMARK    7  A    between atoms: C_6  and  C_7
REMARK    8  A    between atoms: C_11  and  C_12
REMARK    9  A    between atoms: C_11  and  N_27
REMARK   10  A    between atoms: C_12  and  C_13
REMARK   11  A    between atoms: C_13  and  C_14
REMARK   12  A    between atoms: C_21  and  C_24
REMARK   13  A    between atoms: C_24  and  N_28
REMARK   14  A    between atoms: C_25  and  N_28
REMARK   15  A    between atoms: O_38  and  P_39
REMARK                            x       y       z     vdW  Elec       q    Type
REMARK                         _______ _______ _______ _____ _____    ______ ____
ROOT
ATOM      1  C   UNL     1      -0.788   0.000   0.000  0.00  0.00    +0.000 C 
ATOM      2  N   UNL     1      -0.194  -0.572   0.000  0.00  0.00    +0.000 NA
ATOM      3  N   UNL     1      -1.581  -0.229   0.000  0.00  0.00    +0.000 N 
ATOM      4  O   UNL     1      -0.590   0.801   0.000  0.00  0.00    +0.000 OA
ENDROOT
BRANCH   3   5
ATOM      5  C   UNL     1      -2.176   0.343   0.000  0.00  0.00    +0.000 C 
BRANCH   5   9
ATOM      6  C   UNL     1      -4.553  -0.343   0.000  0.00  0.00    +0.000 A 
ATOM      7  C   UNL     1      -4.355   0.458   0.000  0.00  0.00    +0.000 A 
ATOM      8  C   UNL     1      -3.563   0.686   0.000  0.00  0.00    +0.000 A 
ATOM      9  C   UNL     1      -2.968   0.114   0.000  0.00  0.00    +0.000 A 
ATOM     10  C   UNL     1      -3.166  -0.686   0.000  0.00  0.00    +0.000 A 
ATOM     11  C   UNL     1      -3.959  -0.915   0.000  0.00  0.00    +0.000 A 
BRANCH   6  12
ATOM     12  O   UNL     1      -5.346  -0.572   0.000  0.00  0.00    +0.000 OA
BRANCH  12  16
ATOM     13  O   UNL     1      -5.742  -2.174   0.000  0.00  0.00    +0.000 OA
ATOM     14  O   UNL     1      -6.345  -1.175   0.000  0.00  0.00    +0.000 OA
ATOM     15  O   UNL     1      -4.743  -1.571   0.000  0.00  0.00    +0.000 OA
ATOM     16  P   UNL     1      -5.544  -1.373   0.000  0.00  0.00    +0.000 P 
ENDBRANCH  12  16
ENDBRANCH   6  12
ENDBRANCH   5   9
ENDBRANCH   3   5
BRANCH   3  17
ATOM     17  C   UNL     1      -1.779  -1.030   0.000  0.00  0.00    +0.000 C 
BRANCH  17  18
ATOM     18  C   UNL     1      -1.185  -1.602   0.000  0.00  0.00    +0.000 C 
ATOM     19  O   UNL     1      -0.392  -1.373   0.000  0.00  0.00    +0.000 OA
ATOM     20  O   UNL     1      -1.383  -2.402   0.000  0.00  0.00    +0.000 OA
ENDBRANCH  17  18
ENDBRANCH   3  17
BRANCH   2  21
ATOM     21  C   UNL     1       0.599  -0.343   0.000  0.00  0.00    +0.000 C 
BRANCH  21  22
ATOM     22  C   UNL     1       1.193  -0.915   0.000  0.00  0.00    +0.000 C 
ATOM     23  C   UNL     1       2.184   0.114   0.000  0.00  0.00    +0.000 C 
ATOM     24  N   UNL     1       1.986  -0.686   0.000  0.00  0.00    +0.000 N 
ATOM     25  O   UNL     1       0.995  -1.716   0.000  0.00  0.00    +0.000 OA
BRANCH  24  26
ATOM     26  C   UNL     1       2.580  -1.258   0.000  0.00  0.00    +0.000 C 
BRANCH  26  27
ATOM     27  C   UNL     1       3.373  -1.030   0.000  0.00  0.00    +0.000 C 
BRANCH  27  28
ATOM     28  C   UNL     1       3.967  -1.602   0.000  0.00  0.00    +0.000 C 
BRANCH  28  29
ATOM     29  C   UNL     1       4.760  -1.373   0.000  0.00  0.00    +0.000 C 
ATOM     30  C   UNL     1       4.958  -0.572   0.000  0.00  0.00    +0.000 C 
ATOM     31  C   UNL     1       5.751  -0.343   0.000  0.00  0.00    +0.000 C 
ATOM     32  C   UNL     1       6.345  -0.915   0.000  0.00  0.00    +0.000 C 
ATOM     33  C   UNL     1       6.147  -1.716   0.000  0.00  0.00    +0.000 C 
ATOM     34  C   UNL     1       5.354  -1.945   0.000  0.00  0.00    +0.000 C 
ENDBRANCH  28  29
ENDBRANCH  27  28
ENDBRANCH  26  27
ENDBRANCH  24  26
ENDBRANCH  21  22
BRANCH  21  35
ATOM     35  C   UNL     1       0.797   0.458   0.000  0.00  0.00    +0.000 C 
BRANCH  35  36
ATOM     36  C   UNL     1       0.202   1.030   0.000  0.00  0.00    +0.000 C 
BRANCH  36  37
ATOM     37  C   UNL     1       0.400   1.830   0.000  0.00  0.00    +0.000 C 
ATOM     38  O   UNL     1      -0.194   2.402   0.000  0.00  0.00    +0.000 OA
ATOM     39  O   UNL     1       1.193   2.059   0.000  0.00  0.00    +0.000 OA
ENDBRANCH  36  37
ENDBRANCH  35  36
ENDBRANCH  21  35
ENDBRANCH   2  21
TORSDOF 15
