REMARK  Name = 
REMARK  9 active torsions:
REMARK  status: ('A' for Active; 'I' for Inactive)
REMARK    1  A    between atoms: S_1  and  O_5
REMARK    2  A    between atoms: S_1  and  N_13
REMARK    3  A    between atoms: O_5  and  C_21
REMARK    4  A    between atoms: N_10  and  C_19
REMARK    5  A    between atoms: N_15  and  C_25
REMARK    6  A    between atoms: N_16  and  C_26
REMARK    7  A    between atoms: C_20  and  C_21
REMARK    8  A    between atoms: C_26  and  C_28
REMARK    9  A    between atoms: C_26  and  C_29
REMARK                            x       y       z     vdW  Elec       q    Type
REMARK                         _______ _______ _______ _____ _____    ______ ____
ROOT
ATOM      1  O   UNL     1      -1.176   0.200   0.000  0.00  0.00    +0.000 OA
ATOM      2  O   UNL     1      -3.270   0.616   0.000  0.00  0.00    +0.000 OA
ATOM      3  O   UNL     1      -2.212   2.067   0.000  0.00  0.00    +0.000 OA
ATOM      4  C   UNL     1      -2.445   0.615   0.000  0.00  0.00    +0.000 C 
ATOM      5  C   UNL     1      -1.958   1.282   0.000  0.00  0.00    +0.000 C 
ATOM      6  C   UNL     1      -1.961  -0.053   0.000  0.00  0.00    +0.000 C 
ATOM      7  C   UNL     1      -1.174   1.025   0.000  0.00  0.00    +0.000 C 
ENDROOT
BRANCH   6   8
ATOM      8  N   UNL     1      -2.217  -0.838   0.000  0.00  0.00    +0.000 N 
ATOM      9  N   UNL     1      -2.217  -2.165   0.000  0.00  0.00    +0.000 NA
ATOM     10  N   UNL     1      -3.712  -0.676   0.000  0.00  0.00    +0.000 NA
ATOM     11  N   UNL     1      -4.427  -1.914   0.000  0.00  0.00    +0.000 NA
ATOM     12  C   UNL     1      -2.998  -1.089   0.000  0.00  0.00    +0.000 A 
ATOM     13  C   UNL     1      -1.736  -1.502   0.000  0.00  0.00    +0.000 A 
ATOM     14  C   UNL     1      -2.998  -1.914   0.000  0.00  0.00    +0.000 A 
ATOM     15  C   UNL     1      -3.712  -2.326   0.000  0.00  0.00    +0.000 A 
ATOM     16  C   UNL     1      -4.427  -1.089   0.000  0.00  0.00    +0.000 A 
BRANCH  15  17
ATOM     17  N   UNL     1      -3.712  -3.151   0.000  0.00  0.00    +0.000 N 
ATOM     18  H   UNL     1      -3.269  -3.407   0.000  0.00  0.00    +0.000 HD
ATOM     19  H   UNL     1      -4.155  -3.407   0.000  0.00  0.00    +0.000 HD
ENDBRANCH  15  17
ENDBRANCH   6   8
BRANCH   7  20
ATOM     20  C   UNL     1      -0.506   1.509   0.000  0.00  0.00    +0.000 C 
BRANCH  20  21
ATOM     21  O   UNL     1       0.247   1.172   0.000  0.00  0.00    +0.000 OA
BRANCH  21  22
ATOM     22  S   UNL     1       0.915   1.656   0.000  0.00  0.00    +0.000 S 
ATOM     23  O   UNL     1       1.399   0.988   0.000  0.00  0.00    +0.000 OA
ATOM     24  O   UNL     1       0.432   2.324   0.000  0.00  0.00    +0.000 OA
BRANCH  22  26
ATOM     25  O   UNL     1       2.422   0.982   0.000  0.00  0.00    +0.000 OA
ATOM     26  N   UNL     1       1.584   2.140   0.000  0.00  0.00    +0.000 N 
ATOM     27  C   UNL     1       2.337   1.803   0.000  0.00  0.00    +0.000 C 
ATOM     28  H   UNL     1       1.531   2.649   0.000  0.00  0.00    +0.000 HD
BRANCH  27  29
ATOM     29  C   UNL     1       3.005   2.287   0.000  0.00  0.00    +0.000 C 
BRANCH  29  31
ATOM     30  O   UNL     1       4.427   2.434   0.000  0.00  0.00    +0.000 OA
ATOM     31  C   UNL     1       3.758   1.950   0.000  0.00  0.00    +0.000 C 
ATOM     32  C   UNL     1       3.843   1.129   0.000  0.00  0.00    +0.000 C 
ENDBRANCH  29  31
BRANCH  29  33
ATOM     33  N   UNL     1       2.920   3.107   0.000  0.00  0.00    +0.000 NA
ATOM     34  H   UNL     1       2.454   3.316   0.000  0.00  0.00    +0.000 HD
ATOM     35  H   UNL     1       3.335   3.407   0.000  0.00  0.00    +0.000 HD
ENDBRANCH  29  33
ENDBRANCH  27  29
ENDBRANCH  22  26
ENDBRANCH  21  22
ENDBRANCH  20  21
ENDBRANCH   7  20
TORSDOF 9
