REMARK  Name = 
REMARK  6 active torsions:
REMARK  status: ('A' for Active; 'I' for Inactive)
REMARK    1  A    between atoms: C_6  and  C_8
REMARK    2  A    between atoms: C_14  and  C_28
REMARK    3  A    between atoms: N_16  and  C_17
REMARK    4  A    between atoms: C_17  and  C_18
REMARK    5  A    between atoms: C_21  and  C_24
REMARK    6  A    between atoms: C_28  and  C_30
REMARK                            x       y       z     vdW  Elec       q    Type
REMARK                         _______ _______ _______ _____ _____    ______ ____
ROOT
ATOM      1  C   UNL     1       3.352   1.935   0.000  0.00  0.00    +0.000 A 
ATOM      2  C   UNL     1       3.352   1.110   0.000  0.00  0.00    +0.000 A 
ATOM      3  C   UNL     1       2.638   0.698   0.000  0.00  0.00    +0.000 A 
ATOM      4  C   UNL     1       1.923   1.110   0.000  0.00  0.00    +0.000 A 
ATOM      5  C   UNL     1       1.923   1.935   0.000  0.00  0.00    +0.000 A 
ATOM      6  C   UNL     1       2.638   2.348   0.000  0.00  0.00    +0.000 A 
ATOM      7  C   UNL     1       1.139   2.190   0.000  0.00  0.00    +0.000 A 
ATOM      8  C   UNL     1       0.654   1.523   0.000  0.00  0.00    +0.000 A 
ATOM      9  N   UNL     1       1.139   0.856   0.000  0.00  0.00    +0.000 N 
ENDROOT
BRANCH   1  15
ATOM     10  C   UNL     1       4.781   4.410   0.000  0.00  0.00    +0.000 C 
ATOM     11  C   UNL     1       4.781   3.585   0.000  0.00  0.00    +0.000 A 
ATOM     12  C   UNL     1       5.496   3.173   0.000  0.00  0.00    +0.000 A 
ATOM     13  C   UNL     1       5.496   2.348   0.000  0.00  0.00    +0.000 A 
ATOM     14  C   UNL     1       4.781   1.935   0.000  0.00  0.00    +0.000 A 
ATOM     15  C   UNL     1       4.067   2.348   0.000  0.00  0.00    +0.000 A 
ATOM     16  C   UNL     1       4.067   3.173   0.000  0.00  0.00    +0.000 A 
ENDBRANCH   1  15
BRANCH   7  17
ATOM     17  C   UNL     1       0.884   2.975   0.000  0.00  0.00    +0.000 C 
ATOM     18  O   UNL     1       1.436   3.588   0.000  0.00  0.00    +0.000 OA
BRANCH  17  19
ATOM     19  C   UNL     1       0.077   3.147   0.000  0.00  0.00    +0.000 C 
ATOM     20  O   UNL     1      -0.475   2.533   0.000  0.00  0.00    +0.000 OA
ATOM     21  O   UNL     1      -0.178   3.931   0.000  0.00  0.00    +0.000 OA
ENDBRANCH  17  19
ENDBRANCH   7  17
BRANCH   9  22
ATOM     22  C   UNL     1       0.884   0.071   0.000  0.00  0.00    +0.000 C 
BRANCH  22  23
ATOM     23  C   UNL     1       0.077  -0.101   0.000  0.00  0.00    +0.000 A 
ATOM     24  C   UNL     1      -0.178  -0.885   0.000  0.00  0.00    +0.000 A 
ATOM     25  C   UNL     1      -0.985  -1.057   0.000  0.00  0.00    +0.000 A 
ATOM     26  C   UNL     1      -1.537  -0.444   0.000  0.00  0.00    +0.000 A 
ATOM     27  C   UNL     1      -1.282   0.341   0.000  0.00  0.00    +0.000 A 
ATOM     28  C   UNL     1      -0.475   0.512   0.000  0.00  0.00    +0.000 A 
BRANCH  26  29
ATOM     29  C   UNL     1      -2.344  -0.615   0.000  0.00  0.00    +0.000 C 
ATOM     30  C   UNL     1      -3.151  -0.787   0.000  0.00  0.00    +0.000 C 
ATOM     31  C   UNL     1      -2.516   0.192   0.000  0.00  0.00    +0.000 C 
ATOM     32  C   UNL     1      -2.173  -1.422   0.000  0.00  0.00    +0.000 C 
ENDBRANCH  26  29
ENDBRANCH  22  23
ENDBRANCH   9  22
TORSDOF 6
