REMARK  Name = 
REMARK  8 active torsions:
REMARK  status: ('A' for Active; 'I' for Inactive)
REMARK    1  A    between atoms: N_4  and  C_5
REMARK    2  A    between atoms: C_5  and  C_6
REMARK    3  A    between atoms: N_8  and  C_12
REMARK    4  A    between atoms: C_15  and  C_19
REMARK    5  A    between atoms: C_22  and  C_25
REMARK    6  A    between atoms: C_25  and  N_26
REMARK    7  A    between atoms: N_26  and  C_27
REMARK    8  A    between atoms: C_27  and  C_28
REMARK                            x       y       z     vdW  Elec       q    Type
REMARK                         _______ _______ _______ _____ _____    ______ ____
ROOT
ATOM      1  C   UNL     1       1.612  -5.649   0.000  0.00  0.00    +0.000 A 
ATOM      2  C   UNL     1       2.432  -5.563   0.000  0.00  0.00    +0.000 A 
ATOM      3  C   UNL     1       2.917  -6.231   0.000  0.00  0.00    +0.000 A 
ATOM      4  C   UNL     1       2.582  -6.984   0.000  0.00  0.00    +0.000 A 
ATOM      5  C   UNL     1       1.761  -7.071   0.000  0.00  0.00    +0.000 A 
ATOM      6  C   UNL     1       1.276  -6.403   0.000  0.00  0.00    +0.000 A 
ATOM      7  F   UNL     1       1.426  -7.824   0.000  0.00  0.00    +0.000 F 
ENDROOT
BRANCH   4   8
ATOM      8  C   UNL     1       3.067  -7.652   0.000  0.00  0.00    +0.000 A 
ATOM      9  C   UNL     1       3.887  -7.566   0.000  0.00  0.00    +0.000 A 
ATOM     10  C   UNL     1       4.372  -8.233   0.000  0.00  0.00    +0.000 A 
ATOM     11  C   UNL     1       4.037  -8.987   0.000  0.00  0.00    +0.000 A 
ATOM     12  C   UNL     1       3.216  -9.073   0.000  0.00  0.00    +0.000 A 
ATOM     13  C   UNL     1       2.731  -8.405   0.000  0.00  0.00    +0.000 A 
BRANCH  11  14
ATOM     14  C   UNL     1       4.521  -9.654   0.000  0.00  0.00    +0.000 C 
BRANCH  14  15
ATOM     15  N   UNL     1       4.186 -10.408   0.000  0.00  0.00    +0.000 NA
BRANCH  15  16
ATOM     16  C   UNL     1       4.671 -11.075   0.000  0.00  0.00    +0.000 C 
BRANCH  16  17
ATOM     17  C   UNL     1       4.335 -11.829   0.000  0.00  0.00    +0.000 A 
ATOM     18  C   UNL     1       4.748 -12.543   0.000  0.00  0.00    +0.000 A 
ATOM     19  N   UNL     1       4.196 -13.156   0.000  0.00  0.00    +0.000 NA
ATOM     20  N   UNL     1       3.442 -12.821   0.000  0.00  0.00    +0.000 NA
ATOM     21  N   UNL     1       3.528 -12.000   0.000  0.00  0.00    +0.000 NA
ENDBRANCH  16  17
ENDBRANCH  15  16
ENDBRANCH  14  15
ENDBRANCH  11  14
ENDBRANCH   4   8
BRANCH   1  24
ATOM     22  C   UNL     1       0.715  -3.712   0.000  0.00  0.00    +0.000 C 
ATOM     23  C   UNL     1       1.382  -4.197   0.000  0.00  0.00    +0.000 C 
ATOM     24  N   UNL     1       1.127  -4.982   0.000  0.00  0.00    +0.000 N 
ATOM     25  C   UNL     1       0.302  -4.982   0.000  0.00  0.00    +0.000 C 
ATOM     26  O   UNL     1      -0.183  -5.649   0.000  0.00  0.00    +0.000 OA
ATOM     27  O   UNL     1       0.047  -4.197   0.000  0.00  0.00    +0.000 OA
BRANCH  22  28
ATOM     28  C   UNL     1       0.715  -2.888   0.000  0.00  0.00    +0.000 C 
BRANCH  28  32
ATOM     29  C   UNL     1      -0.715  -1.238   0.000  0.00  0.00    +0.000 C 
ATOM     30  C   UNL     1       0.000  -1.650   0.000  0.00  0.00    +0.000 C 
ATOM     31  O   UNL     1       0.715  -1.238   0.000  0.00  0.00    +0.000 OA
ATOM     32  N   UNL     1       0.000  -2.475   0.000  0.00  0.00    +0.000 NA
ENDBRANCH  28  32
ENDBRANCH  22  28
ENDBRANCH   1  24
TORSDOF 8
