REMARK  Name = 
REMARK  1 active torsions:
REMARK  status: ('A' for Active; 'I' for Inactive)
REMARK    1  A    between atoms: N_12  and  C_13
REMARK                            x       y       z     vdW  Elec       q    Type
REMARK                         _______ _______ _______ _____ _____    ______ ____
ROOT
ATOM      1  C   UNL     1      -2.239  -0.754   0.000  0.00  0.00    +0.000 A 
ATOM      2  C   UNL     1      -1.526  -0.340   0.000  0.00  0.00    +0.000 A 
ATOM      3  N   UNL     1      -0.812  -0.753   0.000  0.00  0.00    +0.000 N 
ATOM      4  C   UNL     1      -0.812  -1.577   0.000  0.00  0.00    +0.000 A 
ATOM      5  C   UNL     1      -1.523  -1.986   0.000  0.00  0.00    +0.000 A 
ATOM      6  C   UNL     1      -2.239  -1.583   0.000  0.00  0.00    +0.000 A 
ATOM      7  O   UNL     1      -2.953  -1.993   0.000  0.00  0.00    +0.000 OA
ATOM      8  O   UNL     1      -1.523  -2.815   0.000  0.00  0.00    +0.000 OA
ATOM      9  C   UNL     1      -0.099  -1.987   0.000  0.00  0.00    +0.000 C 
ATOM     10  N   UNL     1       0.615  -1.577   0.000  0.00  0.00    +0.000 N 
ATOM     11  C   UNL     1       0.615  -0.753   0.000  0.00  0.00    +0.000 C 
ATOM     12  N   UNL     1      -0.099  -0.339   0.000  0.00  0.00    +0.000 N 
ATOM     13  C   UNL     1       1.328  -0.339   0.000  0.00  0.00    +0.000 C 
ATOM     14  O   UNL     1       2.042  -0.753   0.000  0.00  0.00    +0.000 OA
ATOM     15  C   UNL     1       2.042  -1.578   0.000  0.00  0.00    +0.000 C 
ATOM     16  C   UNL     1       1.328  -1.987   0.000  0.00  0.00    +0.000 C 
ATOM     17  O   UNL     1      -0.099  -2.816   0.000  0.00  0.00    +0.000 OA
ENDROOT
BRANCH  12  18
ATOM     18  C   UNL     1      -0.099   0.485   0.000  0.00  0.00    +0.000 C 
ATOM     19  C   UNL     1      -0.866   0.790   0.000  0.00  0.00    +0.000 A 
ATOM     20  C   UNL     1      -1.108   1.579   0.000  0.00  0.00    +0.000 A 
ATOM     21  S   UNL     1      -0.648   2.257   0.000  0.00  0.00    +0.000 S 
ATOM     22  C   UNL     1       0.181   2.323   0.000  0.00  0.00    +0.000 C 
ATOM     23  C   UNL     1       0.740   1.719   0.000  0.00  0.00    +0.000 A 
ATOM     24  C   UNL     1       0.620   0.900   0.000  0.00  0.00    +0.000 A 
ATOM     25  C   UNL     1       1.269   0.385   0.000  0.00  0.00    +0.000 A 
ATOM     26  C   UNL     1       2.039   0.689   0.000  0.00  0.00    +0.000 A 
ATOM     27  C   UNL     1       2.159   1.506   0.000  0.00  0.00    +0.000 A 
ATOM     28  C   UNL     1       1.510   2.018   0.000  0.00  0.00    +0.000 A 
ATOM     29  F   UNL     1       1.724   2.816   0.000  0.00  0.00    +0.000 F 
ATOM     30  F   UNL     1       2.953   1.720   0.000  0.00  0.00    +0.000 F 
ATOM     31  C   UNL     1      -1.914   1.761   0.000  0.00  0.00    +0.000 A 
ATOM     32  C   UNL     1      -2.470   1.157   0.000  0.00  0.00    +0.000 A 
ATOM     33  C   UNL     1      -2.227   0.371   0.000  0.00  0.00    +0.000 A 
ATOM     34  C   UNL     1      -1.427   0.185   0.000  0.00  0.00    +0.000 A 
ENDBRANCH  12  18
TORSDOF 1
