REMARK  Name = 
REMARK  9 active torsions:
REMARK  status: ('A' for Active; 'I' for Inactive)
REMARK    1  A    between atoms: C_14  and  C_16
REMARK    2  A    between atoms: C_14  and  N_25
REMARK    3  A    between atoms: C_15  and  C_17
REMARK    4  A    between atoms: C_16  and  O_29
REMARK    5  A    between atoms: C_17  and  O_29
REMARK    6  A    between atoms: C_18  and  C_20
REMARK    7  A    between atoms: C_18  and  N_26
REMARK    8  A    between atoms: C_19  and  C_20
REMARK    9  A    between atoms: C_19  and  N_27
REMARK                            x       y       z     vdW  Elec       q    Type
REMARK                         _______ _______ _______ _____ _____    ______ ____
ROOT
ATOM      1  C   UNL     1      -5.716   7.425   0.000  0.00  0.00    +0.000 C 
ENDROOT
BRANCH   1  14
ATOM      2  C   UNL     1      -7.859   8.662   0.000  0.00  0.00    +0.000 A 
ATOM      3  C   UNL     1      -5.716   4.950   0.000  0.00  0.00    +0.000 A 
ATOM      4  C   UNL     1      -8.574   8.250   0.000  0.00  0.00    +0.000 A 
ATOM      5  C   UNL     1      -6.430   4.537   0.000  0.00  0.00    +0.000 A 
ATOM      6  C   UNL     1      -7.145   8.250   0.000  0.00  0.00    +0.000 A 
ATOM      7  C   UNL     1      -5.716   5.775   0.000  0.00  0.00    +0.000 A 
ATOM      8  C   UNL     1      -8.574   7.425   0.000  0.00  0.00    +0.000 A 
ATOM      9  C   UNL     1      -7.145   4.950   0.000  0.00  0.00    +0.000 A 
ATOM     10  C   UNL     1      -7.145   7.425   0.000  0.00  0.00    +0.000 A 
ATOM     11  C   UNL     1      -6.430   6.188   0.000  0.00  0.00    +0.000 A 
ATOM     12  C   UNL     1      -7.859   7.013   0.000  0.00  0.00    +0.000 A 
ATOM     13  C   UNL     1      -7.145   5.775   0.000  0.00  0.00    +0.000 A 
ATOM     14  N   UNL     1      -6.430   7.013   0.000  0.00  0.00    +0.000 N 
ATOM     15  S   UNL     1      -7.859   6.188   0.000  0.00  0.00    +0.000 S 
ENDBRANCH   1  14
BRANCH   1  17
ATOM     16  C   UNL     1      -5.001   6.188   0.000  0.00  0.00    +0.000 C 
ATOM     17  C   UNL     1      -5.001   7.013   0.000  0.00  0.00    +0.000 C 
BRANCH  17  18
ATOM     18  C   UNL     1      -4.287   7.425   0.000  0.00  0.00    +0.000 C 
BRANCH  18  24
ATOM     19  C   UNL     1      -2.143   7.013   0.000  0.00  0.00    +0.000 C 
ATOM     20  C   UNL     1      -2.858   5.775   0.000  0.00  0.00    +0.000 C 
ATOM     21  C   UNL     1      -2.858   7.425   0.000  0.00  0.00    +0.000 C 
ATOM     22  C   UNL     1      -3.572   6.188   0.000  0.00  0.00    +0.000 C 
ATOM     23  N   UNL     1      -2.143   6.188   0.000  0.00  0.00    +0.000 NA
ATOM     24  N   UNL     1      -3.572   7.013   0.000  0.00  0.00    +0.000 NA
BRANCH  23  25
ATOM     25  C   UNL     1      -1.429   5.775   0.000  0.00  0.00    +0.000 C 
BRANCH  25  26
ATOM     26  C   UNL     1      -0.715   6.188   0.000  0.00  0.00    +0.000 C 
BRANCH  26  27
ATOM     27  O   UNL     1       0.000   5.775   0.000  0.00  0.00    +0.000 OA
BRANCH  27  28
ATOM     28  C   UNL     1       0.715   6.188   0.000  0.00  0.00    +0.000 C 
BRANCH  28  29
ATOM     29  C   UNL     1       1.429   5.775   0.000  0.00  0.00    +0.000 C 
ATOM     30  O   UNL     1       2.143   6.188   0.000  0.00  0.00    +0.000 OA
ENDBRANCH  28  29
ENDBRANCH  27  28
ENDBRANCH  26  27
ENDBRANCH  25  26
ENDBRANCH  23  25
ENDBRANCH  18  24
ENDBRANCH  17  18
ENDBRANCH   1  17
TORSDOF 9
