REMARK  Name = 
REMARK  3 active torsions:
REMARK  status: ('A' for Active; 'I' for Inactive)
REMARK    1  A    between atoms: O_1  and  C_2
REMARK    2  A    between atoms: O_1  and  C_12
REMARK    3  A    between atoms: C_5  and  N_6
REMARK                            x       y       z     vdW  Elec       q    Type
REMARK                         _______ _______ _______ _____ _____    ______ ____
ROOT
ATOM      1  C   UNL     1       0.715   0.412   0.000  0.00  0.00    +0.000 A 
ATOM      2  C   UNL     1       0.715  -0.412   0.000  0.00  0.00    +0.000 A 
ATOM      3  C   UNL     1       0.000  -0.825   0.000  0.00  0.00    +0.000 A 
ATOM      4  C   UNL     1      -0.715  -0.412   0.000  0.00  0.00    +0.000 A 
ATOM      5  C   UNL     1      -0.715   0.412   0.000  0.00  0.00    +0.000 A 
ATOM      6  C   UNL     1       0.000   0.825   0.000  0.00  0.00    +0.000 A 
ENDROOT
BRANCH   4   7
ATOM      7  N   UNL     1      -1.429  -0.825   0.000  0.00  0.00    +0.000 NA
ATOM      8  C   UNL     1      -2.143  -0.412   0.000  0.00  0.00    +0.000 C 
ATOM      9  O   UNL     1      -2.143   0.412   0.000  0.00  0.00    +0.000 OA
ATOM     10  N   UNL     1      -2.858  -0.825   0.000  0.00  0.00    +0.000 NA
ENDBRANCH   4   7
BRANCH   1  11
ATOM     11  O   UNL     1       1.429   0.825   0.000  0.00  0.00    +0.000 OA
BRANCH  11  12
ATOM     12  C   UNL     1       2.143   0.412   0.000  0.00  0.00    +0.000 C 
ATOM     13  F   UNL     1       2.143  -0.412   0.000  0.00  0.00    +0.000 F 
ATOM     14  F   UNL     1       2.858   0.000   0.000  0.00  0.00    +0.000 F 
ATOM     15  F   UNL     1       2.858   0.825   0.000  0.00  0.00    +0.000 F 
ENDBRANCH  11  12
ENDBRANCH   1  11
TORSDOF 3
