REMARK  Name = 
REMARK  11 active torsions:
REMARK  status: ('A' for Active; 'I' for Inactive)
REMARK    1  A    between atoms: CB_2  and  CA_4
REMARK    2  A    between atoms: CA_4  and  C_5
REMARK    3  A    between atoms: CA_4  and  N_8
REMARK    4  A    between atoms: C_9  and  C_10
REMARK    5  A    between atoms: C_10  and  C_11
REMARK    6  A    between atoms: C_10  and  N_13
REMARK    7  A    between atoms: C_14  and  C_15
REMARK    8  A    between atoms: C_15  and  C_16
REMARK    9  A    between atoms: C_16  and  C_17
REMARK   10  A    between atoms: C_17  and  C_18
REMARK   11  A    between atoms: C_18  and  C_19
REMARK                            x       y       z     vdW  Elec       q    Type
REMARK                         _______ _______ _______ _____ _____    ______ ____
ROOT
ATOM      1  C   UNK A   1       0.713  -0.623   0.000  0.00  0.00    +0.000 C 
ENDROOT
BRANCH   1   3
ATOM      2  N   VAL A   2       2.148  -0.623   0.000  0.00  0.00    +0.000 NA
ATOM      3  C   UNK A   1       1.435  -0.210   0.000  0.00  0.00    +0.000 C 
ATOM      4  O   UNK A   1       1.435   0.623   0.000  0.00  0.00    +0.000 OA
BRANCH   2   5
ATOM      5  CA  VAL A   2       2.862  -0.210   0.000  0.00  0.00    +0.000 C 
BRANCH   5   7
ATOM      6  CG1 VAL A   2       4.297  -0.210   0.000  0.00  0.00    +0.000 C 
ATOM      7  CB  VAL A   2       3.584  -0.623   0.000  0.00  0.00    +0.000 C 
ATOM      8  CG2 VAL A   2       3.584  -1.448   0.000  0.00  0.00    +0.000 C 
ENDBRANCH   5   7
BRANCH   5   9
ATOM      9  C   VAL A   2       2.862   0.623   0.000  0.00  0.00    +0.000 C 
ATOM     10  O   VAL A   2       2.148   1.036   0.000  0.00  0.00    +0.000 OA
ATOM     11  OXT VAL A   2       3.584   1.036   0.000  0.00  0.00    +0.000 OA
ENDBRANCH   5   9
ENDBRANCH   2   5
ENDBRANCH   1   3
BRANCH   1  12
ATOM     12  N   UNK A   1       0.000  -0.210   0.000  0.00  0.00    +0.000 NA
ATOM     13  C   UNK A   1       0.000   0.623   0.000  0.00  0.00    +0.000 C 
ATOM     14  O   UNK A   1       0.713   1.036   0.000  0.00  0.00    +0.000 OA
BRANCH  13  15
ATOM     15  C   UNK A   1      -0.713   1.036   0.000  0.00  0.00    +0.000 C 
BRANCH  15  16
ATOM     16  C   UNK A   1      -1.435   0.623   0.000  0.00  0.00    +0.000 C 
BRANCH  16  17
ATOM     17  C   UNK A   1      -2.148   1.036   0.000  0.00  0.00    +0.000 C 
BRANCH  17  18
ATOM     18  C   UNK A   1      -2.862   0.623   0.000  0.00  0.00    +0.000 C 
ATOM     19  N   UNK A   1      -2.862  -0.210   0.000  0.00  0.00    +0.000 NA
BRANCH  18  20
ATOM     20  C   UNK A   1      -3.584   1.036   0.000  0.00  0.00    +0.000 C 
ATOM     21  O   UNK A   1      -4.297   0.623   0.000  0.00  0.00    +0.000 OA
ATOM     22  O   UNK A   1      -3.584   1.861   0.000  0.00  0.00    +0.000 OA
ENDBRANCH  18  20
ENDBRANCH  17  18
ENDBRANCH  16  17
ENDBRANCH  15  16
ENDBRANCH  13  15
ENDBRANCH   1  12
BRANCH   1  23
ATOM     23  C   UNK A   1       0.713  -1.448   0.000  0.00  0.00    +0.000 C 
ATOM     24  S   UNK A   1       0.000  -1.861   0.000  0.00  0.00    +0.000 S 
ENDBRANCH   1  23
TORSDOF 11
