REMARK  Name = 
REMARK  8 active torsions:
REMARK  status: ('A' for Active; 'I' for Inactive)
REMARK    1  A    between atoms: C_3  and  C_28
REMARK    2  A    between atoms: C_5  and  C_7
REMARK    3  A    between atoms: C_7  and  C_9
REMARK    4  A    between atoms: C_10  and  N_11
REMARK    5  A    between atoms: N_11  and  C_12
REMARK    6  A    between atoms: C_16  and  C_17
REMARK    7  A    between atoms: C_17  and  O_18
REMARK    8  A    between atoms: O_18  and  S_19
REMARK                            x       y       z     vdW  Elec       q    Type
REMARK                         _______ _______ _______ _____ _____    ______ ____
ROOT
ATOM      1  C   UNL     1      -0.897   2.762   0.000  0.00  0.00    +0.000 C 
ATOM      2  O   UNL     1      -1.718   2.676   0.000  0.00  0.00    +0.000 OA
ENDROOT
BRANCH   1   7
ATOM      3  C   UNL     1       1.452   1.055   0.000  0.00  0.00    +0.000 C 
ATOM      4  C   UNL     1       0.667   1.310   0.000  0.00  0.00    +0.000 A 
ATOM      5  C   UNL     1       0.000   0.825   0.000  0.00  0.00    +0.000 A 
ATOM      6  C   UNL     1      -0.667   1.310   0.000  0.00  0.00    +0.000 A 
ATOM      7  C   UNL     1      -0.412   2.095   0.000  0.00  0.00    +0.000 A 
ATOM      8  S   UNL     1       0.412   2.095   0.000  0.00  0.00    +0.000 S 
BRANCH   5   9
ATOM      9  C   UNL     1       0.000   0.000   0.000  0.00  0.00    +0.000 C 
ATOM     10  N   UNL     1      -0.715  -0.412   0.000  0.00  0.00    +0.000 NA
ATOM     11  C   UNL     1      -0.715  -1.238   0.000  0.00  0.00    +0.000 C 
ATOM     12  C   UNL     1       0.000  -1.650   0.000  0.00  0.00    +0.000 C 
ATOM     13  C   UNL     1       0.715  -1.238   0.000  0.00  0.00    +0.000 A 
ATOM     14  C   UNL     1       0.715  -0.412   0.000  0.00  0.00    +0.000 A 
ATOM     15  C   UNL     1       1.429   0.000   0.000  0.00  0.00    +0.000 A 
ATOM     16  C   UNL     1       2.143  -0.412   0.000  0.00  0.00    +0.000 A 
ATOM     17 CL   UNL     1       2.858   0.000   0.000  0.00  0.00    +0.000 Cl
ATOM     18  C   UNL     1       2.143  -1.238   0.000  0.00  0.00    +0.000 A 
ATOM     19  C   UNL     1       1.429  -1.650   0.000  0.00  0.00    +0.000 A 
ENDBRANCH   5   9
ENDBRANCH   1   7
BRANCH   1  20
ATOM     20  C   UNL     1      -0.562   3.516   0.000  0.00  0.00    +0.000 A 
ATOM     21  C   UNL     1      -1.047   4.183   0.000  0.00  0.00    +0.000 A 
ATOM     22  N   UNL     1      -0.711   4.937   0.000  0.00  0.00    +0.000 NA
ATOM     23  C   UNL     1       0.109   5.023   0.000  0.00  0.00    +0.000 A 
ATOM     24  N   UNL     1       0.594   4.356   0.000  0.00  0.00    +0.000 NA
ATOM     25  C   UNL     1       0.259   3.602   0.000  0.00  0.00    +0.000 A 
BRANCH  21  26
ATOM     26  N   UNL     1      -1.867   4.097   0.000  0.00  0.00    +0.000 NA
BRANCH  26  27
ATOM     27  C   UNL     1      -2.352   4.764   0.000  0.00  0.00    +0.000 C 
ATOM     28  C   UNL     1      -3.177   4.764   0.000  0.00  0.00    +0.000 C 
ATOM     29  C   UNL     1      -3.432   5.549   0.000  0.00  0.00    +0.000 C 
ATOM     30  O   UNL     1      -4.217   5.804   0.000  0.00  0.00    +0.000 OA
ATOM     31  C   UNL     1      -2.765   6.034   0.000  0.00  0.00    +0.000 C 
ATOM     32  C   UNL     1      -2.097   5.549   0.000  0.00  0.00    +0.000 C 
BRANCH  31  33
ATOM     33  C   UNL     1      -2.765   6.859   0.000  0.00  0.00    +0.000 C 
BRANCH  33  34
ATOM     34  O   UNL     1      -3.479   7.271   0.000  0.00  0.00    +0.000 OA
BRANCH  34  35
ATOM     35  S   UNL     1      -3.479   8.096   0.000  0.00  0.00    +0.000 S 
ATOM     36  N   UNL     1      -3.479   8.921   0.000  0.00  0.00    +0.000 NA
ATOM     37  O   UNL     1      -4.304   8.096   0.000  0.00  0.00    +0.000 OA
ATOM     38  O   UNL     1      -2.654   8.096   0.000  0.00  0.00    +0.000 OA
ENDBRANCH  34  35
ENDBRANCH  33  34
ENDBRANCH  31  33
ENDBRANCH  26  27
ENDBRANCH  21  26
ENDBRANCH   1  20
TORSDOF 8
