REMARK  Name = 
REMARK  36 active torsions:
REMARK  status: ('A' for Active; 'I' for Inactive)
REMARK    1  A    between atoms: C_1  and  C_2
REMARK    2  A    between atoms: C_1  and  O_3
REMARK    3  A    between atoms: C_1  and  C_4
REMARK    4  A    between atoms: C_2  and  N_5
REMARK    5  A    between atoms: C_2  and  C_6
REMARK    6  A    between atoms: O_3  and  C_7
REMARK    7  A    between atoms: C_10  and  C_17
REMARK    8  A    between atoms: N_11  and  C_19
REMARK    9  A    between atoms: C_13  and  O_20
REMARK   10  A    between atoms: C_19  and  C_25
REMARK   11  A    between atoms: O_20  and  C_27
REMARK   12  A    between atoms: C_22  and  C_30
REMARK   13  A    between atoms: C_25  and  C_34
REMARK   14  A    between atoms: C_31  and  C_40
REMARK   15  A    between atoms: C_34  and  C_43
REMARK   16  A    between atoms: C_40  and  N_48
REMARK   17  A    between atoms: C_40  and  C_49
REMARK   18  A    between atoms: C_45  and  O_53
REMARK   19  A    between atoms: C_47  and  C_54
REMARK   20  A    between atoms: N_48  and  C_55
REMARK   21  A    between atoms: C_49  and  C_56
REMARK   22  A    between atoms: N_50  and  C_57
REMARK   23  A    between atoms: O_53  and  C_59
REMARK   24  A    between atoms: C_55  and  C_61
REMARK   25  A    between atoms: C_57  and  C_64
REMARK   26  A    between atoms: C_57  and  C_65
REMARK   27  A    between atoms: C_61  and  C_68
REMARK   28  A    between atoms: N_70  and  C_76
REMARK   29  A    between atoms: C_76  and  C_77
REMARK   30  A    between atoms: C_77  and  C_78
REMARK   31  A    between atoms: C_81  and  C_83
REMARK   32  A    between atoms: C_86  and  C_88
REMARK   33  A    between atoms: N_89  and  C_91
REMARK   34  A    between atoms: C_91  and  C_92
REMARK   35  A    between atoms: C_92  and  C_93
REMARK   36  A    between atoms: C_93  and  S_94
REMARK                            x       y       z     vdW  Elec       q    Type
REMARK                         _______ _______ _______ _____ _____    ______ ____
ROOT
ATOM      1  C   UNL     1      -4.785   0.329   0.000  0.00  0.00    +0.000 C 
ENDROOT
BRANCH   1   2
ATOM      2  C   UNL     1      -4.070   0.740   0.000  0.00  0.00    +0.000 C 
ATOM      3  N   UNL     1      -3.384   0.329   0.000  0.00  0.00    +0.000 NA
ATOM      4  O   UNL     1      -4.070   1.566   0.000  0.00  0.00    +0.000 OA
BRANCH   3   5
ATOM      5  C   UNL     1      -2.654   0.740   0.000  0.00  0.00    +0.000 C 
ATOM      6  C   UNL     1      -1.929   0.329   0.000  0.00  0.00    +0.000 C 
BRANCH   5   7
ATOM      7  C   UNL     1      -2.654   1.566   0.000  0.00  0.00    +0.000 C 
ATOM      8  O   UNL     1      -3.384   1.972   0.000  0.00  0.00    +0.000 OA
BRANCH   7   9
ATOM      9  C   UNL     1      -1.929   1.972   0.000  0.00  0.00    +0.000 C 
ATOM     10  C   UNL     1      -1.929   2.774   0.000  0.00  0.00    +0.000 C 
BRANCH   9  11
ATOM     11  C   UNL     1      -1.281   1.566   0.000  0.00  0.00    +0.000 C 
ATOM     12  N   UNL     1      -0.551   1.972   0.000  0.00  0.00    +0.000 NA
ATOM     13  O   UNL     1      -1.281   0.740   0.000  0.00  0.00    +0.000 OA
BRANCH  12  14
ATOM     14  C   UNL     1       0.131   1.566   0.000  0.00  0.00    +0.000 C 
BRANCH  14  15
ATOM     15  C   UNL     1       0.855   1.972   0.000  0.00  0.00    +0.000 C 
ATOM     16  N   UNL     1       1.581   1.566   0.000  0.00  0.00    +0.000 NA
ATOM     17  O   UNL     1       0.855   2.774   0.000  0.00  0.00    +0.000 OA
BRANCH  16  18
ATOM     18  C   UNL     1       1.581   0.740   0.000  0.00  0.00    +0.000 C 
BRANCH  18  19
ATOM     19  C   UNL     1       2.233   0.329   0.000  0.00  0.00    +0.000 C 
BRANCH  19  20
ATOM     20  C   UNL     1       2.953   0.740   0.000  0.00  0.00    +0.000 A 
ATOM     21  N   UNL     1       3.712   0.459   0.000  0.00  0.00    +0.000 NA
ATOM     22  S   UNL     1       2.953   1.566   0.000  0.00  0.00    +0.000 S 
ATOM     23  C   UNL     1       4.220   1.116   0.000  0.00  0.00    +0.000 A 
ATOM     24  C   UNL     1       3.712   1.812   0.000  0.00  0.00    +0.000 A 
BRANCH  23  25
ATOM     25  C   UNL     1       5.056   1.116   0.000  0.00  0.00    +0.000 A 
ATOM     26  N   UNL     1       5.505   1.812   0.000  0.00  0.00    +0.000 NA
ATOM     27  S   UNL     1       5.505   0.459   0.000  0.00  0.00    +0.000 S 
ATOM     28  C   UNL     1       6.293   1.566   0.000  0.00  0.00    +0.000 A 
ATOM     29  C   UNL     1       6.293   0.740   0.000  0.00  0.00    +0.000 A 
BRANCH  28  30
ATOM     30  C   UNL     1       6.989   1.972   0.000  0.00  0.00    +0.000 C 
ATOM     31  N   UNL     1       7.714   1.566   0.000  0.00  0.00    +0.000 NA
ATOM     32  O   UNL     1       6.989   2.741   0.000  0.00  0.00    +0.000 OA
BRANCH  31  33
ATOM     33  C   UNL     1       8.425   1.972   0.000  0.00  0.00    +0.000 C 
BRANCH  33  34
ATOM     34  C   UNL     1       8.425   2.741   0.000  0.00  0.00    +0.000 C 
BRANCH  34  35
ATOM     35  C   UNL     1       7.714   3.147   0.000  0.00  0.00    +0.000 C 
BRANCH  35  36
ATOM     36  S   UNL     1       7.714   3.983   0.000  0.00  0.00    +0.000 S 
ATOM     37  C   UNL     1       6.811   4.490   0.000  0.00  0.00    +0.000 C 
ATOM     38  C   UNL     1       8.604   4.524   0.000  0.00  0.00    +0.000 C 
ENDBRANCH  35  36
ENDBRANCH  34  35
ENDBRANCH  33  34
ENDBRANCH  31  33
ENDBRANCH  28  30
ENDBRANCH  23  25
ENDBRANCH  19  20
ENDBRANCH  18  19
ENDBRANCH  16  18
ENDBRANCH  14  15
BRANCH  14  39
ATOM     39  C   UNL     1       0.131   0.740   0.000  0.00  0.00    +0.000 C 
ATOM     40  C   UNL     1       0.855   0.329   0.000  0.00  0.00    +0.000 C 
ATOM     41  O   UNL     1      -0.551   0.329   0.000  0.00  0.00    +0.000 OA
ENDBRANCH  14  39
ENDBRANCH  12  14
ENDBRANCH   9  11
ENDBRANCH   7   9
ENDBRANCH   5   7
ENDBRANCH   3   5
ENDBRANCH   1   2
BRANCH   1  42
ATOM     42  N   UNL     1      -5.476   0.740   0.000  0.00  0.00    +0.000 NA
ATOM     43  C   UNL     1      -5.476   1.566   0.000  0.00  0.00    +0.000 C 
ATOM     44  O   UNL     1      -4.785   1.972   0.000  0.00  0.00    +0.000 OA
BRANCH  43  45
ATOM     45  C   UNL     1      -6.173   1.972   0.000  0.00  0.00    +0.000 A 
ATOM     46  N   UNL     1      -6.173   2.774   0.000  0.00  0.00    +0.000 NA
ATOM     47  C   UNL     1      -6.888   1.566   0.000  0.00  0.00    +0.000 A 
ATOM     48  C   UNL     1      -6.888   3.176   0.000  0.00  0.00    +0.000 A 
ATOM     49  C   UNL     1      -7.579   1.972   0.000  0.00  0.00    +0.000 A 
ATOM     50  C   UNL     1      -6.888   0.740   0.000  0.00  0.00    +0.000 C 
ATOM     51  N   UNL     1      -7.613   2.774   0.000  0.00  0.00    +0.000 NA
ATOM     52  N   UNL     1      -8.314   1.566   0.000  0.00  0.00    +0.000 NA
BRANCH  48  53
ATOM     53  C   UNL     1      -6.888   4.007   0.000  0.00  0.00    +0.000 C 
BRANCH  53  54
ATOM     54  C   UNL     1      -7.579   4.423   0.000  0.00  0.00    +0.000 C 
BRANCH  54  55
ATOM     55  C   UNL     1      -7.579   5.249   0.000  0.00  0.00    +0.000 C 
ATOM     56  N   UNL     1      -6.888   5.631   0.000  0.00  0.00    +0.000 NA
ATOM     57  O   UNL     1      -8.314   5.631   0.000  0.00  0.00    +0.000 OA
ENDBRANCH  54  55
ENDBRANCH  53  54
BRANCH  53  58
ATOM     58  N   UNL     1      -6.173   4.423   0.000  0.00  0.00    +0.000 NA
BRANCH  58  59
ATOM     59  C   UNL     1      -5.443   4.007   0.000  0.00  0.00    +0.000 C 
BRANCH  59  60
ATOM     60  C   UNL     1      -4.785   4.423   0.000  0.00  0.00    +0.000 C 
ATOM     61  N   UNL     1      -4.785   5.249   0.000  0.00  0.00    +0.000 NA
BRANCH  60  62
ATOM     62  C   UNL     1      -4.070   4.007   0.000  0.00  0.00    +0.000 C 
ATOM     63  N   UNL     1      -3.384   4.423   0.000  0.00  0.00    +0.000 NA
ATOM     64  O   UNL     1      -4.070   3.176   0.000  0.00  0.00    +0.000 OA
ENDBRANCH  60  62
ENDBRANCH  59  60
ENDBRANCH  58  59
ENDBRANCH  53  58
ENDBRANCH  48  53
ENDBRANCH  43  45
ENDBRANCH   1  42
BRANCH   1  65
ATOM     65  C   UNL     1      -4.785  -0.498   0.000  0.00  0.00    +0.000 C 
BRANCH  65  66
ATOM     66  C   UNL     1      -4.070  -0.913   0.000  0.00  0.00    +0.000 A 
ATOM     67  C   UNL     1      -4.070  -1.706   0.000  0.00  0.00    +0.000 A 
ATOM     68  N   UNL     1      -3.316  -0.638   0.000  0.00  0.00    +0.000 NA
ATOM     69  N   UNL     1      -3.316  -1.938   0.000  0.00  0.00    +0.000 NA
ATOM     70  C   UNL     1      -2.828  -1.290   0.000  0.00  0.00    +0.000 A 
ENDBRANCH  65  66
BRANCH  65  71
ATOM     71  O   UNL     1      -5.476  -0.913   0.000  0.00  0.00    +0.000 OA
BRANCH  71  72
ATOM     72  C   UNL     1      -5.443  -1.706   0.000  0.00  0.00    +0.000 C 
ATOM     73  C   UNL     1      -5.892  -2.494   0.000  0.00  0.00    +0.000 C 
ATOM     74  O   UNL     1      -6.298  -2.011   0.000  0.00  0.00    +0.000 OA
ATOM     75  C   UNL     1      -6.719  -2.325   0.000  0.00  0.00    +0.000 C 
ATOM     76  C   UNL     1      -7.101  -1.846   0.000  0.00  0.00    +0.000 C 
ATOM     77  C   UNL     1      -7.502  -2.571   0.000  0.00  0.00    +0.000 C 
ATOM     78  O   UNL     1      -6.719  -1.363   0.000  0.00  0.00    +0.000 OA
ATOM     79  O   UNL     1      -7.502  -3.388   0.000  0.00  0.00    +0.000 OA
BRANCH  76  80
ATOM     80  C   UNL     1      -7.893  -2.011   0.000  0.00  0.00    +0.000 C 
ATOM     81  O   UNL     1      -8.604  -1.740   0.000  0.00  0.00    +0.000 OA
ENDBRANCH  76  80
BRANCH  73  82
ATOM     82  O   UNL     1      -5.138  -2.291   0.000  0.00  0.00    +0.000 OA
BRANCH  82  83
ATOM     83  C   UNL     1      -5.138  -3.151   0.000  0.00  0.00    +0.000 C 
ATOM     84  C   UNL     1      -4.732  -3.867   0.000  0.00  0.00    +0.000 C 
ATOM     85  O   UNL     1      -4.336  -3.388   0.000  0.00  0.00    +0.000 OA
ATOM     86  C   UNL     1      -3.930  -3.703   0.000  0.00  0.00    +0.000 C 
ATOM     87  O   UNL     1      -4.732  -4.674   0.000  0.00  0.00    +0.000 OA
ATOM     88  C   UNL     1      -3.548  -3.219   0.000  0.00  0.00    +0.000 C 
ATOM     89  C   UNL     1      -3.132  -3.901   0.000  0.00  0.00    +0.000 C 
ATOM     90  O   UNL     1      -2.349  -3.814   0.000  0.00  0.00    +0.000 OA
BRANCH  88  91
ATOM     91  C   UNL     1      -2.760  -3.471   0.000  0.00  0.00    +0.000 C 
ATOM     92  O   UNL     1      -1.967  -3.253   0.000  0.00  0.00    +0.000 OA
ENDBRANCH  88  91
BRANCH  86  93
ATOM     93  O   UNL     1      -3.582  -4.423   0.000  0.00  0.00    +0.000 OA
BRANCH  93  94
ATOM     94  C   UNL     1      -3.582  -5.215   0.000  0.00  0.00    +0.000 C 
ATOM     95  N   UNL     1      -2.857  -5.631   0.000  0.00  0.00    +0.000 NA
ATOM     96  O   UNL     1      -4.278  -5.631   0.000  0.00  0.00    +0.000 OA
ENDBRANCH  93  94
ENDBRANCH  86  93
ENDBRANCH  82  83
ENDBRANCH  73  82
ENDBRANCH  71  72
ENDBRANCH  65  71
ENDBRANCH   1  65
TORSDOF 36
