REMARK  Name = 
REMARK  1 active torsions:
REMARK  status: ('A' for Active; 'I' for Inactive)
REMARK    1  A    between atoms: CA_1  and  C_4
REMARK                            x       y       z     vdW  Elec       q    Type
REMARK                         _______ _______ _______ _____ _____    ______ ____
ROOT
ATOM      1  CA  LYS A   1       0.000   0.000   0.000  0.00  0.00    +0.000 A 
ATOM      2  CB  LYS A   1       0.000  -0.825   0.000  0.00  0.00    +0.000 A 
ATOM      3  N   LYS A   1      -0.714   0.412   0.000  0.00  0.00    +0.000 NA
ATOM      4  CG  LYS A   1      -0.714  -1.237   0.000  0.00  0.00    +0.000 A 
ATOM      5  CE  LYS A   1      -1.429   0.000   0.000  0.00  0.00    +0.000 A 
ATOM      6  CD  LYS A   1      -1.429  -0.825   0.000  0.00  0.00    +0.000 A 
ENDROOT
BRANCH   1   7
ATOM      7  C   LYS A   1       0.714   0.412   0.000  0.00  0.00    +0.000 C 
ATOM      8  O   LYS A   1       0.714   1.238   0.000  0.00  0.00    +0.000 OA
ATOM      9  OXT LYS A   1       1.429   0.000   0.000  0.00  0.00    +0.000 OA
ENDBRANCH   1   7
TORSDOF 1
