REMARK  Name = 
REMARK  1 active torsions:
REMARK  status: ('A' for Active; 'I' for Inactive)
REMARK    1  A    between atoms: C_14  and  C_16
REMARK                            x       y       z     vdW  Elec       q    Type
REMARK                         _______ _______ _______ _____ _____    ______ ____
ROOT
ATOM      1  O   UNL     1      -1.729   0.567   0.000  0.00  0.00    +0.000 OA
ATOM      2  C   UNL     1      -1.474  -0.217   0.000  0.00  0.00    +0.000 A 
ATOM      3  C   UNL     1      -2.026  -0.830   0.000  0.00  0.00    +0.000 A 
ATOM      4  C   UNL     1      -1.771  -1.615   0.000  0.00  0.00    +0.000 A 
ATOM      5  N   UNL     1      -0.964  -1.786   0.000  0.00  0.00    +0.000 NA
ATOM      6  C   UNL     1      -0.412  -1.173   0.000  0.00  0.00    +0.000 A 
ATOM      7  N   UNL     1       0.413  -1.173   0.000  0.00  0.00    +0.000 N 
ATOM      8  C   UNL     1       0.965  -1.786   0.000  0.00  0.00    +0.000 A 
ATOM      9  N   UNL     1       0.710  -2.571   0.000  0.00  0.00    +0.000 NA
ATOM     10  N   UNL     1       1.772  -1.615   0.000  0.00  0.00    +0.000 NA
ATOM     11  C   UNL     1       2.026  -0.830   0.000  0.00  0.00    +0.000 A 
ATOM     12  C   UNL     1       1.474  -0.217   0.000  0.00  0.00    +0.000 A 
ATOM     13  C   UNL     1       0.667  -0.389   0.000  0.00  0.00    +0.000 A 
ATOM     14  C   UNL     1       0.000   0.096   0.000  0.00  0.00    +0.000 A 
ATOM     15  C   UNL     1      -0.667  -0.389   0.000  0.00  0.00    +0.000 A 
ENDROOT
BRANCH  14  16
ATOM     16  C   UNL     1       0.000   0.921   0.000  0.00  0.00    +0.000 A 
ATOM     17  C   UNL     1      -0.714   1.334   0.000  0.00  0.00    +0.000 A 
ATOM     18  C   UNL     1      -0.714   2.159   0.000  0.00  0.00    +0.000 A 
ATOM     19  N   UNL     1       0.000   2.571   0.000  0.00  0.00    +0.000 NA
ATOM     20  C   UNL     1       0.715   2.159   0.000  0.00  0.00    +0.000 A 
ATOM     21  N   UNL     1       0.715   1.334   0.000  0.00  0.00    +0.000 NA
ATOM     22  N   UNL     1       1.429   2.571   0.000  0.00  0.00    +0.000 NA
ENDBRANCH  14  16
TORSDOF 1
