REMARK  Name = 
REMARK  1 active torsions:
REMARK  status: ('A' for Active; 'I' for Inactive)
REMARK    1  A    between atoms: C_9  and  C_12
REMARK                            x       y       z     vdW  Elec       q    Type
REMARK                         _______ _______ _______ _____ _____    ______ ____
ROOT
ATOM      1  C   UNL     1       2.449   0.938   0.000  0.00  0.00    +0.000 C 
ATOM      2  C   UNL     1       2.884   0.236   0.000  0.00  0.00    +0.000 C 
ATOM      3  C   UNL     1       0.365   1.587   0.000  0.00  0.00    +0.000 A 
ATOM      4  C   UNL     1       1.669  -0.516   0.000  0.00  0.00    +0.000 C 
ATOM      5  C   UNL     1       1.235   0.185   0.000  0.00  0.00    +0.000 A 
ATOM      6  C   UNL     1       1.625   0.912   0.000  0.00  0.00    +0.000 A 
ATOM      7  C   UNL     1      -0.024   0.860   0.000  0.00  0.00    +0.000 A 
ATOM      8  C   UNL     1       0.410   0.159   0.000  0.00  0.00    +0.000 A 
ATOM      9  C   UNL     1      -0.886  -0.159   0.000  0.00  0.00    +0.000 A 
ATOM     10  N   UNL     1       1.190   1.613   0.000  0.00  0.00    +0.000 NA
ATOM     11  N   UNL     1      -0.826   0.664   0.000  0.00  0.00    +0.000 NA
ATOM     12  N   UNL     1      -0.122  -0.471   0.000  0.00  0.00    +0.000 NA
ATOM     13  O   UNL     1       2.494  -0.491   0.000  0.00  0.00    +0.000 OA
ENDROOT
BRANCH   9  16
ATOM     14  C   UNL     1      -2.351  -0.282   0.000  0.00  0.00    +0.000 A 
ATOM     15  C   UNL     1      -2.884  -0.912   0.000  0.00  0.00    +0.000 A 
ATOM     16  C   UNL     1      -1.587  -0.594   0.000  0.00  0.00    +0.000 A 
ATOM     17  N   UNL     1      -1.648  -1.416   0.000  0.00  0.00    +0.000 NA
ATOM     18  O   UNL     1      -2.449  -1.613   0.000  0.00  0.00    +0.000 OA
ENDBRANCH   9  16
TORSDOF 1
