REMARK  Name = 
REMARK  8 active torsions:
REMARK  status: ('A' for Active; 'I' for Inactive)
REMARK    1  A    between atoms: C_7  and  C_8
REMARK    2  A    between atoms: C_8  and  C_9
REMARK    3  A    between atoms: C_9  and  O_10
REMARK    4  A    between atoms: O_10  and  C_11
REMARK    5  A    between atoms: C_11  and  C_12
REMARK    6  A    between atoms: C_12  and  N_13
REMARK    7  A    between atoms: N_13  and  C_14
REMARK    8  A    between atoms: N_13  and  C_16
REMARK                            x       y       z     vdW  Elec       q    Type
REMARK                         _______ _______ _______ _____ _____    ______ ____
ROOT
ATOM      1  C   UNL     1      -1.020   0.647   0.000  0.00  0.00    +0.000 C 
ENDROOT
BRANCH   1   8
ATOM      2  C   UNL     1      -3.165   0.236   0.000  0.00  0.00    +0.000 C 
ATOM      3  C   UNL     1      -2.455   0.656   0.000  0.00  0.00    +0.000 C 
ATOM      4  C   UNL     1      -2.455  -0.128   0.000  0.00  0.00    +0.000 C 
ATOM      5  C   UNL     1      -3.165  -0.599   0.000  0.00  0.00    +0.000 C 
ATOM      6  C   UNL     1      -2.455  -1.004   0.000  0.00  0.00    +0.000 C 
ATOM      7  C   UNL     1      -1.735  -0.599   0.000  0.00  0.00    +0.000 C 
ATOM      8  C   UNL     1      -1.735   0.236   0.000  0.00  0.00    +0.000 C 
ATOM      9  C   UNL     1      -3.452   1.007   0.000  0.00  0.00    +0.000 C 
ATOM     10  C   UNL     1      -3.979   0.087   0.000  0.00  0.00    +0.000 C 
ENDBRANCH   1   8
BRANCH   1  11
ATOM     11  C   UNL     1      -0.305   0.234   0.000  0.00  0.00    +0.000 C 
BRANCH  11  12
ATOM     12  O   UNL     1       0.410   0.645   0.000  0.00  0.00    +0.000 OA
BRANCH  12  13
ATOM     13  C   UNL     1       1.119   0.232   0.000  0.00  0.00    +0.000 C 
BRANCH  13  14
ATOM     14  C   UNL     1       1.835   0.643   0.000  0.00  0.00    +0.000 C 
BRANCH  14  15
ATOM     15  N   UNL     1       2.549   0.230   0.000  0.00  0.00    +0.000 NA
BRANCH  15  16
ATOM     16  C   UNL     1       2.549  -0.594   0.000  0.00  0.00    +0.000 C 
ATOM     17  C   UNL     1       3.262  -1.007   0.000  0.00  0.00    +0.000 C 
ENDBRANCH  15  16
BRANCH  15  18
ATOM     18  C   UNL     1       3.264   0.641   0.000  0.00  0.00    +0.000 C 
ATOM     19  C   UNL     1       3.979   0.228   0.000  0.00  0.00    +0.000 C 
ENDBRANCH  15  18
ENDBRANCH  14  15
ENDBRANCH  13  14
ENDBRANCH  12  13
ENDBRANCH  11  12
ENDBRANCH   1  11
TORSDOF 8
