REMARK  Name = 
REMARK  0 active torsions:
REMARK  status: ('A' for Active; 'I' for Inactive)
REMARK                            x       y       z     vdW  Elec       q    Type
REMARK                         _______ _______ _______ _____ _____    ______ ____
ROOT
ATOM      1  C   UNL     1       1.848  -0.424   0.000  0.00  0.00    +0.000 A 
ATOM      2  O   UNL     1       2.572  -0.820   0.000  0.00  0.00    +0.000 OA
ATOM      3  N   UNL     1       1.144  -0.853   0.000  0.00  0.00    +0.000 NA
ATOM      4  C   UNL     1       1.829   0.401   0.000  0.00  0.00    +0.000 A 
ATOM      5  C   UNL     1       1.105   0.796   0.000  0.00  0.00    +0.000 A 
ATOM      6  C   UNL     1       0.400   0.367   0.000  0.00  0.00    +0.000 A 
ATOM      7  C   UNL     1       0.420  -0.457   0.000  0.00  0.00    +0.000 A 
ATOM      8  C   UNL     1      -0.024   0.043   0.000  0.00  0.00    +0.000 C 
ATOM      9  C   UNL     1      -0.974   0.182   0.000  0.00  0.00    +0.000 C 
ATOM     10  C   UNL     1      -0.961  -0.790   0.000  0.00  0.00    +0.000 C 
ATOM     11  C   UNL     1      -2.572   1.585   0.000  0.00  0.00    +0.000 C 
ATOM     12  C   UNL     1      -1.809   1.628   0.000  0.00  0.00    +0.000 C 
ATOM     13  C   UNL     1      -1.269   0.995   0.000  0.00  0.00    +0.000 C 
ATOM     14  C   UNL     1      -0.510   0.490   0.000  0.00  0.00    +0.000 C 
ATOM     15  N   UNL     1      -0.080   0.980   0.000  0.00  0.00    +0.000 NA
ATOM     16  C   UNL     1      -0.507  -0.446   0.000  0.00  0.00    +0.000 C 
ATOM     17  C   UNL     1      -0.095  -1.104   0.000  0.00  0.00    +0.000 C 
ATOM     18  C   UNL     1       0.486  -1.628   0.000  0.00  0.00    +0.000 C 
ENDROOT
TORSDOF 0
