REMARK  Name = 
REMARK  4 active torsions:
REMARK  status: ('A' for Active; 'I' for Inactive)
REMARK    1  A    between atoms: C_1  and  C_5
REMARK    2  A    between atoms: C_2  and  C_5
REMARK    3  A    between atoms: C_3  and  C_5
REMARK    4  A    between atoms: C_4  and  C_5
REMARK                            x       y       z     vdW  Elec       q    Type
REMARK                         _______ _______ _______ _____ _____    ______ ____
ROOT
ATOM      1  C   UNL     1      -0.111   0.412   0.000  0.00  0.00    +0.000 C 
ENDROOT
BRANCH   1   2
ATOM      2  C   UNL     1      -0.523   1.127   0.000  0.00  0.00    +0.000 C 
ATOM      3  O   UNL     1      -1.348   1.127   0.000  0.00  0.00    +0.000 OA
ENDBRANCH   1   2
BRANCH   1   4
ATOM      4  C   UNL     1       0.302  -0.302   0.000  0.00  0.00    +0.000 C 
ATOM      5  O   UNL     1       1.127  -0.302   0.000  0.00  0.00    +0.000 OA
ENDBRANCH   1   4
BRANCH   1   6
ATOM      6  C   UNL     1      -0.825   0.000   0.000  0.00  0.00    +0.000 C 
ATOM      7  O   UNL     1      -1.540   0.412   0.000  0.00  0.00    +0.000 OA
ENDBRANCH   1   6
BRANCH   1   8
ATOM      8  C   UNL     1       0.604   0.825   0.000  0.00  0.00    +0.000 C 
ATOM      9  O   UNL     1       1.318   0.412   0.000  0.00  0.00    +0.000 OA
ENDBRANCH   1   8
TORSDOF 4
