REMARK  Name = 
REMARK  26 active torsions:
REMARK  status: ('A' for Active; 'I' for Inactive)
REMARK    1  A    between atoms: C_2  and  C_5
REMARK    2  A    between atoms: C_5  and  N_6
REMARK    3  A    between atoms: N_9  and  C_26
REMARK    4  A    between atoms: N_12  and  C_22
REMARK    5  A    between atoms: N_15  and  C_18
REMARK    6  A    between atoms: C_18  and  C_19
REMARK    7  A    between atoms: C_22  and  C_23
REMARK    8  A    between atoms: C_26  and  C_27
REMARK    9  A    between atoms: N_29  and  CA_30
REMARK   10  A    between atoms: CA_30  and  C_31
REMARK   11  A    between atoms: CA_30  and  CB_94
REMARK   12  A    between atoms: N_33  and  CA_34
REMARK   13  A    between atoms: CA_39  and  C_40
REMARK   14  A    between atoms: N_41  and  CA_42
REMARK   15  A    between atoms: CA_42  and  CB_43
REMARK   16  A    between atoms: CA_42  and  C_46
REMARK   17  A    between atoms: CA_51  and  CB_90
REMARK   18  A    between atoms: CA_54  and  CB_84
REMARK   19  A    between atoms: CA_57  and  CB_73
REMARK   20  A    between atoms: CA_60  and  CB_64
REMARK   21  A    between atoms: CB_64  and  CG_65
REMARK   22  A    between atoms: CB_73  and  CG_74
REMARK   23  A    between atoms: CB_84  and  CG_85
REMARK   24  A    between atoms: CG_85  and  CD_86
REMARK   25  A    between atoms: CD_86  and  CE_87
REMARK   26  A    between atoms: CB_94  and  CG_95
REMARK                            x       y       z     vdW  Elec       q    Type
REMARK                         _______ _______ _______ _____ _____    ______ ____
ROOT
ATOM      1 GA   UNL     1       4.823   3.077   0.000  0.00  0.00    +0.000 Ga
ENDROOT
TORSDOF 0
REMARK  Name = 
REMARK  26 active torsions:
REMARK  status: ('A' for Active; 'I' for Inactive)
REMARK    1  A    between atoms: C_2  and  C_5
REMARK    2  A    between atoms: C_5  and  N_6
REMARK    3  A    between atoms: N_9  and  C_26
REMARK    4  A    between atoms: N_12  and  C_22
REMARK    5  A    between atoms: N_15  and  C_18
REMARK    6  A    between atoms: C_18  and  C_19
REMARK    7  A    between atoms: C_22  and  C_23
REMARK    8  A    between atoms: C_26  and  C_27
REMARK    9  A    between atoms: N_29  and  CA_30
REMARK   10  A    between atoms: CA_30  and  C_31
REMARK   11  A    between atoms: CA_30  and  CB_94
REMARK   12  A    between atoms: N_33  and  CA_34
REMARK   13  A    between atoms: CA_39  and  C_40
REMARK   14  A    between atoms: N_41  and  CA_42
REMARK   15  A    between atoms: CA_42  and  CB_43
REMARK   16  A    between atoms: CA_42  and  C_46
REMARK   17  A    between atoms: CA_51  and  CB_90
REMARK   18  A    between atoms: CA_54  and  CB_84
REMARK   19  A    between atoms: CA_57  and  CB_73
REMARK   20  A    between atoms: CA_60  and  CB_64
REMARK   21  A    between atoms: CB_64  and  CG_65
REMARK   22  A    between atoms: CB_73  and  CG_74
REMARK   23  A    between atoms: CB_84  and  CG_85
REMARK   24  A    between atoms: CG_85  and  CD_86
REMARK   25  A    between atoms: CD_86  and  CE_87
REMARK   26  A    between atoms: CB_94  and  CG_95
REMARK                            x       y       z     vdW  Elec       q    Type
REMARK                         _______ _______ _______ _____ _____    ______ ____
ROOT
ATOM      1  CA  CYS A   2      -0.108  -1.823   0.000  0.00  0.00    +0.000 C 
ATOM      2  CB  CYS A   2      -0.108  -2.648   0.000  0.00  0.00    +0.000 C 
ATOM      3  SG  CYS A   2       0.606  -3.060   0.000  0.00  0.00    +0.000 S 
ATOM      4  SG  CYS A   7       0.606  -3.889   0.000  0.00  0.00    +0.000 S 
ATOM      5  CB  CYS A   7       1.321  -4.302   0.000  0.00  0.00    +0.000 C 
ATOM      6  CA  CYS A   7       1.321  -5.127   0.000  0.00  0.00    +0.000 C 
ATOM      7  N   CYS A   7       0.606  -5.539   0.000  0.00  0.00    +0.000 NA
ATOM      8  C   THR A   6      -0.108  -5.127   0.000  0.00  0.00    +0.000 C 
ATOM      9  CA  THR A   6      -0.828  -5.539   0.000  0.00  0.00    +0.000 C 
ATOM     10  N   THR A   6      -1.542  -5.127   0.000  0.00  0.00    +0.000 NA
ATOM     11  C   LYS A   5      -2.257  -5.539   0.000  0.00  0.00    +0.000 C 
ATOM     12  CA  LYS A   5      -2.971  -5.127   0.000  0.00  0.00    +0.000 C 
ATOM     13  N   LYS A   5      -2.971  -4.302   0.000  0.00  0.00    +0.000 NA
ATOM     14  C   TRP A   4      -3.686  -3.889   0.000  0.00  0.00    +0.000 C 
ATOM     15  CA  TRP A   4      -3.686  -3.060   0.000  0.00  0.00    +0.000 C 
ATOM     16  N   TRP A   4      -2.971  -2.648   0.000  0.00  0.00    +0.000 NA
ATOM     17  C   TYR A   3      -2.971  -1.823   0.000  0.00  0.00    +0.000 C 
ATOM     18  CA  TYR A   3      -2.257  -1.411   0.000  0.00  0.00    +0.000 C 
ATOM     19  N   TYR A   3      -1.542  -1.823   0.000  0.00  0.00    +0.000 NA
ATOM     20  C   CYS A   2      -0.828  -1.411   0.000  0.00  0.00    +0.000 C 
ATOM     21  O   CYS A   2      -0.828  -0.586   0.000  0.00  0.00    +0.000 OA
ATOM     22  O   TYR A   3      -3.686  -1.411   0.000  0.00  0.00    +0.000 OA
ATOM     23  O   TRP A   4      -4.400  -4.302   0.000  0.00  0.00    +0.000 OA
ATOM     24  O   LYS A   5      -2.257  -6.364   0.000  0.00  0.00    +0.000 OA
ATOM     25  O   THR A   6      -0.108  -4.302   0.000  0.00  0.00    +0.000 OA
ENDROOT
BRANCH   9  26
ATOM     26  CB  THR A   6      -0.828  -6.364   0.000  0.00  0.00    +0.000 C 
ATOM     27  OG1 THR A   6      -1.542  -6.776   0.000  0.00  0.00    +0.000 OA
ATOM     28  CG2 THR A   6      -0.108  -6.776   0.000  0.00  0.00    +0.000 C 
ENDBRANCH   9  26
BRANCH   1  31
ATOM     29  C   PHE A   1       0.606  -0.586   0.000  0.00  0.00    +0.000 C 
ATOM     30  O   PHE A   1      -0.108  -0.173   0.000  0.00  0.00    +0.000 OA
ATOM     31  N   CYS A   2       0.606  -1.411   0.000  0.00  0.00    +0.000 NA
BRANCH  29  32
ATOM     32  CA  PHE A   1       1.321  -0.173   0.000  0.00  0.00    +0.000 C 
BRANCH  32  35
ATOM     33  C   UNK A   0       2.248   1.439   0.000  0.00  0.00    +0.000 C 
ATOM     34  O   UNK A   0       2.962   1.027   0.000  0.00  0.00    +0.000 OA
ATOM     35  N   PHE A   1       1.321   0.902   0.000  0.00  0.00    +0.000 NA
BRANCH  33  36
ATOM     36  C   UNK A   0       2.248   2.264   0.000  0.00  0.00    +0.000 C 
BRANCH  36  40
ATOM     37  N   UNK A   0       4.094   4.633   0.000  0.00  0.00    +0.000 NA
ATOM     38  C   UNK A   0       3.682   3.918   0.000  0.00  0.00    +0.000 C 
ATOM     39  C   UNK A   0       2.962   3.501   0.000  0.00  0.00    +0.000 C 
ATOM     40  N   UNK A   0       2.962   2.676   0.000  0.00  0.00    +0.000 NA
ATOM     41  C   UNK A   0       3.682   2.264   0.000  0.00  0.00    +0.000 C 
ATOM     42  C   UNK A   0       4.094   1.549   0.000  0.00  0.00    +0.000 C 
ATOM     43  N   UNK A   0       4.919   1.549   0.000  0.00  0.00    +0.000 NA
ATOM     44  C   UNK A   0       5.331   2.264   0.000  0.00  0.00    +0.000 C 
ATOM     45  C   UNK A   0       6.046   2.676   0.000  0.00  0.00    +0.000 C 
ATOM     46  N   UNK A   0       6.046   3.501   0.000  0.00  0.00    +0.000 NA
ATOM     47  C   UNK A   0       5.331   3.918   0.000  0.00  0.00    +0.000 C 
ATOM     48  C   UNK A   0       4.919   4.633   0.000  0.00  0.00    +0.000 C 
BRANCH  43  49
ATOM     49  C   UNK A   0       5.331   0.835   0.000  0.00  0.00    +0.000 C 
BRANCH  49  50
ATOM     50  C   UNK A   0       6.156   0.835   0.000  0.00  0.00    +0.000 C 
ATOM     51  O   UNK A   0       6.569   1.549   0.000  0.00  0.00    +0.000 OA
ATOM     52  O   UNK A   0       6.569   0.120   0.000  0.00  0.00    +0.000 OA
ENDBRANCH  49  50
ENDBRANCH  43  49
BRANCH  46  53
ATOM     53  C   UNK A   0       6.760   3.918   0.000  0.00  0.00    +0.000 C 
BRANCH  53  54
ATOM     54  C   UNK A   0       6.760   4.743   0.000  0.00  0.00    +0.000 C 
ATOM     55  O   UNK A   0       6.046   5.155   0.000  0.00  0.00    +0.000 OA
ATOM     56  O   UNK A   0       7.480   5.155   0.000  0.00  0.00    +0.000 OA
ENDBRANCH  53  54
ENDBRANCH  46  53
BRANCH  37  57
ATOM     57  C   UNK A   0       3.682   5.347   0.000  0.00  0.00    +0.000 C 
BRANCH  57  58
ATOM     58  C   UNK A   0       4.094   6.062   0.000  0.00  0.00    +0.000 C 
ATOM     59  O   UNK A   0       4.919   6.062   0.000  0.00  0.00    +0.000 OA
ATOM     60  O   UNK A   0       3.682   6.776   0.000  0.00  0.00    +0.000 OA
ENDBRANCH  57  58
ENDBRANCH  37  57
ENDBRANCH  36  40
ENDBRANCH  33  36
ENDBRANCH  32  35
BRANCH  32  61
ATOM     61  CB  PHE A   1       2.466  -0.831   0.000  0.00  0.00    +0.000 C 
BRANCH  61  62
ATOM     62  CG  PHE A   1       3.180  -0.419   0.000  0.00  0.00    +0.000 A 
ATOM     63  CD1 PHE A   1       3.180   0.406   0.000  0.00  0.00    +0.000 A 
ATOM     64  CE1 PHE A   1       3.895   0.818   0.000  0.00  0.00    +0.000 A 
ATOM     65  CZ  PHE A   1       4.609   0.406   0.000  0.00  0.00    +0.000 A 
ATOM     66  CE2 PHE A   1       4.609  -0.419   0.000  0.00  0.00    +0.000 A 
ATOM     67  CD2 PHE A   1       3.895  -0.831   0.000  0.00  0.00    +0.000 A 
ENDBRANCH  61  62
ENDBRANCH  32  61
ENDBRANCH  29  32
ENDBRANCH   1  31
BRANCH   6  68
ATOM     68  C   CYS A   7       2.035  -5.539   0.000  0.00  0.00    +0.000 C 
ATOM     69  N   THR A   8       2.749  -5.127   0.000  0.00  0.00    +0.000 NA
ATOM     70  O   CYS A   7       2.035  -6.364   0.000  0.00  0.00    +0.000 OA
BRANCH  69  71
ATOM     71  CA  THR A   8       2.749  -4.302   0.000  0.00  0.00    +0.000 C 
BRANCH  71  72
ATOM     72  CB  THR A   8       3.464  -3.889   0.000  0.00  0.00    +0.000 C 
ATOM     73  OG1 THR A   8       3.464  -3.060   0.000  0.00  0.00    +0.000 OA
ATOM     74  CG2 THR A   8       4.179  -4.302   0.000  0.00  0.00    +0.000 C 
ENDBRANCH  71  72
BRANCH  71  75
ATOM     75  C   THR A   8       2.035  -3.889   0.000  0.00  0.00    +0.000 C 
ATOM     76  O   THR A   8       2.035  -3.060   0.000  0.00  0.00    +0.000 OA
ENDBRANCH  71  75
ENDBRANCH  69  71
ENDBRANCH   6  68
BRANCH  18  77
ATOM     77  CB  TYR A   3      -2.257  -0.586   0.000  0.00  0.00    +0.000 C 
BRANCH  77  78
ATOM     78  CG  TYR A   3      -2.971  -0.173   0.000  0.00  0.00    +0.000 A 
ATOM     79  CD1 TYR A   3      -2.971   0.656   0.000  0.00  0.00    +0.000 A 
ATOM     80  CE1 TYR A   3      -3.686   1.069   0.000  0.00  0.00    +0.000 A 
ATOM     81  CZ  TYR A   3      -4.400   0.656   0.000  0.00  0.00    +0.000 A 
ATOM     82  CE2 TYR A   3      -4.400  -0.173   0.000  0.00  0.00    +0.000 A 
ATOM     83  CD2 TYR A   3      -3.686  -0.586   0.000  0.00  0.00    +0.000 A 
ATOM     84  OH  TYR A   3      -5.115   1.069   0.000  0.00  0.00    +0.000 OA
ENDBRANCH  77  78
ENDBRANCH  18  77
BRANCH  15  85
ATOM     85  CB  TRP A   4      -4.400  -2.648   0.000  0.00  0.00    +0.000 C 
BRANCH  85  86
ATOM     86  CG  TRP A   4      -5.115  -3.060   0.000  0.00  0.00    +0.000 A 
ATOM     87  CD2 TRP A   4      -5.869  -2.725   0.000  0.00  0.00    +0.000 A 
ATOM     88  CE2 TRP A   4      -6.424  -3.340   0.000  0.00  0.00    +0.000 A 
ATOM     89  NE1 TRP A   4      -6.012  -4.054   0.000  0.00  0.00    +0.000 NA
ATOM     90  CD1 TRP A   4      -5.202  -3.884   0.000  0.00  0.00    +0.000 A 
ATOM     91  CZ2 TRP A   4      -7.228  -3.170   0.000  0.00  0.00    +0.000 A 
ATOM     92  CH2 TRP A   4      -7.480  -2.381   0.000  0.00  0.00    +0.000 A 
ATOM     93  CZ3 TRP A   4      -6.934  -1.767   0.000  0.00  0.00    +0.000 A 
ATOM     94  CE3 TRP A   4      -6.128  -1.941   0.000  0.00  0.00    +0.000 A 
ENDBRANCH  85  86
ENDBRANCH  15  85
BRANCH  12  95
ATOM     95  CB  LYS A   5      -3.686  -5.539   0.000  0.00  0.00    +0.000 C 
BRANCH  95  96
ATOM     96  CG  LYS A   5      -4.400  -5.127   0.000  0.00  0.00    +0.000 C 
BRANCH  96  97
ATOM     97  CD  LYS A   5      -5.115  -5.539   0.000  0.00  0.00    +0.000 C 
BRANCH  97  98
ATOM     98  CE  LYS A   5      -5.829  -5.127   0.000  0.00  0.00    +0.000 C 
ATOM     99  NZ  LYS A   5      -6.549  -5.539   0.000  0.00  0.00    +0.000 NA
ENDBRANCH  97  98
ENDBRANCH  96  97
ENDBRANCH  95  96
ENDBRANCH  12  95
TORSDOF 26
