REMARK  Name = 
REMARK  4 active torsions:
REMARK  status: ('A' for Active; 'I' for Inactive)
REMARK    1  A    between atoms: N_6  and  CA_8
REMARK    2  A    between atoms: N_7  and  CA_9
REMARK    3  A    between atoms: CA_8  and  C_10
REMARK    4  A    between atoms: CA_9  and  C_11
REMARK                            x       y       z     vdW  Elec       q    Type
REMARK                         _______ _______ _______ _____ _____    ______ ____
ROOT
ATOM      1 ZN   UNL     1       0.000   0.208   0.000  0.00  0.00    +0.000 Zn
ENDROOT
TORSDOF 0
REMARK  Name = 
REMARK  4 active torsions:
REMARK  status: ('A' for Active; 'I' for Inactive)
REMARK    1  A    between atoms: N_6  and  CA_8
REMARK    2  A    between atoms: N_7  and  CA_9
REMARK    3  A    between atoms: CA_8  and  C_10
REMARK    4  A    between atoms: CA_9  and  C_11
REMARK                            x       y       z     vdW  Elec       q    Type
REMARK                         _______ _______ _______ _____ _____    ______ ____
ROOT
ATOM      1  CA  GLY A   1       2.145   0.617   0.000  0.00  0.00    +0.000 C 
ENDROOT
BRANCH   1   4
ATOM      2  O   GLY A   1       0.713   0.617   0.000  0.00  0.00    +0.000 OA
ATOM      3  OXT GLY A   1       1.426  -0.617   0.000  0.00  0.00    +0.000 OA
ATOM      4  C   GLY A   1       1.426   0.208   0.000  0.00  0.00    +0.000 C 
ENDBRANCH   1   4
BRANCH   1   5
ATOM      5  N   GLY A   1       2.858   0.208   0.000  0.00  0.00    +0.000 NA
ATOM      6  H1  GLY A   1       3.300   0.465   0.000  0.00  0.00    +0.000 HD
ATOM      7  H2  GLY A   1       2.858  -0.307   0.000  0.00  0.00    +0.000 HD
ENDBRANCH   1   5
TORSDOF 2
REMARK  Name = 
REMARK  4 active torsions:
REMARK  status: ('A' for Active; 'I' for Inactive)
REMARK    1  A    between atoms: N_6  and  CA_8
REMARK    2  A    between atoms: N_7  and  CA_9
REMARK    3  A    between atoms: CA_8  and  C_10
REMARK    4  A    between atoms: CA_9  and  C_11
REMARK                            x       y       z     vdW  Elec       q    Type
REMARK                         _______ _______ _______ _____ _____    ______ ____
ROOT
ATOM      1  CA  GLY A   1      -2.145   0.617   0.000  0.00  0.00    +0.000 C 
ENDROOT
BRANCH   1   4
ATOM      2  O   GLY A   1      -0.713   0.617   0.000  0.00  0.00    +0.000 OA
ATOM      3  OXT GLY A   1      -1.426  -0.617   0.000  0.00  0.00    +0.000 OA
ATOM      4  C   GLY A   1      -1.426   0.208   0.000  0.00  0.00    +0.000 C 
ENDBRANCH   1   4
BRANCH   1   5
ATOM      5  N   GLY A   1      -2.858   0.208   0.000  0.00  0.00    +0.000 NA
ATOM      6  H1  GLY A   1      -3.300   0.465   0.000  0.00  0.00    +0.000 HD
ATOM      7  H2  GLY A   1      -2.858  -0.307   0.000  0.00  0.00    +0.000 HD
ENDBRANCH   1   5
TORSDOF 2
