REMARK  Name = 
REMARK  9 active torsions:
REMARK  status: ('A' for Active; 'I' for Inactive)
REMARK    1  A    between atoms: CE_3  and  CD_4
REMARK    2  A    between atoms: CD_4  and  CG_5
REMARK    3  A    between atoms: CG_5  and  CB_6
REMARK    4  A    between atoms: CB_6  and  CA_7
REMARK    5  A    between atoms: CA_7  and  C_9
REMARK    6  A    between atoms: C_13  and  C_14
REMARK    7  A    between atoms: C_13  and  P_20
REMARK    8  A    between atoms: C_13  and  P_24
REMARK    9  A    between atoms: C_14  and  N_15
REMARK                            x       y       z     vdW  Elec       q    Type
REMARK                         _______ _______ _______ _____ _____    ______ ____
ROOT
ATOM      1  O   HOH     1       0.000   0.000   0.000  0.00  0.00    +0.000 OA
ENDROOT
TORSDOF 0
REMARK  Name = 
REMARK  9 active torsions:
REMARK  status: ('A' for Active; 'I' for Inactive)
REMARK    1  A    between atoms: CE_3  and  CD_4
REMARK    2  A    between atoms: CD_4  and  CG_5
REMARK    3  A    between atoms: CG_5  and  CB_6
REMARK    4  A    between atoms: CB_6  and  CA_7
REMARK    5  A    between atoms: CA_7  and  C_9
REMARK    6  A    between atoms: C_13  and  C_14
REMARK    7  A    between atoms: C_13  and  P_20
REMARK    8  A    between atoms: C_13  and  P_24
REMARK    9  A    between atoms: C_14  and  N_15
REMARK                            x       y       z     vdW  Elec       q    Type
REMARK                         _______ _______ _______ _____ _____    ______ ____
ROOT
ATOM      1  CB  LYS A   1       5.215  -0.206   0.000  0.00  0.00    +0.000 C 
ENDROOT
BRANCH   1   2
ATOM      2  CA  LYS A   1       5.929   0.206   0.000  0.00  0.00    +0.000 C 
ATOM      3  N   LYS A   1       5.929   1.031   0.000  0.00  0.00    +0.000 NA
BRANCH   2   4
ATOM      4  C   LYS A   1       6.644  -0.206   0.000  0.00  0.00    +0.000 C 
ATOM      5  O   LYS A   1       7.358   0.206   0.000  0.00  0.00    +0.000 OA
ATOM      6  OXT LYS A   1       6.644  -1.031   0.000  0.00  0.00    +0.000 OA
ENDBRANCH   2   4
ENDBRANCH   1   2
BRANCH   1   7
ATOM      7  CG  LYS A   1       4.501   0.206   0.000  0.00  0.00    +0.000 C 
BRANCH   7   8
ATOM      8  CD  LYS A   1       3.786  -0.206   0.000  0.00  0.00    +0.000 C 
BRANCH   8  10
ATOM      9  NZ  LYS A   1       2.357  -0.206   0.000  0.00  0.00    +0.000 NA
ATOM     10  CE  LYS A   1       3.072   0.206   0.000  0.00  0.00    +0.000 C 
ENDBRANCH   8  10
ENDBRANCH   7   8
ENDBRANCH   1   7
TORSDOF 5
REMARK  Name = 
REMARK  9 active torsions:
REMARK  status: ('A' for Active; 'I' for Inactive)
REMARK    1  A    between atoms: CE_3  and  CD_4
REMARK    2  A    between atoms: CD_4  and  CG_5
REMARK    3  A    between atoms: CG_5  and  CB_6
REMARK    4  A    between atoms: CB_6  and  CA_7
REMARK    5  A    between atoms: CA_7  and  C_9
REMARK    6  A    between atoms: C_13  and  C_14
REMARK    7  A    between atoms: C_13  and  P_20
REMARK    8  A    between atoms: C_13  and  P_24
REMARK    9  A    between atoms: C_14  and  N_15
REMARK                            x       y       z     vdW  Elec       q    Type
REMARK                         _______ _______ _______ _____ _____    ______ ____
ROOT
ATOM      1  O   UNL     1      -0.938  -3.698   0.000  0.00  0.00    +0.000 OA
ATOM      2  C   UNL     1      -0.223  -4.110   0.000  0.00  0.00    +0.000 C 
ENDROOT
BRANCH   2   3
ATOM      3  P   UNL     1       0.189  -3.396   0.000  0.00  0.00    +0.000 P 
ATOM      4  O   UNL     1       0.602  -2.681   0.000  0.00  0.00    +0.000 OA
ATOM      5  O   UNL     1       0.904  -3.808   0.000  0.00  0.00    +0.000 OA
ATOM      6  O   UNL     1      -0.525  -2.983   0.000  0.00  0.00    +0.000 OA
ENDBRANCH   2   3
BRANCH   2   7
ATOM      7  P   UNL     1      -0.636  -4.825   0.000  0.00  0.00    +0.000 P 
ATOM      8  O   UNL     1       0.079  -5.237   0.000  0.00  0.00    +0.000 OA
ATOM      9  O   UNL     1      -1.048  -5.539   0.000  0.00  0.00    +0.000 OA
ATOM     10  O   UNL     1      -1.350  -4.412   0.000  0.00  0.00    +0.000 OA
ENDBRANCH   2   7
BRANCH   2  11
ATOM     11  C   UNL     1       0.491  -4.523   0.000  0.00  0.00    +0.000 C 
BRANCH  11  12
ATOM     12  N   UNL     1       0.491  -5.348   0.000  0.00  0.00    +0.000 N 
ATOM     13  C   UNL     1       1.159  -5.833   0.000  0.00  0.00    +0.000 A 
ATOM     14  C   UNL     1       0.904  -6.617   0.000  0.00  0.00    +0.000 A 
ATOM     15  N   UNL     1       0.079  -6.617   0.000  0.00  0.00    +0.000 NA
ATOM     16  C   UNL     1      -0.176  -5.833   0.000  0.00  0.00    +0.000 A 
ENDBRANCH  11  12
ENDBRANCH   2  11
TORSDOF 4
