REMARK  Name = 
REMARK  17 active torsions:
REMARK  status: ('A' for Active; 'I' for Inactive)
REMARK    1  A    between atoms: C_2  and  C_3
REMARK    2  A    between atoms: C_3  and  C_4
REMARK    3  A    between atoms: C_4  and  C_5
REMARK    4  A    between atoms: C_5  and  C_6
REMARK    5  A    between atoms: C_6  and  C_7
REMARK    6  A    between atoms: C_7  and  C_8
REMARK    7  A    between atoms: C_8  and  C_9
REMARK    8  A    between atoms: C_9  and  C_10
REMARK    9  A    between atoms: C_10  and  C_11
REMARK   10  A    between atoms: C_11  and  C_12
REMARK   11  A    between atoms: C_12  and  C_13
REMARK   12  A    between atoms: C_13  and  C_14
REMARK   13  A    between atoms: C_14  and  C_15
REMARK   14  A    between atoms: C_15  and  C_16
REMARK   15  A    between atoms: N_22  and  C_26
REMARK   16  A    between atoms: C_27  and  C_34
REMARK   17  A    between atoms: C_29  and  C_31
REMARK                            x       y       z     vdW  Elec       q    Type
REMARK                         _______ _______ _______ _____ _____    ______ ____
ROOT
ATOM      1  C   UNL     1      15.004 -10.312   0.000  0.00  0.00    +0.000 C 
ATOM      2  O   UNL     1      15.004 -11.137   0.000  0.00  0.00    +0.000 OA
ATOM      3  N   UNL     1      15.718  -9.900   0.000  0.00  0.00    +0.000 NA
ATOM      4  C   UNL     1      16.433 -10.312   0.000  0.00  0.00    +0.000 A 
ATOM      5  C   UNL     1      17.147  -9.900   0.000  0.00  0.00    +0.000 A 
ATOM      6  C   UNL     1      17.862 -10.312   0.000  0.00  0.00    +0.000 A 
ATOM      7  N   UNL     1      17.862 -11.137   0.000  0.00  0.00    +0.000 N 
ATOM      8  C   UNL     1      17.147 -11.550   0.000  0.00  0.00    +0.000 A 
ATOM      9  O   UNL     1      17.147 -12.375   0.000  0.00  0.00    +0.000 OA
ATOM     10  N   UNL     1      16.433 -11.137   0.000  0.00  0.00    +0.000 NA
ENDROOT
BRANCH   7  11
ATOM     11  C   UNL     1      18.576 -11.550   0.000  0.00  0.00    +0.000 C 
ATOM     12  C   UNL     1      19.330 -11.214   0.000  0.00  0.00    +0.000 C 
ATOM     13  C   UNL     1      19.882 -11.828   0.000  0.00  0.00    +0.000 C 
ATOM     14  C   UNL     1      19.470 -12.542   0.000  0.00  0.00    +0.000 C 
ATOM     15  O   UNL     1      18.663 -12.370   0.000  0.00  0.00    +0.000 OA
ATOM     16  O   UNL     1      20.702 -11.741   0.000  0.00  0.00    +0.000 OA
BRANCH  12  17
ATOM     17  C   UNL     1      19.501 -10.408   0.000  0.00  0.00    +0.000 C 
ATOM     18  N   UNL     1      19.673  -9.601   0.000  0.00  0.00    +0.000 NA
ENDBRANCH  12  17
BRANCH  14  19
ATOM     19  C   UNL     1      19.805 -13.296   0.000  0.00  0.00    +0.000 C 
ATOM     20  O   UNL     1      20.625 -13.382   0.000  0.00  0.00    +0.000 OA
ENDBRANCH  14  19
ENDBRANCH   7  11
BRANCH   1  21
ATOM     21  C   UNL     1      14.289  -9.900   0.000  0.00  0.00    +0.000 C 
BRANCH  21  22
ATOM     22  C   UNL     1      13.575 -10.312   0.000  0.00  0.00    +0.000 C 
BRANCH  22  23
ATOM     23  C   UNL     1      12.861  -9.900   0.000  0.00  0.00    +0.000 C 
BRANCH  23  24
ATOM     24  C   UNL     1      12.146 -10.312   0.000  0.00  0.00    +0.000 C 
BRANCH  24  25
ATOM     25  C   UNL     1      11.431  -9.900   0.000  0.00  0.00    +0.000 C 
BRANCH  25  26
ATOM     26  C   UNL     1      10.717 -10.312   0.000  0.00  0.00    +0.000 C 
BRANCH  26  27
ATOM     27  C   UNL     1      10.003  -9.900   0.000  0.00  0.00    +0.000 C 
BRANCH  27  28
ATOM     28  C   UNL     1       9.288 -10.312   0.000  0.00  0.00    +0.000 C 
BRANCH  28  29
ATOM     29  C   UNL     1       8.574  -9.900   0.000  0.00  0.00    +0.000 C 
BRANCH  29  30
ATOM     30  C   UNL     1       7.859 -10.312   0.000  0.00  0.00    +0.000 C 
BRANCH  30  31
ATOM     31  C   UNL     1       7.145  -9.900   0.000  0.00  0.00    +0.000 C 
BRANCH  31  32
ATOM     32  C   UNL     1       6.430 -10.312   0.000  0.00  0.00    +0.000 C 
BRANCH  32  33
ATOM     33  C   UNL     1       5.716  -9.900   0.000  0.00  0.00    +0.000 C 
BRANCH  33  35
ATOM     34  C   UNL     1       4.287  -9.900   0.000  0.00  0.00    +0.000 C 
ATOM     35  C   UNL     1       5.001 -10.312   0.000  0.00  0.00    +0.000 C 
ENDBRANCH  33  35
ENDBRANCH  32  33
ENDBRANCH  31  32
ENDBRANCH  30  31
ENDBRANCH  29  30
ENDBRANCH  28  29
ENDBRANCH  27  28
ENDBRANCH  26  27
ENDBRANCH  25  26
ENDBRANCH  24  25
ENDBRANCH  23  24
ENDBRANCH  22  23
ENDBRANCH  21  22
ENDBRANCH   1  21
TORSDOF 17
