REMARK  Name = 
REMARK  22 active torsions:
REMARK  status: ('A' for Active; 'I' for Inactive)
REMARK    1  A    between atoms: S_1  and  C_50
REMARK    2  A    between atoms: S_1  and  C_53
REMARK    3  A    between atoms: P_2  and  O_5
REMARK    4  A    between atoms: P_2  and  O_8
REMARK    5  A    between atoms: P_3  and  O_8
REMARK    6  A    between atoms: P_3  and  O_11
REMARK    7  A    between atoms: P_4  and  O_16
REMARK    8  A    between atoms: O_5  and  C_34
REMARK    9  A    between atoms: O_11  and  C_43
REMARK   10  A    between atoms: O_16  and  C_42
REMARK   11  A    between atoms: O_22  and  C_59
REMARK   12  A    between atoms: O_23  and  C_60
REMARK   13  A    between atoms: N_25  and  C_38
REMARK   14  A    between atoms: N_26  and  C_46
REMARK   15  A    between atoms: N_27  and  C_45
REMARK   16  A    between atoms: C_33  and  C_37
REMARK   17  A    between atoms: C_38  and  C_39
REMARK   18  A    between atoms: C_39  and  C_40
REMARK   19  A    between atoms: C_41  and  C_43
REMARK   20  A    between atoms: C_46  and  C_50
REMARK   21  A    between atoms: C_53  and  C_54
REMARK   22  A    between atoms: C_55  and  C_56
REMARK                            x       y       z     vdW  Elec       q    Type
REMARK                         _______ _______ _______ _____ _____    ______ ____
ROOT
ATOM      1  O   UNL     1      -1.173  -0.247   0.000  0.00  0.00    +0.000 OA
ATOM      2  C   UNL     1      -1.742   1.242   0.000  0.00  0.00    +0.000 C 
ATOM      3  C   UNL     1      -1.258   0.574   0.000  0.00  0.00    +0.000 C 
ATOM      4  C   UNL     1      -2.079   0.489   0.000  0.00  0.00    +0.000 C 
ATOM      5  C   UNL     1      -1.405   1.995   0.000  0.00  0.00    +0.000 C 
ATOM      6  C   UNL     1      -2.495   1.579   0.000  0.00  0.00    +0.000 C 
ENDROOT
BRANCH   3   9
ATOM      7  O   UNL     1      -0.253   1.811   0.000  0.00  0.00    +0.000 OA
ATOM      8  N   UNL     1       0.163   0.721   0.000  0.00  0.00    +0.000 NA
ATOM      9  C   UNL     1      -0.590   1.058   0.000  0.00  0.00    +0.000 C 
BRANCH   8  10
ATOM     10  C   UNL     1       0.832   1.204   0.000  0.00  0.00    +0.000 C 
BRANCH  10  11
ATOM     11  C   UNL     1       1.585   0.868   0.000  0.00  0.00    +0.000 C 
BRANCH  11  14
ATOM     12  O   UNL     1       2.168   2.172   0.000  0.00  0.00    +0.000 OA
ATOM     13  N   UNL     1       3.006   1.015   0.000  0.00  0.00    +0.000 NA
ATOM     14  C   UNL     1       2.253   1.351   0.000  0.00  0.00    +0.000 C 
BRANCH  13  15
ATOM     15  C   UNL     1       3.674   1.498   0.000  0.00  0.00    +0.000 C 
BRANCH  15  16
ATOM     16  C   UNL     1       4.427   1.161   0.000  0.00  0.00    +0.000 C 
BRANCH  16  17
ATOM     17  S   UNL     1       5.096   1.645   0.000  0.00  0.00    +0.000 S 
BRANCH  17  19
ATOM     18  O   UNL     1       5.934   0.488   0.000  0.00  0.00    +0.000 OA
ATOM     19  C   UNL     1       5.849   1.308   0.000  0.00  0.00    +0.000 C 
BRANCH  19  20
ATOM     20  C   UNL     1       6.517   1.792   0.000  0.00  0.00    +0.000 C 
ATOM     21  C   UNL     1       7.270   1.455   0.000  0.00  0.00    +0.000 C 
BRANCH  21  23
ATOM     22  O   UNL     1       9.943   3.390   0.000  0.00  0.00    +0.000 OA
ATOM     23  C   UNL     1       7.939   1.939   0.000  0.00  0.00    +0.000 A 
ATOM     24  C   UNL     1       8.692   1.602   0.000  0.00  0.00    +0.000 A 
ATOM     25  C   UNL     1       7.854   2.760   0.000  0.00  0.00    +0.000 A 
ATOM     26  C   UNL     1       8.522   3.243   0.000  0.00  0.00    +0.000 A 
ATOM     27  C   UNL     1       9.360   2.086   0.000  0.00  0.00    +0.000 A 
ATOM     28  C   UNL     1       9.275   2.907   0.000  0.00  0.00    +0.000 A 
BRANCH  27  29
ATOM     29  O   UNL     1      10.113   1.749   0.000  0.00  0.00    +0.000 OA
ATOM     30  C   UNL     1      10.198   0.928   0.000  0.00  0.00    +0.000 C 
ENDBRANCH  27  29
BRANCH  26  31
ATOM     31  O   UNL     1       8.437   4.064   0.000  0.00  0.00    +0.000 OA
ATOM     32  C   UNL     1       7.684   4.401   0.000  0.00  0.00    +0.000 C 
ENDBRANCH  26  31
ENDBRANCH  21  23
ENDBRANCH  19  20
ENDBRANCH  17  19
ENDBRANCH  16  17
ENDBRANCH  15  16
ENDBRANCH  13  15
ENDBRANCH  11  14
ENDBRANCH  10  11
ENDBRANCH   8  10
ENDBRANCH   3   9
BRANCH   4  33
ATOM     33  O   UNL     1      -2.747   0.005   0.000  0.00  0.00    +0.000 OA
BRANCH  33  34
ATOM     34  P   UNL     1      -3.500   0.342   0.000  0.00  0.00    +0.000 P 
ATOM     35  O   UNL     1      -3.163   1.095   0.000  0.00  0.00    +0.000 OA
ATOM     36  O   UNL     1      -3.837  -0.411   0.000  0.00  0.00    +0.000 OA
BRANCH  34  37
ATOM     37  O   UNL     1      -4.253   0.679   0.000  0.00  0.00    +0.000 OA
BRANCH  37  38
ATOM     38  P   UNL     1      -4.921   0.195   0.000  0.00  0.00    +0.000 P 
ATOM     39  O   UNL     1      -4.438  -0.473   0.000  0.00  0.00    +0.000 OA
ATOM     40  O   UNL     1      -5.405   0.863   0.000  0.00  0.00    +0.000 OA
BRANCH  38  41
ATOM     41  O   UNL     1      -5.590  -0.288   0.000  0.00  0.00    +0.000 OA
BRANCH  41  42
ATOM     42  C   UNL     1      -6.343   0.048   0.000  0.00  0.00    +0.000 C 
BRANCH  42  45
ATOM     43  O   UNL     1      -7.013  -1.260   0.000  0.00  0.00    +0.000 OA
ATOM     44  O   UNL     1      -9.107  -0.844   0.000  0.00  0.00    +0.000 OA
ATOM     45  C   UNL     1      -7.011  -0.435   0.000  0.00  0.00    +0.000 C 
ATOM     46  C   UNL     1      -7.795  -0.179   0.000  0.00  0.00    +0.000 C 
ATOM     47  C   UNL     1      -8.281  -0.846   0.000  0.00  0.00    +0.000 C 
ATOM     48  C   UNL     1      -7.798  -1.514   0.000  0.00  0.00    +0.000 C 
BRANCH  48  49
ATOM     49  N   UNL     1      -8.054  -2.298   0.000  0.00  0.00    +0.000 N 
ATOM     50  N   UNL     1      -8.054  -3.626   0.000  0.00  0.00    +0.000 NA
ATOM     51  N   UNL     1      -9.549  -2.137   0.000  0.00  0.00    +0.000 NA
ATOM     52  N   UNL     1     -10.264  -3.375   0.000  0.00  0.00    +0.000 NA
ATOM     53  N   UNL     1      -9.549  -4.612   0.000  0.00  0.00    +0.000 NA
ATOM     54  C   UNL     1      -8.835  -2.550   0.000  0.00  0.00    +0.000 A 
ATOM     55  C   UNL     1      -7.572  -2.962   0.000  0.00  0.00    +0.000 A 
ATOM     56  C   UNL     1      -8.835  -3.375   0.000  0.00  0.00    +0.000 A 
ATOM     57  C   UNL     1      -9.549  -3.787   0.000  0.00  0.00    +0.000 A 
ATOM     58  C   UNL     1     -10.264  -2.550   0.000  0.00  0.00    +0.000 A 
ENDBRANCH  48  49
BRANCH  46  59
ATOM     59  O   UNL     1      -8.049   0.606   0.000  0.00  0.00    +0.000 OA
BRANCH  59  60
ATOM     60  P   UNL     1      -7.496   1.218   0.000  0.00  0.00    +0.000 P 
ATOM     61  O   UNL     1      -6.943   1.830   0.000  0.00  0.00    +0.000 OA
ATOM     62  O   UNL     1      -8.108   1.771   0.000  0.00  0.00    +0.000 OA
ATOM     63  O   UNL     1      -6.884   0.665   0.000  0.00  0.00    +0.000 OA
ENDBRANCH  59  60
ENDBRANCH  46  59
ENDBRANCH  42  45
ENDBRANCH  41  42
ENDBRANCH  38  41
ENDBRANCH  37  38
ENDBRANCH  34  37
ENDBRANCH  33  34
ENDBRANCH   4  33
TORSDOF 22
