REMARK  Name = 
REMARK  6 active torsions:
REMARK  status: ('A' for Active; 'I' for Inactive)
REMARK    1  A    between atoms: N_3  and  C_22
REMARK    2  A    between atoms: N_6  and  C_7
REMARK    3  A    between atoms: C_7  and  C_8
REMARK    4  A    between atoms: C_8  and  C_9
REMARK    5  A    between atoms: C_9  and  O_10
REMARK    6  A    between atoms: O_10  and  C_11
REMARK                            x       y       z     vdW  Elec       q    Type
REMARK                         _______ _______ _______ _____ _____    ______ ____
ROOT
ATOM      1  C   UNL     1       0.031   0.166   0.000  0.00  0.00    +0.000 C 
ATOM      2  C   UNL     1       0.829   0.418   0.000  0.00  0.00    +0.000 C 
ATOM      3  N   UNL     1       1.412  -0.165   0.000  0.00  0.00    +0.000 NA
ATOM      4  C   UNL     1       1.238  -0.958   0.000  0.00  0.00    +0.000 C 
ATOM      5  C   UNL     1       0.440  -1.210   0.000  0.00  0.00    +0.000 C 
ATOM      6  N   UNL     1      -0.143  -0.626   0.000  0.00  0.00    +0.000 NA
ENDROOT
BRANCH   3   7
ATOM      7  C   UNL     1       2.201   0.079   0.000  0.00  0.00    +0.000 C 
ATOM      8  C   UNL     1       2.333   0.905   0.000  0.00  0.00    +0.000 A 
ATOM      9  C   UNL     1       1.618   1.317   0.000  0.00  0.00    +0.000 A 
ATOM     10  C   UNL     1       1.618   2.141   0.000  0.00  0.00    +0.000 A 
ATOM     11  C   UNL     1       2.333   2.553   0.000  0.00  0.00    +0.000 A 
ATOM     12  C   UNL     1       3.048   2.141   0.000  0.00  0.00    +0.000 A 
ATOM     13  C   UNL     1       3.048   1.317   0.000  0.00  0.00    +0.000 A 
ATOM     14  C   UNL     1       3.815   1.015   0.000  0.00  0.00    +0.000 C 
ATOM     15  C   UNL     1       4.045   0.237   0.000  0.00  0.00    +0.000 C 
ATOM     16  C   UNL     1       4.629   0.821   0.000  0.00  0.00    +0.000 C 
ATOM     17  F   UNL     1       4.939   1.592   0.000  0.00  0.00    +0.000 F 
ATOM     18  F   UNL     1       5.311   0.384   0.000  0.00  0.00    +0.000 F 
ATOM     19  C   UNL     1       3.592  -0.453   0.000  0.00  0.00    +0.000 A 
ATOM     20  C   UNL     1       4.058  -1.135   0.000  0.00  0.00    +0.000 A 
ATOM     21  C   UNL     1       3.699  -1.877   0.000  0.00  0.00    +0.000 A 
ATOM     22  C   UNL     1       2.879  -1.937   0.000  0.00  0.00    +0.000 A 
ATOM     23  C   UNL     1       2.413  -1.259   0.000  0.00  0.00    +0.000 A 
ATOM     24  C   UNL     1       2.784  -0.505   0.000  0.00  0.00    +0.000 A 
ENDBRANCH   3   7
BRANCH   6  25
ATOM     25  C   UNL     1      -0.952  -0.895   0.000  0.00  0.00    +0.000 C 
BRANCH  25  26
ATOM     26  C   UNL     1      -1.531  -0.312   0.000  0.00  0.00    +0.000 C 
ATOM     27  O   UNL     1      -1.328   0.474   0.000  0.00  0.00    +0.000 OA
BRANCH  26  28
ATOM     28  C   UNL     1      -2.341  -0.535   0.000  0.00  0.00    +0.000 C 
BRANCH  28  29
ATOM     29  O   UNL     1      -2.925   0.048   0.000  0.00  0.00    +0.000 OA
BRANCH  29  30
ATOM     30  C   UNL     1      -3.719  -0.167   0.000  0.00  0.00    +0.000 A 
ATOM     31  C   UNL     1      -4.302   0.416   0.000  0.00  0.00    +0.000 A 
ATOM     32  C   UNL     1      -5.096   0.206   0.000  0.00  0.00    +0.000 A 
ATOM     33  C   UNL     1      -5.311  -0.592   0.000  0.00  0.00    +0.000 A 
ATOM     34  C   UNL     1      -4.728  -1.176   0.000  0.00  0.00    +0.000 A 
ATOM     35  C   UNL     1      -3.929  -0.961   0.000  0.00  0.00    +0.000 A 
ATOM     36  C   UNL     1      -3.350  -1.544   0.000  0.00  0.00    +0.000 A 
ATOM     37  C   UNL     1      -3.561  -2.338   0.000  0.00  0.00    +0.000 A 
ATOM     38  C   UNL     1      -4.359  -2.553   0.000  0.00  0.00    +0.000 A 
ATOM     39  N   UNL     1      -4.943  -1.970   0.000  0.00  0.00    +0.000 NA
ENDBRANCH  29  30
ENDBRANCH  28  29
ENDBRANCH  26  28
ENDBRANCH  25  26
ENDBRANCH   6  25
TORSDOF 6
