REMARK  Name = 
REMARK  17 active torsions:
REMARK  status: ('A' for Active; 'I' for Inactive)
REMARK    1  A    between atoms: C_6  and  C_14
REMARK    2  A    between atoms: C_6  and  N_24
REMARK    3  A    between atoms: C_9  and  O_28
REMARK    4  A    between atoms: C_9  and  O_31
REMARK    5  A    between atoms: C_10  and  O_29
REMARK    6  A    between atoms: C_10  and  O_32
REMARK    7  A    between atoms: C_11  and  O_30
REMARK    8  A    between atoms: C_11  and  P_35
REMARK    9  A    between atoms: C_12  and  O_33
REMARK   10  A    between atoms: C_13  and  O_34
REMARK   11  A    between atoms: C_14  and  O_30
REMARK   12  A    between atoms: C_18  and  O_28
REMARK   13  A    between atoms: C_18  and  O_33
REMARK   14  A    between atoms: C_19  and  O_29
REMARK   15  A    between atoms: C_19  and  O_34
REMARK   16  A    between atoms: O_31  and  P_35
REMARK   17  A    between atoms: O_32  and  P_35
REMARK                            x       y       z     vdW  Elec       q    Type
REMARK                         _______ _______ _______ _____ _____    ______ ____
ROOT
ATOM      1  O   UNL     1       4.995   8.803   0.000  0.00  0.00    +0.000 OA
ATOM      2  P   UNL     1       4.170   8.803   0.000  0.00  0.00    +0.000 P 
ENDROOT
BRANCH   2   3
ATOM      3  C   UNL     1       4.170   9.628   0.000  0.00  0.00    +0.000 C 
BRANCH   3   4
ATOM      4  O   UNL     1       4.884  10.041   0.000  0.00  0.00    +0.000 OA
BRANCH   4   6
ATOM      5  C   UNL     1       4.170  11.278   0.000  0.00  0.00    +0.000 C 
ATOM      6  C   UNL     1       4.884  10.866   0.000  0.00  0.00    +0.000 C 
BRANCH   6   7
ATOM      7  C   UNL     1       5.598  11.278   0.000  0.00  0.00    +0.000 C 
BRANCH   7  17
ATOM      8  C   UNL     1       7.625  13.030   0.000  0.00  0.00    +0.000 A 
ATOM      9  C   UNL     1       4.931  12.588   0.000  0.00  0.00    +0.000 A 
ATOM     10  C   UNL     1       6.011  13.373   0.000  0.00  0.00    +0.000 A 
ATOM     11  C   UNL     1       6.563  13.986   0.000  0.00  0.00    +0.000 A 
ATOM     12  C   UNL     1       6.266  12.588   0.000  0.00  0.00    +0.000 A 
ATOM     13  N   UNL     1       6.308  14.771   0.000  0.00  0.00    +0.000 NA
ATOM     14  N   UNL     1       7.370  13.815   0.000  0.00  0.00    +0.000 NA
ATOM     15  N   UNL     1       7.073  12.417   0.000  0.00  0.00    +0.000 NA
ATOM     16  N   UNL     1       5.186  13.373   0.000  0.00  0.00    +0.000 NA
ATOM     17  N   UNL     1       5.598  12.103   0.000  0.00  0.00    +0.000 N 
ENDBRANCH   7  17
ENDBRANCH   6   7
ENDBRANCH   4   6
ENDBRANCH   3   4
ENDBRANCH   2   3
BRANCH   2  18
ATOM     18  O   UNL     1       3.345   8.803   0.000  0.00  0.00    +0.000 OA
BRANCH  18  19
ATOM     19  C   UNL     1       2.932   9.518   0.000  0.00  0.00    +0.000 C 
BRANCH  19  20
ATOM     20  O   UNL     1       2.107   9.518   0.000  0.00  0.00    +0.000 OA
BRANCH  20  21
ATOM     21  C   UNL     1       1.694  10.232   0.000  0.00  0.00    +0.000 C 
ATOM     22  O   UNL     1       2.107  10.947   0.000  0.00  0.00    +0.000 OA
BRANCH  21  23
ATOM     23  O   UNL     1       0.870  10.232   0.000  0.00  0.00    +0.000 OA
BRANCH  23  26
ATOM     24  C   UNL     1      -0.368  10.947   0.000  0.00  0.00    +0.000 C 
ATOM     25  C   UNL     1       0.870  11.661   0.000  0.00  0.00    +0.000 C 
ATOM     26  C   UNL     1       0.457  10.947   0.000  0.00  0.00    +0.000 C 
ENDBRANCH  23  26
ENDBRANCH  21  23
ENDBRANCH  20  21
ENDBRANCH  19  20
ENDBRANCH  18  19
ENDBRANCH   2  18
BRANCH   2  27
ATOM     27  O   UNL     1       4.170   7.978   0.000  0.00  0.00    +0.000 OA
BRANCH  27  28
ATOM     28  C   UNL     1       3.455   7.566   0.000  0.00  0.00    +0.000 C 
BRANCH  28  29
ATOM     29  O   UNL     1       2.740   7.978   0.000  0.00  0.00    +0.000 OA
BRANCH  29  30
ATOM     30  C   UNL     1       2.026   7.566   0.000  0.00  0.00    +0.000 C 
ATOM     31  O   UNL     1       2.026   6.741   0.000  0.00  0.00    +0.000 OA
BRANCH  30  32
ATOM     32  O   UNL     1       1.312   7.978   0.000  0.00  0.00    +0.000 OA
BRANCH  32  35
ATOM     33  C   UNL     1      -0.117   7.978   0.000  0.00  0.00    +0.000 C 
ATOM     34  C   UNL     1       0.597   6.741   0.000  0.00  0.00    +0.000 C 
ATOM     35  C   UNL     1       0.597   7.566   0.000  0.00  0.00    +0.000 C 
ENDBRANCH  32  35
ENDBRANCH  30  32
ENDBRANCH  29  30
ENDBRANCH  28  29
ENDBRANCH  27  28
ENDBRANCH   2  27
TORSDOF 17
