REMARK  Name = 
REMARK  5 active torsions:
REMARK  status: ('A' for Active; 'I' for Inactive)
REMARK    1  A    between atoms: C_3  and  O_16
REMARK    2  A    between atoms: C_8  and  C_9
REMARK    3  A    between atoms: C_8  and  C_12
REMARK    4  A    between atoms: C_10  and  N_13
REMARK    5  A    between atoms: C_11  and  O_16
REMARK                            x       y       z     vdW  Elec       q    Type
REMARK                         _______ _______ _______ _____ _____    ______ ____
ROOT
ATOM      1  C   UNL     1       1.429   2.475   0.000  0.00  0.00    +0.000 A 
ATOM      2  C   UNL     1       0.715   3.712   0.000  0.00  0.00    +0.000 A 
ATOM      3  C   UNL     1       2.143   2.888   0.000  0.00  0.00    +0.000 A 
ATOM      4  C   UNL     1       1.429   4.125   0.000  0.00  0.00    +0.000 A 
ATOM      5  C   UNL     1       0.715   2.888   0.000  0.00  0.00    +0.000 A 
ATOM      6  C   UNL     1       2.143   3.712   0.000  0.00  0.00    +0.000 A 
ENDROOT
BRANCH   5   8
ATOM      7  C   UNL     1      -0.715   2.888   0.000  0.00  0.00    +0.000 C 
ATOM      8  N   UNL     1       0.000   2.475   0.000  0.00  0.00    +0.000 NA
ATOM      9  O   UNL     1      -0.715   3.712   0.000  0.00  0.00    +0.000 OA
BRANCH   7  10
ATOM     10  C   UNL     1      -1.429   2.475   0.000  0.00  0.00    +0.000 C 
BRANCH  10  12
ATOM     11  C   UNL     1      -2.858   2.475   0.000  0.00  0.00    +0.000 C 
ATOM     12  C   UNL     1      -2.143   2.888   0.000  0.00  0.00    +0.000 C 
ATOM     13  O   UNL     1      -2.143   3.712   0.000  0.00  0.00    +0.000 OA
ENDBRANCH  10  12
ENDBRANCH   7  10
ENDBRANCH   5   8
BRANCH   6  14
ATOM     14  O   UNL     1       2.858   4.125   0.000  0.00  0.00    +0.000 OA
BRANCH  14  16
ATOM     15  C   UNL     1       3.572   5.362   0.000  0.00  0.00    +0.000 C 
ATOM     16  C   UNL     1       2.858   4.950   0.000  0.00  0.00    +0.000 C 
ENDBRANCH  14  16
ENDBRANCH   6  14
TORSDOF 5
