REMARK  Name = 
REMARK  1 active torsions:
REMARK  status: ('A' for Active; 'I' for Inactive)
REMARK    1  A    between atoms: C_8  and  C_15
REMARK                            x       y       z     vdW  Elec       q    Type
REMARK                         _______ _______ _______ _____ _____    ______ ____
ROOT
ATOM      1  C   UNL     1       0.897  -0.683   0.000  0.00  0.00    +0.000 C 
ATOM      2  C   UNL     1       0.183  -1.096   0.000  0.00  0.00    +0.000 C 
ATOM      3  C   UNL     1       0.897   0.141   0.000  0.00  0.00    +0.000 C 
ATOM      4  C   UNL     1       1.682  -0.938   0.000  0.00  0.00    +0.000 C 
ATOM      5  O   UNL     1       0.984  -1.504   0.000  0.00  0.00    +0.000 OA
ATOM      6  C   UNL     1      -0.531  -0.683   0.000  0.00  0.00    +0.000 C 
ATOM      7  C   UNL     1       0.183  -1.921   0.000  0.00  0.00    +0.000 C 
ATOM      8  C   UNL     1       1.682   0.397   0.000  0.00  0.00    +0.000 C 
ATOM      9  C   UNL     1       0.183   0.554   0.000  0.00  0.00    +0.000 C 
ATOM     10  C   UNL     1       0.984   0.962   0.000  0.00  0.00    +0.000 C 
ATOM     11  C   UNL     1       2.167  -0.271   0.000  0.00  0.00    +0.000 C 
ATOM     12  C   UNL     1      -1.246  -1.096   0.000  0.00  0.00    +0.000 C 
ATOM     13  C   UNL     1      -0.531   0.141   0.000  0.00  0.00    +0.000 C 
ATOM     14  C   UNL     1      -0.531  -2.333   0.000  0.00  0.00    +0.000 C 
ATOM     15  C   UNL     1      -1.246  -1.921   0.000  0.00  0.00    +0.000 C 
ATOM     16  C   UNL     1      -1.960  -0.683   0.000  0.00  0.00    +0.000 C 
ATOM     17  C   UNL     1      -1.246  -0.271   0.000  0.00  0.00    +0.000 C 
ATOM     18  C   UNL     1      -1.960  -2.333   0.000  0.00  0.00    +0.000 C 
ATOM     19  C   UNL     1      -2.675  -1.096   0.000  0.00  0.00    +0.000 C 
ATOM     20  C   UNL     1      -2.675  -1.921   0.000  0.00  0.00    +0.000 C 
ATOM     21  O   UNL     1      -3.389  -2.333   0.000  0.00  0.00    +0.000 OA
ENDROOT
BRANCH   8  22
ATOM     22  C   UNL     1       1.937   1.181   0.000  0.00  0.00    +0.000 C 
ATOM     23  C   UNL     1       1.452   1.849   0.000  0.00  0.00    +0.000 C 
ATOM     24  C   UNL     1       2.722   1.436   0.000  0.00  0.00    +0.000 C 
ATOM     25  O   UNL     1       1.937   2.516   0.000  0.00  0.00    +0.000 OA
ATOM     26  C   UNL     1       2.722   2.261   0.000  0.00  0.00    +0.000 C 
ATOM     27  O   UNL     1       3.389   2.746   0.000  0.00  0.00    +0.000 OA
ENDBRANCH   8  22
TORSDOF 1
