REMARK  Name = 
REMARK  11 active torsions:
REMARK  status: ('A' for Active; 'I' for Inactive)
REMARK    1  A    between atoms: C_2  and  O_5
REMARK    2  A    between atoms: O_5  and  C_6
REMARK    3  A    between atoms: C_8  and  C_9
REMARK    4  A    between atoms: C_9  and  C_10
REMARK    5  A    between atoms: C_16  and  C_17
REMARK    6  A    between atoms: C_17  and  C_18
REMARK    7  A    between atoms: C_18  and  C_19
REMARK    8  A    between atoms: C_19  and  C_20
REMARK    9  A    between atoms: C_20  and  C_21
REMARK   10  A    between atoms: C_26  and  C_28
REMARK   11  A    between atoms: C_28  and  C_29
REMARK                            x       y       z     vdW  Elec       q    Type
REMARK                         _______ _______ _______ _____ _____    ______ ____
ROOT
ATOM      1  C   UNL     1      -1.322   4.888   0.000  0.00  0.00    +0.000 C 
ATOM      2  O   UNL     1      -2.037   4.476   0.000  0.00  0.00    +0.000 OA
ATOM      3  N   UNL     1      -0.608   4.476   0.000  0.00  0.00    +0.000 NA
ATOM      4  C   UNL     1      -0.608   3.651   0.000  0.00  0.00    +0.000 A 
ATOM      5  N   UNL     1       0.107   3.238   0.000  0.00  0.00    +0.000 NA
ATOM      6  N   UNL     1       0.107   2.413   0.000  0.00  0.00    +0.000 NA
ATOM      7  C   UNL     1      -0.608   2.001   0.000  0.00  0.00    +0.000 A 
ATOM      8  C   UNL     1      -1.322   2.413   0.000  0.00  0.00    +0.000 A 
ATOM      9  C   UNL     1      -1.322   3.238   0.000  0.00  0.00    +0.000 A 
ENDROOT
BRANCH   7  10
ATOM     10  C   UNL     1      -0.608   1.176   0.000  0.00  0.00    +0.000 C 
BRANCH  10  11
ATOM     11  C   UNL     1      -1.322   0.763   0.000  0.00  0.00    +0.000 C 
BRANCH  11  12
ATOM     12  C   UNL     1      -1.322  -0.062   0.000  0.00  0.00    +0.000 C 
BRANCH  12  13
ATOM     13  C   UNL     1      -2.037  -0.474   0.000  0.00  0.00    +0.000 C 
BRANCH  13  14
ATOM     14  C   UNL     1      -2.037  -1.299   0.000  0.00  0.00    +0.000 A 
ATOM     15  N   UNL     1      -1.369  -1.784   0.000  0.00  0.00    +0.000 NA
ATOM     16  N   UNL     1      -1.624  -2.569   0.000  0.00  0.00    +0.000 NA
ATOM     17  C   UNL     1      -2.449  -2.569   0.000  0.00  0.00    +0.000 A 
ATOM     18  N   UNL     1      -2.934  -3.236   0.000  0.00  0.00    +0.000 NA
ATOM     19  C   UNL     1      -3.755  -3.150   0.000  0.00  0.00    +0.000 C 
ATOM     20  O   UNL     1      -4.090  -2.396   0.000  0.00  0.00    +0.000 OA
ATOM     21  S   UNL     1      -2.704  -1.784   0.000  0.00  0.00    +0.000 S 
BRANCH  19  22
ATOM     22  C   UNL     1      -4.239  -3.817   0.000  0.00  0.00    +0.000 C 
BRANCH  22  23
ATOM     23  C   UNL     1      -3.904  -4.571   0.000  0.00  0.00    +0.000 A 
ATOM     24  N   UNL     1      -3.083  -4.657   0.000  0.00  0.00    +0.000 NA
ATOM     25  C   UNL     1      -2.748  -5.411   0.000  0.00  0.00    +0.000 A 
ATOM     26  C   UNL     1      -3.233  -6.078   0.000  0.00  0.00    +0.000 A 
ATOM     27  C   UNL     1      -4.053  -5.992   0.000  0.00  0.00    +0.000 A 
ATOM     28  C   UNL     1      -4.389  -5.238   0.000  0.00  0.00    +0.000 A 
ENDBRANCH  22  23
ENDBRANCH  19  22
ENDBRANCH  13  14
ENDBRANCH  12  13
ENDBRANCH  11  12
ENDBRANCH  10  11
ENDBRANCH   7  10
BRANCH   1  29
ATOM     29  C   UNL     1      -1.322   5.713   0.000  0.00  0.00    +0.000 C 
BRANCH  29  32
ATOM     30  C   UNL     1       0.821   6.126   0.000  0.00  0.00    +0.000 A 
ATOM     31  C   UNL     1       0.107   5.713   0.000  0.00  0.00    +0.000 A 
ATOM     32  C   UNL     1      -0.608   6.126   0.000  0.00  0.00    +0.000 A 
ATOM     33  C   UNL     1      -0.608   6.951   0.000  0.00  0.00    +0.000 A 
ATOM     34  C   UNL     1       0.107   7.363   0.000  0.00  0.00    +0.000 A 
ATOM     35  C   UNL     1       0.821   6.951   0.000  0.00  0.00    +0.000 A 
BRANCH  30  36
ATOM     36  O   UNL     1       1.536   5.713   0.000  0.00  0.00    +0.000 OA
BRANCH  36  38
ATOM     37  F   UNL     1       2.965   6.538   0.000  0.00  0.00    +0.000 F 
ATOM     38  C   UNL     1       2.250   6.126   0.000  0.00  0.00    +0.000 C 
ATOM     39  F   UNL     1       1.838   6.840   0.000  0.00  0.00    +0.000 F 
ATOM     40  F   UNL     1       2.663   5.411   0.000  0.00  0.00    +0.000 F 
ENDBRANCH  36  38
ENDBRANCH  30  36
ENDBRANCH  29  32
ENDBRANCH   1  29
TORSDOF 11
