REMARK  Name = 
REMARK  4 active torsions:
REMARK  status: ('A' for Active; 'I' for Inactive)
REMARK    1  A    between atoms: C_1  and  N_2
REMARK    2  A    between atoms: C_1  and  C_3
REMARK    3  A    between atoms: C_3  and  O_5
REMARK    4  A    between atoms: O_5  and  C_7
REMARK                            x       y       z     vdW  Elec       q    Type
REMARK                         _______ _______ _______ _____ _____    ______ ____
ROOT
ATOM      1  C   UNL     1       0.002  -0.205   0.000  0.00  0.00    +0.000 C 
ATOM      2  C   UNL     1       0.002   0.619   0.000  0.00  0.00    +0.000 C 
ENDROOT
BRANCH   1   3
ATOM      3  C   UNL     1      -0.712  -0.620   0.000  0.00  0.00    +0.000 C 
BRANCH   3   4
ATOM      4  N   UNL     1      -1.427  -0.205   0.000  0.00  0.00    +0.000 N 
ATOM      5  C   UNL     1      -2.141   0.205   0.000  0.00  0.00    +0.000 C 
ATOM      6  C   UNL     1      -1.427   0.620   0.000  0.00  0.00    +0.000 C 
ATOM      7  C   UNL     1      -2.141  -0.618   0.000  0.00  0.00    +0.000 C 
ENDBRANCH   3   4
ENDBRANCH   1   3
BRANCH   1   8
ATOM      8  O   UNL     1       0.717  -0.620   0.000  0.00  0.00    +0.000 OA
BRANCH   8   9
ATOM      9  C   UNL     1       1.427  -0.205   0.000  0.00  0.00    +0.000 C 
ATOM     10  N   UNL     1       2.141  -0.620   0.000  0.00  0.00    +0.000 NA
ATOM     11  O   UNL     1       1.427   0.619   0.000  0.00  0.00    +0.000 OA
ENDBRANCH   8   9
ENDBRANCH   1   8
TORSDOF 4
