REMARK  Name = 
REMARK  1 active torsions:
REMARK  status: ('A' for Active; 'I' for Inactive)
REMARK    1  A    between atoms: C_7  and  N_19
REMARK                            x       y       z     vdW  Elec       q    Type
REMARK                         _______ _______ _______ _____ _____    ______ ____
ROOT
ATOM      1  C   UNL     1       0.218   0.061   0.000  0.00  0.00    +0.000 C 
ATOM      2  O   UNL     1      -0.267  -0.607   0.000  0.00  0.00    +0.000 OA
ATOM      3  C   UNL     1       0.218  -1.274   0.000  0.00  0.00    +0.000 C 
ATOM      4  C   UNL     1       1.002  -1.019   0.000  0.00  0.00    +0.000 C 
ATOM      5  C   UNL     1       1.002  -0.194   0.000  0.00  0.00    +0.000 C 
ATOM      6  O   UNL     1       1.670   0.291   0.000  0.00  0.00    +0.000 OA
ATOM      7  O   UNL     1       1.615  -1.571   0.000  0.00  0.00    +0.000 OA
ATOM      8  C   UNL     1       0.046  -2.081   0.000  0.00  0.00    +0.000 C 
ATOM      9  O   UNL     1       0.659  -2.633   0.000  0.00  0.00    +0.000 OA
ATOM     10  O   UNL     1       2.251  -2.550   0.000  0.00  0.00    +0.000 OA
ATOM     11  P   UNL     1       1.444  -2.378   0.000  0.00  0.00    +0.000 P 
ATOM     12  O   UNL     1       1.699  -3.163   0.000  0.00  0.00    +0.000 OA
ENDROOT
BRANCH   1  19
ATOM     13  N   UNL     1      -2.251   1.925   0.000  0.00  0.00    +0.000 NA
ATOM     14  C   UNL     1      -2.251   1.100   0.000  0.00  0.00    +0.000 A 
ATOM     15  C   UNL     1      -0.822   1.925   0.000  0.00  0.00    +0.000 A 
ATOM     16  C   UNL     1      -0.822   1.100   0.000  0.00  0.00    +0.000 A 
ATOM     17  C   UNL     1      -1.536   2.338   0.000  0.00  0.00    +0.000 A 
ATOM     18  N   UNL     1      -1.536   0.688   0.000  0.00  0.00    +0.000 NA
ATOM     19  N   UNL     1      -0.037   0.845   0.000  0.00  0.00    +0.000 N 
ATOM     20  C   UNL     1       0.448   1.513   0.000  0.00  0.00    +0.000 A 
ATOM     21  N   UNL     1      -0.037   2.180   0.000  0.00  0.00    +0.000 NA
ATOM     22  N   UNL     1      -1.536   3.163   0.000  0.00  0.00    +0.000 NA
ENDBRANCH   1  19
TORSDOF 1
