REMARK  Name = 
REMARK  1 active torsions:
REMARK  status: ('A' for Active; 'I' for Inactive)
REMARK    1  A    between atoms: P_1  and  C_2
REMARK                            x       y       z     vdW  Elec       q    Type
REMARK                         _______ _______ _______ _____ _____    ______ ____
ROOT
ATOM      1  C   UNL     1       0.041   0.000   0.000  0.00  0.00    +0.000 C 
ATOM      2  C   UNL     1       0.756  -0.412   0.000  0.00  0.00    +0.000 C 
ATOM      3  C   UNL     1       1.470   0.000   0.000  0.00  0.00    +0.000 C 
ATOM      4  N   UNL     1       1.470   0.825   0.000  0.00  0.00    +0.000 NA
ATOM      5  C   UNL     1       0.756   1.238   0.000  0.00  0.00    +0.000 C 
ATOM      6  C   UNL     1       0.041   0.825   0.000  0.00  0.00    +0.000 C 
ENDROOT
BRANCH   1   7
ATOM      7  P   UNL     1      -0.673  -0.412   0.000  0.00  0.00    +0.000 P 
ATOM      8  O   UNL     1      -1.470  -0.199   0.000  0.00  0.00    +0.000 OA
ATOM      9  O   UNL     1      -0.673  -1.238   0.000  0.00  0.00    +0.000 OA
ATOM     10  C   UNL     1      -0.886   0.367   0.000  0.00  0.00    +0.000 C 
ENDBRANCH   1   7
TORSDOF 1
