REMARK  Name = 
REMARK  25 active torsions:
REMARK  status: ('A' for Active; 'I' for Inactive)
REMARK    1  A    between atoms: S_2  and  C_59
REMARK    2  A    between atoms: S_2  and  C_63
REMARK    3  A    between atoms: P_3  and  O_7
REMARK    4  A    between atoms: P_4  and  O_9
REMARK    5  A    between atoms: P_4  and  O_12
REMARK    6  A    between atoms: P_5  and  O_12
REMARK    7  A    between atoms: P_5  and  O_14
REMARK    8  A    between atoms: O_7  and  C_32
REMARK    9  A    between atoms: O_9  and  C_36
REMARK   10  A    between atoms: O_14  and  C_43
REMARK   11  A    between atoms: N_23  and  C_35
REMARK   12  A    between atoms: N_27  and  C_41
REMARK   13  A    between atoms: N_28  and  C_48
REMARK   14  A    between atoms: N_29  and  C_55
REMARK   15  A    between atoms: N_31  and  C_56
REMARK   16  A    between atoms: C_34  and  C_36
REMARK   17  A    between atoms: C_40  and  C_42
REMARK   18  A    between atoms: C_40  and  C_43
REMARK   19  A    between atoms: C_42  and  C_47
REMARK   20  A    between atoms: C_48  and  C_49
REMARK   21  A    between atoms: C_49  and  C_50
REMARK   22  A    between atoms: C_51  and  C_52
REMARK   23  A    between atoms: C_52  and  C_56
REMARK   24  A    between atoms: C_55  and  C_59
REMARK   25  A    between atoms: C_63  and  C_64
REMARK                            x       y       z     vdW  Elec       q    Type
REMARK                         _______ _______ _______ _____ _____    ______ ____
ROOT
ATOM      1  C   UNL     1      -2.427   1.142   0.000  0.00  0.00    +0.000 C 
ATOM      2  C   UNL     1      -2.090   1.895   0.000  0.00  0.00    +0.000 C 
ATOM      3  C   UNL     1      -2.764   0.389   0.000  0.00  0.00    +0.000 C 
ENDROOT
BRANCH   1   5
ATOM      4  O   UNL     1      -1.589  -0.015   0.000  0.00  0.00    +0.000 OA
ATOM      5  C   UNL     1      -1.674   0.805   0.000  0.00  0.00    +0.000 C 
BRANCH   5   8
ATOM      6  O   UNL     1      -1.090   2.109   0.000  0.00  0.00    +0.000 OA
ATOM      7  N   UNL     1      -0.252   0.952   0.000  0.00  0.00    +0.000 N 
ATOM      8  C   UNL     1      -1.005   1.289   0.000  0.00  0.00    +0.000 C 
ATOM      9  H   UNL     1      -0.200   0.443   0.000  0.00  0.00    +0.000 HD
BRANCH   7  10
ATOM     10  C   UNL     1       0.416   1.436   0.000  0.00  0.00    +0.000 C 
BRANCH  10  11
ATOM     11  C   UNL     1       1.169   1.099   0.000  0.00  0.00    +0.000 C 
BRANCH  11  14
ATOM     12  O   UNL     1       1.753   2.403   0.000  0.00  0.00    +0.000 OA
ATOM     13  N   UNL     1       2.591   1.246   0.000  0.00  0.00    +0.000 N 
ATOM     14  C   UNL     1       1.837   1.583   0.000  0.00  0.00    +0.000 C 
ATOM     15  H   UNL     1       2.643   0.737   0.000  0.00  0.00    +0.000 HD
BRANCH  13  16
ATOM     16  C   UNL     1       3.259   1.730   0.000  0.00  0.00    +0.000 C 
BRANCH  16  17
ATOM     17  C   UNL     1       4.012   1.393   0.000  0.00  0.00    +0.000 C 
BRANCH  17  18
ATOM     18  S   UNL     1       4.680   1.877   0.000  0.00  0.00    +0.000 S 
BRANCH  18  19
ATOM     19  C   UNL     1       5.433   1.540   0.000  0.00  0.00    +0.000 C 
BRANCH  19  22
ATOM     20  O   UNL     1       6.017   2.844   0.000  0.00  0.00    +0.000 OA
ATOM     21  N   UNL     1       6.855   1.687   0.000  0.00  0.00    +0.000 N 
ATOM     22  C   UNL     1       6.102   2.023   0.000  0.00  0.00    +0.000 C 
ATOM     23  H   UNL     1       6.907   1.178   0.000  0.00  0.00    +0.000 HD
BRANCH  21  24
ATOM     24  C   UNL     1       7.523   2.170   0.000  0.00  0.00    +0.000 C 
BRANCH  24  25
ATOM     25  C   UNL     1       8.276   1.833   0.000  0.00  0.00    +0.000 C 
BRANCH  25  28
ATOM     26 BR   UNL     1      11.216   0.468   0.000  0.00  0.00    +0.000 Br
ATOM     27  N   UNL     1       9.725   3.392   0.000  0.00  0.00    +0.000 N 
ATOM     28  C   UNL     1       8.944   2.317   0.000  0.00  0.00    +0.000 A 
ATOM     29  C   UNL     1       9.724   2.062   0.000  0.00  0.00    +0.000 A 
ATOM     30  C   UNL     1      10.209   2.729   0.000  0.00  0.00    +0.000 A 
ATOM     31  C   UNL     1       8.945   3.137   0.000  0.00  0.00    +0.000 A 
ATOM     32  C   UNL     1      10.059   1.308   0.000  0.00  0.00    +0.000 A 
ATOM     33  C   UNL     1      11.029   2.643   0.000  0.00  0.00    +0.000 A 
ATOM     34  C   UNL     1      10.880   1.222   0.000  0.00  0.00    +0.000 A 
ATOM     35  C   UNL     1      11.365   1.889   0.000  0.00  0.00    +0.000 A 
ATOM     36  H   UNL     1       9.882   3.878   0.000  0.00  0.00    +0.000 HD
ENDBRANCH  25  28
ENDBRANCH  24  25
ENDBRANCH  21  24
ENDBRANCH  19  22
ENDBRANCH  18  19
ENDBRANCH  17  18
ENDBRANCH  16  17
ENDBRANCH  13  16
ENDBRANCH  11  14
ENDBRANCH  10  11
ENDBRANCH   7  10
ENDBRANCH   5   8
ENDBRANCH   1   5
BRANCH   1  37
ATOM     37  C   UNL     1      -3.180   1.479   0.000  0.00  0.00    +0.000 C 
BRANCH  37  38
ATOM     38  O   UNL     1      -3.848   0.995   0.000  0.00  0.00    +0.000 OA
BRANCH  38  39
ATOM     39  P   UNL     1      -4.601   1.332   0.000  0.00  0.00    +0.000 P 
ATOM     40  O   UNL     1      -4.264   2.085   0.000  0.00  0.00    +0.000 OA
ATOM     41  O   UNL     1      -4.938   0.579   0.000  0.00  0.00    +0.000 OA
BRANCH  39  42
ATOM     42  O   UNL     1      -5.354   1.669   0.000  0.00  0.00    +0.000 OA
BRANCH  42  43
ATOM     43  P   UNL     1      -6.023   1.185   0.000  0.00  0.00    +0.000 P 
ATOM     44  O   UNL     1      -5.539   0.517   0.000  0.00  0.00    +0.000 OA
ATOM     45  O   UNL     1      -6.506   1.853   0.000  0.00  0.00    +0.000 OA
BRANCH  43  46
ATOM     46  O   UNL     1      -6.691   0.701   0.000  0.00  0.00    +0.000 OA
BRANCH  46  47
ATOM     47  C   UNL     1      -7.444   1.038   0.000  0.00  0.00    +0.000 C 
BRANCH  47  52
ATOM     48  O   UNL     1      -8.114  -0.271   0.000  0.00  0.00    +0.000 OA
ATOM     49  O   UNL     1     -10.208   0.145   0.000  0.00  0.00    +0.000 OA
ATOM     50  C   UNL     1      -8.897   0.811   0.000  0.00  0.00    +0.000 C 
ATOM     51  C   UNL     1      -9.383   0.144   0.000  0.00  0.00    +0.000 C 
ATOM     52  C   UNL     1      -8.112   0.554   0.000  0.00  0.00    +0.000 C 
ATOM     53  C   UNL     1      -8.899  -0.524   0.000  0.00  0.00    +0.000 C 
BRANCH  53  54
ATOM     54  N   UNL     1      -9.155  -1.308   0.000  0.00  0.00    +0.000 N 
ATOM     55  N   UNL     1      -9.155  -2.636   0.000  0.00  0.00    +0.000 NA
ATOM     56  N   UNL     1     -10.650  -1.147   0.000  0.00  0.00    +0.000 NA
ATOM     57  N   UNL     1     -11.365  -2.385   0.000  0.00  0.00    +0.000 NA
ATOM     58  C   UNL     1      -9.936  -1.560   0.000  0.00  0.00    +0.000 A 
ATOM     59  C   UNL     1      -8.674  -1.972   0.000  0.00  0.00    +0.000 A 
ATOM     60  C   UNL     1      -9.936  -2.385   0.000  0.00  0.00    +0.000 A 
ATOM     61  C   UNL     1     -10.650  -2.797   0.000  0.00  0.00    +0.000 A 
ATOM     62  C   UNL     1     -11.365  -1.560   0.000  0.00  0.00    +0.000 A 
BRANCH  61  63
ATOM     63  N   UNL     1     -10.650  -3.623   0.000  0.00  0.00    +0.000 N 
ATOM     64  H   UNL     1     -11.093  -3.878   0.000  0.00  0.00    +0.000 HD
ATOM     65  H   UNL     1     -10.207  -3.878   0.000  0.00  0.00    +0.000 HD
ENDBRANCH  61  63
ENDBRANCH  53  54
BRANCH  50  66
ATOM     66  O   UNL     1      -9.150   1.596   0.000  0.00  0.00    +0.000 OA
BRANCH  66  67
ATOM     67  P   UNL     1      -8.597   2.208   0.000  0.00  0.00    +0.000 P 
ATOM     68  O   UNL     1      -8.044   2.820   0.000  0.00  0.00    +0.000 OA
ATOM     69  O   UNL     1      -9.209   2.761   0.000  0.00  0.00    +0.000 OA
ATOM     70  O   UNL     1      -7.985   1.655   0.000  0.00  0.00    +0.000 OA
ENDBRANCH  66  67
ENDBRANCH  50  66
ENDBRANCH  47  52
ENDBRANCH  46  47
ENDBRANCH  43  46
ENDBRANCH  42  43
ENDBRANCH  39  42
ENDBRANCH  38  39
ENDBRANCH  37  38
ENDBRANCH   1  37
TORSDOF 25
