REMARK  Name = 
REMARK  3 active torsions:
REMARK  status: ('A' for Active; 'I' for Inactive)
REMARK    1  A    between atoms: S_2  and  N_5
REMARK    2  A    between atoms: N_11  and  C_13
REMARK    3  A    between atoms: C_16  and  C_19
REMARK                            x       y       z     vdW  Elec       q    Type
REMARK                         _______ _______ _______ _____ _____    ______ ____
ROOT
ATOM      1  C   UNL     1       2.879  -0.667   0.000  0.00  0.00    +0.000 C 
ATOM      2  C   UNL     1       3.292   0.047   0.000  0.00  0.00    +0.000 C 
ATOM      3  C   UNL     1       4.117   0.047   0.000  0.00  0.00    +0.000 C 
ATOM      4  C   UNL     1       4.529  -0.667   0.000  0.00  0.00    +0.000 C 
ATOM      5  O   UNL     1       4.117  -1.382   0.000  0.00  0.00    +0.000 OA
ATOM      6  C   UNL     1       3.292  -1.382   0.000  0.00  0.00    +0.000 C 
ATOM      7  N   UNL     1       4.529   0.761   0.000  0.00  0.00    +0.000 NA
ENDROOT
BRANCH   1  14
ATOM      8  N   UNL     1      -0.485  -0.667   0.000  0.00  0.00    +0.000 N 
ATOM      9  C   UNL     1       0.000  -1.335   0.000  0.00  0.00    +0.000 A 
ATOM     10  C   UNL     1       0.785  -1.080   0.000  0.00  0.00    +0.000 A 
ATOM     11  C   UNL     1       0.785  -0.255   0.000  0.00  0.00    +0.000 A 
ATOM     12  N   UNL     1       0.000   0.000   0.000  0.00  0.00    +0.000 NA
ATOM     13  C   UNL     1       1.569   0.000   0.000  0.00  0.00    +0.000 C 
ATOM     14  N   UNL     1       2.054  -0.667   0.000  0.00  0.00    +0.000 NA
ATOM     15  C   UNL     1       1.569  -1.335   0.000  0.00  0.00    +0.000 C 
BRANCH   8  17
ATOM     16  C   UNL     1      -2.135  -0.667   0.000  0.00  0.00    +0.000 C 
ATOM     17  S   UNL     1      -1.310  -0.667   0.000  0.00  0.00    +0.000 S 
ATOM     18  O   UNL     1      -1.310  -1.492   0.000  0.00  0.00    +0.000 OA
ATOM     19  O   UNL     1      -1.310   0.158   0.000  0.00  0.00    +0.000 OA
ENDBRANCH   8  17
ENDBRANCH   1  14
BRANCH   4  20
ATOM     20  C   UNL     1       5.354  -0.667   0.000  0.00  0.00    +0.000 A 
ATOM     21  C   UNL     1       5.767   0.047   0.000  0.00  0.00    +0.000 A 
ATOM     22  C   UNL     1       6.592   0.047   0.000  0.00  0.00    +0.000 A 
ATOM     23  C   UNL     1       7.004  -0.667   0.000  0.00  0.00    +0.000 A 
ATOM     24  C   UNL     1       6.592  -1.382   0.000  0.00  0.00    +0.000 A 
ATOM     25  C   UNL     1       5.767  -1.382   0.000  0.00  0.00    +0.000 A 
ATOM     26  F   UNL     1       5.354  -2.096   0.000  0.00  0.00    +0.000 F 
ATOM     27  F   UNL     1       7.004   0.761   0.000  0.00  0.00    +0.000 F 
ENDBRANCH   4  20
TORSDOF 3
