REMARK  Name = 
REMARK  2 active torsions:
REMARK  status: ('A' for Active; 'I' for Inactive)
REMARK    1  A    between atoms: C_6  and  N_7
REMARK    2  A    between atoms: C_16  and  N_18
REMARK                            x       y       z     vdW  Elec       q    Type
REMARK                         _______ _______ _______ _____ _____    ______ ____
ROOT
ATOM      1  O   UNL     1       2.751  -1.712   0.000  0.00  0.00    +0.000 OA
ATOM      2  C   UNL     1       2.751  -2.537   0.000  0.00  0.00    +0.000 A 
ATOM      3  N   UNL     1       3.419  -3.022   0.000  0.00  0.00    +0.000 N 
ATOM      4  N   UNL     1       3.164  -3.806   0.000  0.00  0.00    +0.000 NA
ATOM      5  C   UNL     1       2.339  -3.806   0.000  0.00  0.00    +0.000 A 
ATOM      6  C   UNL     1       2.084  -3.022   0.000  0.00  0.00    +0.000 A 
ATOM      7  C   UNL     1       4.203  -2.767   0.000  0.00  0.00    +0.000 A 
ATOM      8  N   UNL     1       4.375  -1.960   0.000  0.00  0.00    +0.000 NA
ATOM      9  C   UNL     1       5.159  -1.705   0.000  0.00  0.00    +0.000 A 
ATOM     10  N   UNL     1       5.772  -2.257   0.000  0.00  0.00    +0.000 NA
ATOM     11  C   UNL     1       5.601  -3.064   0.000  0.00  0.00    +0.000 A 
ATOM     12  C   UNL     1       4.816  -3.319   0.000  0.00  0.00    +0.000 A 
ENDROOT
BRANCH  11  13
ATOM     13  N   UNL     1       6.214  -3.616   0.000  0.00  0.00    +0.000 N 
ATOM     14  C   UNL     1       6.999  -3.361   0.000  0.00  0.00    +0.000 C 
ATOM     15  C   UNL     1       7.612  -3.913   0.000  0.00  0.00    +0.000 C 
ATOM     16  O   UNL     1       7.440  -4.720   0.000  0.00  0.00    +0.000 OA
ATOM     17  C   UNL     1       6.656  -4.975   0.000  0.00  0.00    +0.000 C 
ATOM     18  C   UNL     1       6.043  -4.423   0.000  0.00  0.00    +0.000 C 
ENDBRANCH  11  13
BRANCH   6  19
ATOM     19  N   UNL     1       1.299  -2.767   0.000  0.00  0.00    +0.000 N 
ATOM     20  C   UNL     1       0.632  -3.252   0.000  0.00  0.00    +0.000 A 
ATOM     21  C   UNL     1      -0.036  -2.767   0.000  0.00  0.00    +0.000 A 
ATOM     22  N   UNL     1       0.219  -1.982   0.000  0.00  0.00    +0.000 NA
ATOM     23  N   UNL     1       1.044  -1.982   0.000  0.00  0.00    +0.000 NA
ENDBRANCH   6  19
TORSDOF 2
