REMARK  Name = 
REMARK  6 active torsions:
REMARK  status: ('A' for Active; 'I' for Inactive)
REMARK    1  A    between atoms: C_3  and  C_20
REMARK    2  A    between atoms: C_5  and  C_6
REMARK    3  A    between atoms: C_6  and  C_7
REMARK    4  A    between atoms: C_24  and  C_25
REMARK    5  A    between atoms: C_25  and  N_26
REMARK    6  A    between atoms: N_26  and  C_27
REMARK                            x       y       z     vdW  Elec       q    Type
REMARK                         _______ _______ _______ _____ _____    ______ ____
ROOT
ATOM      1  F   UNL     1       4.287  -4.125   0.000  0.00  0.00    +0.000 F 
ATOM      2  C   UNL     1       3.572  -3.712   0.000  0.00  0.00    +0.000 A 
ATOM      3  C   UNL     1       2.858  -4.125   0.000  0.00  0.00    +0.000 A 
ATOM      4  C   UNL     1       2.143  -3.712   0.000  0.00  0.00    +0.000 A 
ATOM      5  C   UNL     1       2.143  -2.888   0.000  0.00  0.00    +0.000 A 
ATOM      6  C   UNL     1       2.858  -2.475   0.000  0.00  0.00    +0.000 A 
ATOM      7  C   UNL     1       3.572  -2.888   0.000  0.00  0.00    +0.000 A 
ENDROOT
BRANCH   3   8
ATOM      8  C   UNL     1       2.858  -4.950   0.000  0.00  0.00    +0.000 C 
ATOM      9  O   UNL     1       3.572  -5.362   0.000  0.00  0.00    +0.000 OA
ATOM     10  N   UNL     1       2.143  -5.362   0.000  0.00  0.00    +0.000 N 
ATOM     11  C   UNL     1       1.930  -6.159   0.000  0.00  0.00    +0.000 C 
ATOM     12  C   UNL     1       1.133  -5.946   0.000  0.00  0.00    +0.000 C 
ATOM     13  C   UNL     1       1.347  -5.149   0.000  0.00  0.00    +0.000 C 
BRANCH  12  14
ATOM     14  C   UNL     1       0.418  -6.358   0.000  0.00  0.00    +0.000 C 
BRANCH  14  15
ATOM     15  N   UNL     1       0.418  -7.183   0.000  0.00  0.00    +0.000 NA
BRANCH  15  16
ATOM     16  C   UNL     1      -0.296  -7.596   0.000  0.00  0.00    +0.000 C 
ATOM     17  C   UNL     1      -0.708  -8.310   0.000  0.00  0.00    +0.000 C 
ATOM     18  C   UNL     1      -1.121  -7.596   0.000  0.00  0.00    +0.000 C 
ENDBRANCH  15  16
ENDBRANCH  14  15
ENDBRANCH  12  14
ENDBRANCH   3   8
BRANCH   5  19
ATOM     19  C   UNL     1       1.429  -2.475   0.000  0.00  0.00    +0.000 C 
BRANCH  19  20
ATOM     20  C   UNL     1       1.429  -1.650   0.000  0.00  0.00    +0.000 A 
ATOM     21  N   UNL     1       0.715  -1.238   0.000  0.00  0.00    +0.000 NA
ATOM     22  N   UNL     1       0.715  -0.412   0.000  0.00  0.00    +0.000 NA
ATOM     23  C   UNL     1       1.429   0.000   0.000  0.00  0.00    +0.000 A 
ATOM     24  O   UNL     1       1.429   0.825   0.000  0.00  0.00    +0.000 OA
ATOM     25  C   UNL     1       2.143  -0.412   0.000  0.00  0.00    +0.000 A 
ATOM     26  C   UNL     1       2.858   0.000   0.000  0.00  0.00    +0.000 A 
ATOM     27  C   UNL     1       3.572  -0.412   0.000  0.00  0.00    +0.000 A 
ATOM     28  C   UNL     1       3.572  -1.238   0.000  0.00  0.00    +0.000 A 
ATOM     29  C   UNL     1       2.858  -1.650   0.000  0.00  0.00    +0.000 A 
ATOM     30  C   UNL     1       2.143  -1.238   0.000  0.00  0.00    +0.000 A 
ENDBRANCH  19  20
ENDBRANCH   5  19
TORSDOF 6
