REMARK  Name = 
REMARK  7 active torsions:
REMARK  status: ('A' for Active; 'I' for Inactive)
REMARK    1  A    between atoms: C_2  and  N_4
REMARK    2  A    between atoms: N_4  and  C_5
REMARK    3  A    between atoms: N_4  and  C_19
REMARK    4  A    between atoms: C_5  and  C_6
REMARK    5  A    between atoms: C_6  and  C_7
REMARK    6  A    between atoms: C_7  and  C_9
REMARK    7  A    between atoms: C_19  and  C_20
REMARK                            x       y       z     vdW  Elec       q    Type
REMARK                         _______ _______ _______ _____ _____    ______ ____
ROOT
ATOM      1  C   UNL     1       0.715  -2.888   0.000  0.00  0.00    +0.000 C 
ENDROOT
BRANCH   1   2
ATOM      2  C   UNL     1       0.000  -2.475   0.000  0.00  0.00    +0.000 C 
ATOM      3  O   UNL     1       0.000  -1.650   0.000  0.00  0.00    +0.000 OA
BRANCH   2   4
ATOM      4  C   UNL     1      -0.715  -2.888   0.000  0.00  0.00    +0.000 A 
ATOM      5  C   UNL     1      -1.429  -2.475   0.000  0.00  0.00    +0.000 A 
ATOM      6  C   UNL     1      -2.143  -2.888   0.000  0.00  0.00    +0.000 A 
ATOM      7  C   UNL     1      -2.143  -3.712   0.000  0.00  0.00    +0.000 A 
ATOM      8  C   UNL     1      -2.858  -4.125   0.000  0.00  0.00    +0.000 A 
ATOM      9  C   UNL     1      -3.572  -3.712   0.000  0.00  0.00    +0.000 A 
ATOM     10  C   UNL     1      -3.572  -2.888   0.000  0.00  0.00    +0.000 A 
ATOM     11  C   UNL     1      -2.858  -2.475   0.000  0.00  0.00    +0.000 A 
ATOM     12  C   UNL     1      -1.429  -4.125   0.000  0.00  0.00    +0.000 A 
ATOM     13  C   UNL     1      -0.715  -3.712   0.000  0.00  0.00    +0.000 A 
ENDBRANCH   2   4
ENDBRANCH   1   2
BRANCH   1  14
ATOM     14  C   UNL     1       1.429  -2.475   0.000  0.00  0.00    +0.000 C 
BRANCH  14  15
ATOM     15  N   UNL     1       2.143  -2.888   0.000  0.00  0.00    +0.000 NA
BRANCH  15  17
ATOM     16  C   UNL     1       2.858  -4.125   0.000  0.00  0.00    +0.000 C 
ATOM     17  C   UNL     1       2.143  -3.712   0.000  0.00  0.00    +0.000 C 
ATOM     18  C   UNL     1       1.429  -4.125   0.000  0.00  0.00    +0.000 C 
ENDBRANCH  15  17
BRANCH  15  19
ATOM     19  C   UNL     1       2.858  -2.475   0.000  0.00  0.00    +0.000 C 
BRANCH  19  20
ATOM     20  C   UNL     1       3.572  -2.888   0.000  0.00  0.00    +0.000 A 
ATOM     21  C   UNL     1       4.287  -2.475   0.000  0.00  0.00    +0.000 A 
ATOM     22  C   UNL     1       5.001  -2.888   0.000  0.00  0.00    +0.000 A 
ATOM     23  C   UNL     1       5.001  -3.712   0.000  0.00  0.00    +0.000 A 
ATOM     24  C   UNL     1       4.287  -4.125   0.000  0.00  0.00    +0.000 A 
ATOM     25  C   UNL     1       3.572  -3.712   0.000  0.00  0.00    +0.000 A 
ENDBRANCH  19  20
ENDBRANCH  15  19
ENDBRANCH  14  15
ENDBRANCH   1  14
TORSDOF 7
