REMARK  Name = 
REMARK  0 active torsions:
REMARK  status: ('A' for Active; 'I' for Inactive)
REMARK                            x       y       z     vdW  Elec       q    Type
REMARK                         _______ _______ _______ _____ _____    ______ ____
ROOT
ATOM      1  C   UNL     1       3.928   5.679   0.000  0.00  0.00    +0.000 C 
ATOM      2  C   UNL     1       1.714   2.030   0.000  0.00  0.00    +0.000 A 
ATOM      3  C   UNL     1       2.470   1.699   0.000  0.00  0.00    +0.000 A 
ATOM      4  C   UNL     1       1.623   2.850   0.000  0.00  0.00    +0.000 A 
ATOM      5  C   UNL     1       3.135   2.188   0.000  0.00  0.00    +0.000 A 
ATOM      6  C   UNL     1       2.196   4.159   0.000  0.00  0.00    +0.000 C 
ATOM      7  C   UNL     1       2.860   4.648   0.000  0.00  0.00    +0.000 C 
ATOM      8  C   UNL     1       5.458   4.108   0.000  0.00  0.00    +0.000 C 
ATOM      9  C   UNL     1       5.020   4.807   0.000  0.00  0.00    +0.000 C 
ATOM     10  C   UNL     1       5.809   2.791   0.000  0.00  0.00    +0.000 A 
ATOM     11  C   UNL     1       4.251   2.247   0.000  0.00  0.00    +0.000 A 
ATOM     12  C   UNL     1       2.287   3.339   0.000  0.00  0.00    +0.000 A 
ATOM     13  C   UNL     1       5.184   3.330   0.000  0.00  0.00    +0.000 A 
ATOM     14  C   UNL     1       3.043   3.008   0.000  0.00  0.00    +0.000 A 
ATOM     15  C   UNL     1       4.405   3.058   0.000  0.00  0.00    +0.000 A 
ATOM     16  C   UNL     1       5.655   1.980   0.000  0.00  0.00    +0.000 A 
ATOM     17  C   UNL     1       3.616   4.317   0.000  0.00  0.00    +0.000 C 
ATOM     18  C   UNL     1       4.876   1.709   0.000  0.00  0.00    +0.000 A 
ATOM     19  C   UNL     1       3.707   3.498   0.000  0.00  0.00    +0.000 C 
ATOM     20 CL   UNL     1       6.280   1.442   0.000  0.00  0.00    +0.000 Cl
ATOM     21  N   UNL     1       4.200   4.900   0.000  0.00  0.00    +0.000 NA
ATOM     22  O   UNL     1       4.722   0.898   0.000  0.00  0.00    +0.000 OA
ENDROOT
TORSDOF 0
