REMARK  Name = 
REMARK  3 active torsions:
REMARK  status: ('A' for Active; 'I' for Inactive)
REMARK    1  A    between atoms: C_3  and  O_7
REMARK    2  A    between atoms: O_7  and  C_8
REMARK    3  A    between atoms: C_48  and  C_49
REMARK                            x       y       z     vdW  Elec       q    Type
REMARK                         _______ _______ _______ _____ _____    ______ ____
ROOT
ATOM      1  C   UNL     1       4.287  -0.206   0.000  0.00  0.00    +0.000 C 
ATOM      2  C   UNL     1       5.001   0.206   0.000  0.00  0.00    +0.000 C 
ATOM      3  C   UNL     1       3.572   0.206   0.000  0.00  0.00    +0.000 C 
ATOM      4  C   UNL     1       2.858  -0.206   0.000  0.00  0.00    +0.000 C 
ATOM      5  C   UNL     1       2.143   0.206   0.000  0.00  0.00    +0.000 C 
ATOM      6  C   UNL     1       1.429  -0.206   0.000  0.00  0.00    +0.000 C 
ATOM      7  C   UNL     1       0.714   0.206   0.000  0.00  0.00    +0.000 C 
ATOM      8  C   UNL     1       0.000  -0.206   0.000  0.00  0.00    +0.000 C 
ATOM      9  C   UNL     1      -0.714   0.206   0.000  0.00  0.00    +0.000 C 
ATOM     10  C   UNL     1      -1.429  -0.206   0.000  0.00  0.00    +0.000 C 
ATOM     11  C   UNL     1      -2.143   0.206   0.000  0.00  0.00    +0.000 C 
ATOM     12  C   UNL     1      -2.858  -0.206   0.000  0.00  0.00    +0.000 C 
ATOM     13  C   UNL     1      -3.572   0.206   0.000  0.00  0.00    +0.000 C 
ATOM     14  C   UNL     1      -4.287  -0.206   0.000  0.00  0.00    +0.000 C 
ATOM     15  C   UNL     1      -5.001   0.206   0.000  0.00  0.00    +0.000 C 
ATOM     16  C   UNL     1      -5.716  -0.206   0.000  0.00  0.00    +0.000 C 
ATOM     17  C   UNL     1      -6.430   0.206   0.000  0.00  0.00    +0.000 C 
ATOM     18  C   UNL     1      -7.145  -0.206   0.000  0.00  0.00    +0.000 C 
ATOM     19  C   UNL     1      -6.430   1.031   0.000  0.00  0.00    +0.000 C 
ATOM     20  O   UNL     1      -7.145   1.444   0.000  0.00  0.00    +0.000 OA
ATOM     21  C   UNL     1      -5.716   1.444   0.000  0.00  0.00    +0.000 C 
ATOM     22  C   UNL     1      -5.001   1.031   0.000  0.00  0.00    +0.000 C 
ATOM     23  C   UNL     1      -5.716   2.269   0.000  0.00  0.00    +0.000 C 
ATOM     24  C   UNL     1      -6.430   2.681   0.000  0.00  0.00    +0.000 C 
ATOM     25  O   UNL     1      -5.001   2.681   0.000  0.00  0.00    +0.000 OA
ATOM     26  C   UNL     1      -4.287   2.269   0.000  0.00  0.00    +0.000 C 
ATOM     27  C   UNL     1      -3.572   2.681   0.000  0.00  0.00    +0.000 C 
ATOM     28  C   UNL     1      -2.858   2.269   0.000  0.00  0.00    +0.000 C 
ATOM     29  C   UNL     1      -2.143   2.681   0.000  0.00  0.00    +0.000 C 
ATOM     30  C   UNL     1      -1.429   2.269   0.000  0.00  0.00    +0.000 C 
ATOM     31  C   UNL     1      -0.714   2.681   0.000  0.00  0.00    +0.000 C 
ATOM     32  C   UNL     1       0.000   2.269   0.000  0.00  0.00    +0.000 C 
ATOM     33  C   UNL     1       0.714   2.681   0.000  0.00  0.00    +0.000 C 
ATOM     34  C   UNL     1       1.429   2.269   0.000  0.00  0.00    +0.000 C 
ATOM     35  C   UNL     1       2.143   2.681   0.000  0.00  0.00    +0.000 C 
ATOM     36  C   UNL     1       2.858   2.269   0.000  0.00  0.00    +0.000 C 
ATOM     37  C   UNL     1       3.572   2.681   0.000  0.00  0.00    +0.000 C 
ATOM     38  C   UNL     1       4.287   2.269   0.000  0.00  0.00    +0.000 C 
ATOM     39  C   UNL     1       5.001   2.681   0.000  0.00  0.00    +0.000 C 
ATOM     40  C   UNL     1       5.716   2.269   0.000  0.00  0.00    +0.000 C 
ATOM     41  C   UNL     1       5.716   1.444   0.000  0.00  0.00    +0.000 C 
ATOM     42  C   UNL     1       5.001   1.031   0.000  0.00  0.00    +0.000 C 
ATOM     43  O   UNL     1       6.430   2.681   0.000  0.00  0.00    +0.000 OA
ATOM     44  O   UNL     1      -4.287   1.444   0.000  0.00  0.00    +0.000 OA
ATOM     45  O   UNL     1      -2.858   1.444   0.000  0.00  0.00    +0.000 OA
ATOM     46  O   UNL     1      -1.429   1.444   0.000  0.00  0.00    +0.000 OA
ATOM     47  O   UNL     1       0.000   1.444   0.000  0.00  0.00    +0.000 OA
ATOM     48  O   UNL     1       2.143   3.506   0.000  0.00  0.00    +0.000 OA
ATOM     49  O   UNL     1       2.858   1.444   0.000  0.00  0.00    +0.000 OA
ATOM     50  O   UNL     1       4.287   1.444   0.000  0.00  0.00    +0.000 OA
ATOM     51  O   UNL     1       4.287   3.094   0.000  0.00  0.00    +0.000 OA
ENDROOT
BRANCH  41  52
ATOM     52  C   UNL     1       6.430   1.031   0.000  0.00  0.00    +0.000 C 
ATOM     53  O   UNL     1       6.430   0.206   0.000  0.00  0.00    +0.000 OA
ATOM     54  O   UNL     1       7.145   1.444   0.000  0.00  0.00    +0.000 OA
ENDBRANCH  41  52
BRANCH   1  55
ATOM     55  O   UNL     1       4.287  -1.031   0.000  0.00  0.00    +0.000 OA
BRANCH  55  58
ATOM     56  C   UNL     1       6.430  -1.444   0.000  0.00  0.00    +0.000 C 
ATOM     57  O   UNL     1       5.716  -1.031   0.000  0.00  0.00    +0.000 OA
ATOM     58  C   UNL     1       5.001  -1.444   0.000  0.00  0.00    +0.000 C 
ATOM     59  C   UNL     1       5.001  -2.269   0.000  0.00  0.00    +0.000 C 
ATOM     60  C   UNL     1       5.716  -2.681   0.000  0.00  0.00    +0.000 C 
ATOM     61  C   UNL     1       6.430  -2.269   0.000  0.00  0.00    +0.000 C 
ATOM     62  C   UNL     1       7.145  -1.031   0.000  0.00  0.00    +0.000 C 
ATOM     63  O   UNL     1       7.145  -2.681   0.000  0.00  0.00    +0.000 OA
ATOM     64  N   UNL     1       5.716  -3.506   0.000  0.00  0.00    +0.000 NA
ATOM     65  O   UNL     1       4.287  -2.681   0.000  0.00  0.00    +0.000 OA
ENDBRANCH  55  58
ENDBRANCH   1  55
TORSDOF 3
