REMARK  Name = 
REMARK  12 active torsions:
REMARK  status: ('A' for Active; 'I' for Inactive)
REMARK    1  A    between atoms: C_9  and  C_11
REMARK    2  A    between atoms: C_11  and  N_12
REMARK    3  A    between atoms: N_12  and  C_13
REMARK    4  A    between atoms: C_16  and  C_19
REMARK    5  A    between atoms: N_21  and  CA_22
REMARK    6  A    between atoms: CA_22  and  C_23
REMARK    7  A    between atoms: CA_22  and  C_38
REMARK    8  A    between atoms: C_23  and  C_24
REMARK    9  A    between atoms: C_24  and  C_25
REMARK   10  A    between atoms: C_25  and  N_26
REMARK   11  A    between atoms: C_27  and  C_28
REMARK   12  A    between atoms: C_30  and  C_35
REMARK                            x       y       z     vdW  Elec       q    Type
REMARK                         _______ _______ _______ _____ _____    ______ ____
ROOT
ATOM      1  C   UNL     1      -0.715  -0.825   0.000  0.00  0.00    +0.000 C 
ATOM      2  O   UNL     1      -0.715  -1.650   0.000  0.00  0.00    +0.000 OA
ATOM      3  N   UNL     1      -1.429  -0.412   0.000  0.00  0.00    +0.000 NA
ENDROOT
BRANCH   1   7
ATOM      4  C   UNL     1       1.429   0.412   0.000  0.00  0.00    +0.000 A 
ATOM      5  C   UNL     1       0.714   0.825   0.000  0.00  0.00    +0.000 A 
ATOM      6  C   UNL     1       0.000   0.412   0.000  0.00  0.00    +0.000 A 
ATOM      7  C   UNL     1       0.000  -0.412   0.000  0.00  0.00    +0.000 A 
ATOM      8  C   UNL     1       0.714  -0.825   0.000  0.00  0.00    +0.000 A 
ATOM      9  C   UNL     1       1.429  -0.412   0.000  0.00  0.00    +0.000 A 
BRANCH   4  10
ATOM     10  N   UNL     1       2.143   0.825   0.000  0.00  0.00    +0.000 NA
BRANCH  10  11
ATOM     11  C   UNL     1       2.858   0.412   0.000  0.00  0.00    +0.000 C 
BRANCH  11  20
ATOM     12  C   UNL     1       5.716   0.412   0.000  0.00  0.00    +0.000 A 
ATOM     13  N   UNL     1       6.430   0.825   0.000  0.00  0.00    +0.000 NA
ATOM     14  C   UNL     1       6.430   1.650   0.000  0.00  0.00    +0.000 A 
ATOM     15  N   UNL     1       5.716   2.062   0.000  0.00  0.00    +0.000 NA
ATOM     16  C   UNL     1       5.001   1.650   0.000  0.00  0.00    +0.000 A 
ATOM     17  C   UNL     1       5.001   0.825   0.000  0.00  0.00    +0.000 A 
ATOM     18  N   UNL     1       4.287   2.062   0.000  0.00  0.00    +0.000 NA
ATOM     19  C   UNL     1       3.572   1.650   0.000  0.00  0.00    +0.000 A 
ATOM     20  C   UNL     1       3.572   0.825   0.000  0.00  0.00    +0.000 A 
ATOM     21  N   UNL     1       4.287   0.412   0.000  0.00  0.00    +0.000 NA
ATOM     22  N   UNL     1       5.716  -0.412   0.000  0.00  0.00    +0.000 NA
ATOM     23  N   UNL     1       7.145   2.062   0.000  0.00  0.00    +0.000 NA
ENDBRANCH  11  20
ENDBRANCH  10  11
ENDBRANCH   4  10
ENDBRANCH   1   7
BRANCH   3  24
ATOM     24  CA  UNL     1      -2.143  -0.825   0.000  0.00  0.00    +0.000 C 
BRANCH  24  25
ATOM     25  C   UNL     1      -2.143  -1.650   0.000  0.00  0.00    +0.000 C 
ATOM     26  O   UNL     1      -2.858  -2.062   0.000  0.00  0.00    +0.000 OA
ATOM     27  OXT UNL     1      -1.429  -2.062   0.000  0.00  0.00    +0.000 OA
ENDBRANCH  24  25
BRANCH  24  28
ATOM     28  C   UNL     1      -2.858  -0.412   0.000  0.00  0.00    +0.000 C 
BRANCH  28  29
ATOM     29  C   UNL     1      -2.858   0.412   0.000  0.00  0.00    +0.000 C 
BRANCH  29  30
ATOM     30  C   UNL     1      -3.572   0.825   0.000  0.00  0.00    +0.000 C 
BRANCH  30  31
ATOM     31  N   UNL     1      -4.287   0.412   0.000  0.00  0.00    +0.000 NA
ATOM     32  C   UNL     1      -5.001   0.825   0.000  0.00  0.00    +0.000 C 
ATOM     33  O   UNL     1      -5.001   1.650   0.000  0.00  0.00    +0.000 OA
BRANCH  32  34
ATOM     34  C   UNL     1      -5.716   0.412   0.000  0.00  0.00    +0.000 A 
ATOM     35  C   UNL     1      -6.430   0.825   0.000  0.00  0.00    +0.000 A 
ATOM     36  C   UNL     1      -7.145   0.412   0.000  0.00  0.00    +0.000 A 
ATOM     37  C   UNL     1      -7.145  -0.412   0.000  0.00  0.00    +0.000 A 
ATOM     38  C   UNL     1      -6.430  -0.825   0.000  0.00  0.00    +0.000 A 
ATOM     39  C   UNL     1      -5.716  -0.412   0.000  0.00  0.00    +0.000 A 
BRANCH  35  40
ATOM     40  C   UNL     1      -6.430   1.650   0.000  0.00  0.00    +0.000 C 
ATOM     41  O   UNL     1      -7.145   2.062   0.000  0.00  0.00    +0.000 OA
ATOM     42  O   UNL     1      -5.716   2.062   0.000  0.00  0.00    +0.000 OA
ENDBRANCH  35  40
ENDBRANCH  32  34
ENDBRANCH  30  31
ENDBRANCH  29  30
ENDBRANCH  28  29
ENDBRANCH  24  28
ENDBRANCH   3  24
TORSDOF 12
