REMARK  Name = 
REMARK  4 active torsions:
REMARK  status: ('A' for Active; 'I' for Inactive)
REMARK    1  A    between atoms: O_2  and  N_3
REMARK    2  A    between atoms: C_6  and  C_7
REMARK    3  A    between atoms: C_11  and  C_13
REMARK    4  A    between atoms: C_16  and  C_19
REMARK                            x       y       z     vdW  Elec       q    Type
REMARK                         _______ _______ _______ _____ _____    ______ ____
ROOT
ATOM      1  C   UNL     1       0.319  -5.625   0.000  0.00  0.00    +0.000 A 
ATOM      2  C   UNL     1      -0.166  -6.292   0.000  0.00  0.00    +0.000 A 
ATOM      3  C   UNL     1      -0.987  -6.206   0.000  0.00  0.00    +0.000 A 
ATOM      4  C   UNL     1      -1.322  -5.452   0.000  0.00  0.00    +0.000 A 
ATOM      5  C   UNL     1      -0.837  -4.785   0.000  0.00  0.00    +0.000 A 
ATOM      6  C   UNL     1      -0.017  -4.871   0.000  0.00  0.00    +0.000 A 
ENDROOT
BRANCH   1  13
ATOM      7  N   UNL     1       2.037  -2.949   0.000  0.00  0.00    +0.000 NA
ATOM      8  C   UNL     1       2.037  -3.774   0.000  0.00  0.00    +0.000 C 
ATOM      9  C   UNL     1       2.704  -4.259   0.000  0.00  0.00    +0.000 C 
ATOM     10  C   UNL     1       2.449  -5.044   0.000  0.00  0.00    +0.000 C 
ATOM     11  N   UNL     1       1.624  -5.044   0.000  0.00  0.00    +0.000 N 
ATOM     12  C   UNL     1       1.369  -4.259   0.000  0.00  0.00    +0.000 C 
ATOM     13  C   UNL     1       1.139  -5.711   0.000  0.00  0.00    +0.000 C 
ATOM     14  O   UNL     1       1.475  -6.465   0.000  0.00  0.00    +0.000 OA
BRANCH   7  16
ATOM     15  C   UNL     1       1.322  -1.712   0.000  0.00  0.00    +0.000 C 
ATOM     16  O   UNL     1       1.322  -2.537   0.000  0.00  0.00    +0.000 OA
ENDBRANCH   7  16
BRANCH  10  17
ATOM     17  C   UNL     1       2.934  -5.711   0.000  0.00  0.00    +0.000 C 
ATOM     18  O   UNL     1       2.599  -6.465   0.000  0.00  0.00    +0.000 OA
ENDBRANCH  10  17
ENDBRANCH   1  13
BRANCH   4  19
ATOM     19  C   UNL     1      -2.143  -5.366   0.000  0.00  0.00    +0.000 A 
ATOM     20  C   UNL     1      -2.628  -6.034   0.000  0.00  0.00    +0.000 A 
ATOM     21  C   UNL     1      -2.292  -6.787   0.000  0.00  0.00    +0.000 C 
ATOM     22  C   UNL     1      -3.448  -5.947   0.000  0.00  0.00    +0.000 A 
ATOM     23  C   UNL     1      -3.784  -5.194   0.000  0.00  0.00    +0.000 A 
ATOM     24  C   UNL     1      -3.299  -4.526   0.000  0.00  0.00    +0.000 A 
ATOM     25  C   UNL     1      -2.478  -4.612   0.000  0.00  0.00    +0.000 A 
ENDBRANCH   4  19
TORSDOF 4
