REMARK  Name = 
REMARK  8 active torsions:
REMARK  status: ('A' for Active; 'I' for Inactive)
REMARK    1  A    between atoms: C_2  and  O_3
REMARK    2  A    between atoms: O_3  and  C_4
REMARK    3  A    between atoms: C_4  and  C_6
REMARK    4  A    between atoms: C_6  and  C_22
REMARK    5  A    between atoms: N_9  and  C_12
REMARK    6  A    between atoms: C_12  and  C_13
REMARK    7  A    between atoms: C_13  and  C_14
REMARK    8  A    between atoms: C_14  and  C_15
REMARK                            x       y       z     vdW  Elec       q    Type
REMARK                         _______ _______ _______ _____ _____    ______ ____
ROOT
ATOM      1  C   UNL     1       1.245  -1.044   0.000  0.00  0.00    +0.000 C 
ATOM      2  C   UNL     1       1.959  -1.457   0.000  0.00  0.00    +0.000 C 
ATOM      3  C   UNL     1       1.959  -2.282   0.000  0.00  0.00    +0.000 C 
ATOM      4  N   UNL     1       1.245  -2.695   0.000  0.00  0.00    +0.000 NA
ATOM      5  C   UNL     1       0.530  -2.282   0.000  0.00  0.00    +0.000 C 
ATOM      6  C   UNL     1       0.530  -1.457   0.000  0.00  0.00    +0.000 C 
ENDROOT
BRANCH   1   7
ATOM      7  C   UNL     1       1.775  -0.412   0.000  0.00  0.00    +0.000 A 
ATOM      8  C   UNL     1       1.493   0.363   0.000  0.00  0.00    +0.000 A 
ATOM      9  C   UNL     1       2.023   0.995   0.000  0.00  0.00    +0.000 A 
ATOM     10  C   UNL     1       2.836   0.852   0.000  0.00  0.00    +0.000 A 
ATOM     11  C   UNL     1       3.118   0.076   0.000  0.00  0.00    +0.000 A 
ATOM     12  C   UNL     1       2.587  -0.556   0.000  0.00  0.00    +0.000 A 
ENDBRANCH   1   7
BRANCH   1  13
ATOM     13  C   UNL     1       0.715  -0.412   0.000  0.00  0.00    +0.000 C 
ATOM     14  O   UNL     1      -0.098  -0.556   0.000  0.00  0.00    +0.000 OA
BRANCH  13  15
ATOM     15  O   UNL     1       0.997   0.363   0.000  0.00  0.00    +0.000 OA
BRANCH  15  17
ATOM     16  C   UNL     1       0.749   1.770   0.000  0.00  0.00    +0.000 C 
ATOM     17  C   UNL     1       0.466   0.995   0.000  0.00  0.00    +0.000 C 
ENDBRANCH  15  17
ENDBRANCH  13  15
ENDBRANCH   1  13
BRANCH   4  18
ATOM     18  C   UNL     1       1.245  -3.519   0.000  0.00  0.00    +0.000 C 
BRANCH  18  19
ATOM     19  C   UNL     1       0.530  -3.932   0.000  0.00  0.00    +0.000 C 
BRANCH  19  20
ATOM     20  C   UNL     1       0.530  -4.757   0.000  0.00  0.00    +0.000 C 
ATOM     21  O   UNL     1      -0.184  -5.170   0.000  0.00  0.00    +0.000 OA
BRANCH  20  22
ATOM     22  C   UNL     1       1.245  -5.170   0.000  0.00  0.00    +0.000 A 
ATOM     23  C   UNL     1       1.959  -4.757   0.000  0.00  0.00    +0.000 A 
ATOM     24  C   UNL     1       2.674  -5.170   0.000  0.00  0.00    +0.000 A 
ATOM     25  C   UNL     1       2.674  -5.995   0.000  0.00  0.00    +0.000 A 
ATOM     26  C   UNL     1       1.959  -6.407   0.000  0.00  0.00    +0.000 A 
ATOM     27  C   UNL     1       1.245  -5.995   0.000  0.00  0.00    +0.000 A 
ENDBRANCH  20  22
ENDBRANCH  19  20
ENDBRANCH  18  19
ENDBRANCH   4  18
TORSDOF 8
