REMARK  Name = 
REMARK  7 active torsions:
REMARK  status: ('A' for Active; 'I' for Inactive)
REMARK    1  A    between atoms: C_2  and  C_3
REMARK    2  A    between atoms: C_2  and  N_21
REMARK    3  A    between atoms: C_3  and  N_4
REMARK    4  A    between atoms: N_4  and  C_5
REMARK    5  A    between atoms: C_11  and  C_13
REMARK    6  A    between atoms: C_16  and  C_19
REMARK    7  A    between atoms: N_24  and  C_27
REMARK                            x       y       z     vdW  Elec       q    Type
REMARK                         _______ _______ _______ _____ _____    ______ ____
ROOT
ATOM      1  C   UNL     1       0.715   3.712   0.000  0.00  0.00    +0.000 C 
ATOM      2  C   UNL     1       0.000   3.300   0.000  0.00  0.00    +0.000 C 
ENDROOT
BRANCH   2   3
ATOM      3  N   UNL     1       0.000   2.475   0.000  0.00  0.00    +0.000 NA
ATOM      4  C   UNL     1       0.715   2.062   0.000  0.00  0.00    +0.000 C 
ATOM      5  C   UNL     1       0.715   1.238   0.000  0.00  0.00    +0.000 C 
ATOM      6  N   UNL     1       0.000   0.825   0.000  0.00  0.00    +0.000 N 
ATOM      7  C   UNL     1      -0.715   1.238   0.000  0.00  0.00    +0.000 C 
ATOM      8  C   UNL     1      -0.715   2.062   0.000  0.00  0.00    +0.000 C 
BRANCH   6   9
ATOM      9  C   UNL     1       0.000   0.000   0.000  0.00  0.00    +0.000 A 
ATOM     10  C   UNL     1      -0.715  -0.412   0.000  0.00  0.00    +0.000 A 
ATOM     11  C   UNL     1      -0.715  -1.238   0.000  0.00  0.00    +0.000 A 
ATOM     12  C   UNL     1       0.000  -1.650   0.000  0.00  0.00    +0.000 A 
ATOM     13  C   UNL     1       0.715  -1.238   0.000  0.00  0.00    +0.000 A 
ATOM     14  C   UNL     1       0.715  -0.412   0.000  0.00  0.00    +0.000 A 
ATOM     15  O   UNL     1       1.429   0.000   0.000  0.00  0.00    +0.000 OA
ATOM     16  C   UNL     1       2.143  -0.412   0.000  0.00  0.00    +0.000 C 
ATOM     17  C   UNL     1       2.143  -1.238   0.000  0.00  0.00    +0.000 C 
ATOM     18  O   UNL     1       1.429  -1.650   0.000  0.00  0.00    +0.000 OA
ENDBRANCH   6   9
ENDBRANCH   2   3
BRANCH   2  19
ATOM     19  C   UNL     1      -0.715   3.712   0.000  0.00  0.00    +0.000 C 
BRANCH  19  20
ATOM     20  N   UNL     1      -0.715   4.537   0.000  0.00  0.00    +0.000 N 
ATOM     21  C   UNL     1      -1.429   4.950   0.000  0.00  0.00    +0.000 C 
ATOM     22  O   UNL     1      -2.143   4.537   0.000  0.00  0.00    +0.000 OA
BRANCH  21  23
ATOM     23  C   UNL     1      -1.429   5.775   0.000  0.00  0.00    +0.000 A 
ATOM     24  C   UNL     1      -2.143   6.188   0.000  0.00  0.00    +0.000 A 
ATOM     25  C   UNL     1      -2.143   7.013   0.000  0.00  0.00    +0.000 A 
ATOM     26  C   UNL     1      -1.429   7.425   0.000  0.00  0.00    +0.000 A 
ATOM     27  C   UNL     1      -0.715   7.013   0.000  0.00  0.00    +0.000 A 
ATOM     28  C   UNL     1      -0.715   6.188   0.000  0.00  0.00    +0.000 A 
BRANCH  26  29
ATOM     29  C   UNL     1      -1.429   8.250   0.000  0.00  0.00    +0.000 C 
ATOM     30  N   UNL     1      -1.429   9.075   0.000  0.00  0.00    +0.000 NA
ENDBRANCH  26  29
ENDBRANCH  21  23
BRANCH  20  31
ATOM     31  C   UNL     1       0.000   4.950   0.000  0.00  0.00    +0.000 A 
ATOM     32  C   UNL     1       0.000   5.775   0.000  0.00  0.00    +0.000 A 
ATOM     33  C   UNL     1       0.715   6.188   0.000  0.00  0.00    +0.000 A 
ATOM     34  C   UNL     1       1.429   5.775   0.000  0.00  0.00    +0.000 A 
ATOM     35  C   UNL     1       1.429   4.950   0.000  0.00  0.00    +0.000 A 
ATOM     36  N   UNL     1       0.715   4.537   0.000  0.00  0.00    +0.000 NA
ENDBRANCH  20  31
ENDBRANCH  19  20
ENDBRANCH   2  19
TORSDOF 7
