REMARK  Name = 
REMARK  5 active torsions:
REMARK  status: ('A' for Active; 'I' for Inactive)
REMARK    1  A    between atoms: O_5  and  C_12
REMARK    2  A    between atoms: O_5  and  C_14
REMARK    3  A    between atoms: N_10  and  C_17
REMARK    4  A    between atoms: C_11  and  C_16
REMARK    5  A    between atoms: C_13  and  C_24
REMARK                            x       y       z     vdW  Elec       q    Type
REMARK                         _______ _______ _______ _____ _____    ______ ____
ROOT
ATOM      1  O   UNL     1       0.000  -1.438   0.000  0.00  0.00    +0.000 OA
ENDROOT
BRANCH   1   4
ATOM      2 CL   UNL     1       0.015   0.226   0.000  0.00  0.00    +0.000 Cl
ATOM      3  C   UNL     1      -2.132  -0.188   0.000  0.00  0.00    +0.000 A 
ATOM      4  C   UNL     1      -0.706  -1.016   0.000  0.00  0.00    +0.000 A 
ATOM      5  C   UNL     1      -0.706  -0.188   0.000  0.00  0.00    +0.000 A 
ATOM      6  C   UNL     1      -1.411   0.226   0.000  0.00  0.00    +0.000 A 
ATOM      7  C   UNL     1      -2.132  -1.016   0.000  0.00  0.00    +0.000 A 
ATOM      8  C   UNL     1      -1.411  -1.431   0.000  0.00  0.00    +0.000 A 
BRANCH   3  12
ATOM      9  F   UNL     1      -3.582   0.633   0.000  0.00  0.00    +0.000 F 
ATOM     10  F   UNL     1      -2.447   0.947   0.000  0.00  0.00    +0.000 F 
ATOM     11  F   UNL     1      -3.268  -0.495   0.000  0.00  0.00    +0.000 F 
ATOM     12  C   UNL     1      -2.861   0.226   0.000  0.00  0.00    +0.000 C 
ENDBRANCH   3  12
ENDBRANCH   1   4
BRANCH   1  14
ATOM     13  C   UNL     1       1.434   0.203   0.000  0.00  0.00    +0.000 A 
ATOM     14  C   UNL     1       0.721  -1.032   0.000  0.00  0.00    +0.000 A 
ATOM     15  C   UNL     1       2.148  -0.211   0.000  0.00  0.00    +0.000 A 
ATOM     16  C   UNL     1       0.721  -0.211   0.000  0.00  0.00    +0.000 A 
ATOM     17  C   UNL     1       1.434  -1.438   0.000  0.00  0.00    +0.000 A 
ATOM     18  C   UNL     1       2.148  -1.032   0.000  0.00  0.00    +0.000 A 
BRANCH  13  21
ATOM     19  O   UNL     1       2.148   1.438   0.000  0.00  0.00    +0.000 OA
ATOM     20  O   UNL     1       0.721   1.438   0.000  0.00  0.00    +0.000 OA
ATOM     21  C   UNL     1       1.434   1.032   0.000  0.00  0.00    +0.000 C 
ENDBRANCH  13  21
BRANCH  15  24
ATOM     22  O   UNL     1       2.869   1.032   0.000  0.00  0.00    +0.000 OA
ATOM     23  O   UNL     1       3.582  -0.211   0.000  0.00  0.00    +0.000 OA
ATOM     24  N   UNL     1       2.869   0.203   0.000  0.00  0.00    +0.000 N 
ENDBRANCH  15  24
ENDBRANCH   1  14
TORSDOF 5
