REMARK  Name = 
REMARK  7 active torsions:
REMARK  status: ('A' for Active; 'I' for Inactive)
REMARK    1  A    between atoms: O_2  and  C_3
REMARK    2  A    between atoms: C_5  and  O_6
REMARK    3  A    between atoms: C_11  and  C_28
REMARK    4  A    between atoms: C_12  and  C_22
REMARK    5  A    between atoms: C_13  and  C_14
REMARK    6  A    between atoms: C_14  and  N_15
REMARK    7  A    between atoms: C_31  and  C_34
REMARK                            x       y       z     vdW  Elec       q    Type
REMARK                         _______ _______ _______ _____ _____    ______ ____
ROOT
ATOM      1  C   UNL     1       4.340   2.840   0.000  0.00  0.00    +0.000 A 
ATOM      2  N   UNL     1       4.101   2.050   0.000  0.00  0.00    +0.000 NA
ATOM      3  C   UNL     1       3.297   1.863   0.000  0.00  0.00    +0.000 A 
ATOM      4  C   UNL     1       2.733   2.465   0.000  0.00  0.00    +0.000 A 
ATOM      5  C   UNL     1       2.973   3.254   0.000  0.00  0.00    +0.000 A 
ATOM      6  O   UNL     1       2.296   3.726   0.000  0.00  0.00    +0.000 OA
ATOM      7  C   UNL     1       1.638   3.228   0.000  0.00  0.00    +0.000 C 
ATOM      8  C   UNL     1       0.813   3.212   0.000  0.00  0.00    +0.000 C 
ATOM      9  C   UNL     1       0.574   2.422   0.000  0.00  0.00    +0.000 C 
ATOM     10  C   UNL     1       1.251   1.951   0.000  0.00  0.00    +0.000 C 
ATOM     11  O   UNL     1       1.267   1.126   0.000  0.00  0.00    +0.000 OA
ATOM     12  C   UNL     1       1.909   2.449   0.000  0.00  0.00    +0.000 C 
ATOM     13  O   UNL     1       2.179   1.669   0.000  0.00  0.00    +0.000 OA
ATOM     14  C   UNL     1       3.776   3.442   0.000  0.00  0.00    +0.000 A 
ENDROOT
BRANCH   7  15
ATOM     15  C   UNL     1       1.368   4.008   0.000  0.00  0.00    +0.000 A 
ATOM     16  C   UNL     1       0.558   4.163   0.000  0.00  0.00    +0.000 A 
ATOM     17  C   UNL     1       0.287   4.942   0.000  0.00  0.00    +0.000 A 
ATOM     18  C   UNL     1       0.827   5.566   0.000  0.00  0.00    +0.000 A 
ATOM     19  C   UNL     1       1.637   5.411   0.000  0.00  0.00    +0.000 A 
ATOM     20  C   UNL     1       1.908   4.631   0.000  0.00  0.00    +0.000 A 
BRANCH  18  21
ATOM     21  C   UNL     1       0.557   6.346   0.000  0.00  0.00    +0.000 C 
ATOM     22  N   UNL     1       0.286   7.125   0.000  0.00  0.00    +0.000 NA
ENDBRANCH  18  21
ENDBRANCH   7  15
BRANCH   8  23
ATOM     23  C   UNL     1       0.136   3.683   0.000  0.00  0.00    +0.000 A 
ATOM     24  C   UNL     1      -0.611   3.333   0.000  0.00  0.00    +0.000 A 
ATOM     25  C   UNL     1      -1.287   3.805   0.000  0.00  0.00    +0.000 A 
ATOM     26  C   UNL     1      -1.217   4.627   0.000  0.00  0.00    +0.000 A 
ATOM     27  C   UNL     1      -0.470   4.977   0.000  0.00  0.00    +0.000 A 
ATOM     28  C   UNL     1       0.206   4.505   0.000  0.00  0.00    +0.000 A 
ENDBRANCH   8  23
BRANCH   1  30
ATOM     29  C   UNL     1       5.708   2.425   0.000  0.00  0.00    +0.000 C 
ATOM     30  O   UNL     1       5.144   3.027   0.000  0.00  0.00    +0.000 OA
ENDBRANCH   1  30
BRANCH   3  31
ATOM     31  O   UNL     1       3.058   1.073   0.000  0.00  0.00    +0.000 OA
ATOM     32  C   UNL     1       3.622   0.471   0.000  0.00  0.00    +0.000 C 
ENDBRANCH   3  31
BRANCH   9  33
ATOM     33  C   UNL     1      -0.206   2.152   0.000  0.00  0.00    +0.000 C 
BRANCH  33  34
ATOM     34  N   UNL     1      -0.361   1.342   0.000  0.00  0.00    +0.000 NA
ATOM     35  C   UNL     1       0.263   0.802   0.000  0.00  0.00    +0.000 C 
ATOM     36  C   UNL     1      -1.141   1.071   0.000  0.00  0.00    +0.000 C 
ENDBRANCH  33  34
ENDBRANCH   9  33
TORSDOF 7
