REMARK  Name = 
REMARK  2 active torsions:
REMARK  status: ('A' for Active; 'I' for Inactive)
REMARK    1  A    between atoms: C_10  and  N_17
REMARK    2  A    between atoms: C_13  and  S_21
REMARK                            x       y       z     vdW  Elec       q    Type
REMARK                         _______ _______ _______ _____ _____    ______ ____
ROOT
ATOM      1  C   UNL     1       2.638   0.127   0.000  0.00  0.00    +0.000 A 
ATOM      2  C   UNL     1       2.638  -1.523   0.000  0.00  0.00    +0.000 A 
ATOM      3  C   UNL     1       1.139  -0.030   0.000  0.00  0.00    +0.000 C 
ATOM      4  C   UNL     1       1.923  -0.285   0.000  0.00  0.00    +0.000 A 
ATOM      5  C   UNL     1       1.923  -1.110   0.000  0.00  0.00    +0.000 A 
ATOM      6  C   UNL     1       3.352  -0.285   0.000  0.00  0.00    +0.000 A 
ATOM      7  C   UNL     1       3.352  -1.110   0.000  0.00  0.00    +0.000 A 
ATOM      8  C   UNL     1       1.139  -1.365   0.000  0.00  0.00    +0.000 C 
ATOM      9 CL   UNL     1       4.067   0.127   0.000  0.00  0.00    +0.000 Cl
ATOM     10  N   UNL     1       0.654  -0.698   0.000  0.00  0.00    +0.000 N 
ATOM     11  O   UNL     1       0.884  -2.150   0.000  0.00  0.00    +0.000 OA
ENDROOT
BRANCH  10  17
ATOM     12  C   UNL     1      -1.821  -0.698   0.000  0.00  0.00    +0.000 C 
ATOM     13  C   UNL     1      -1.409  -1.412   0.000  0.00  0.00    +0.000 C 
ATOM     14  C   UNL     1      -1.409   0.017   0.000  0.00  0.00    +0.000 C 
ATOM     15  C   UNL     1      -0.584  -1.412   0.000  0.00  0.00    +0.000 C 
ATOM     16  C   UNL     1      -0.584   0.017   0.000  0.00  0.00    +0.000 C 
ATOM     17  C   UNL     1      -0.171  -0.698   0.000  0.00  0.00    +0.000 C 
ENDBRANCH  10  17
BRANCH   7  21
ATOM     18  N   UNL     1       4.781  -1.935   0.000  0.00  0.00    +0.000 NA
ATOM     19  O   UNL     1       3.654  -2.237   0.000  0.00  0.00    +0.000 OA
ATOM     20  O   UNL     1       4.479  -0.808   0.000  0.00  0.00    +0.000 OA
ATOM     21  S   UNL     1       4.067  -1.523   0.000  0.00  0.00    +0.000 S 
ENDBRANCH   7  21
TORSDOF 2
