REMARK  Name = 
REMARK  7 active torsions:
REMARK  status: ('A' for Active; 'I' for Inactive)
REMARK    1  A    between atoms: C_1  and  C_2
REMARK    2  A    between atoms: C_1  and  C_3
REMARK    3  A    between atoms: C_2  and  C_9
REMARK    4  A    between atoms: C_3  and  C_4
REMARK    5  A    between atoms: C_4  and  C_11
REMARK    6  A    between atoms: C_9  and  O_10
REMARK    7  A    between atoms: O_10  and  P_13
REMARK                            x       y       z     vdW  Elec       q    Type
REMARK                         _______ _______ _______ _____ _____    ______ ____
ROOT
ATOM      1  C   UNL     1       0.357   0.206   0.000  0.00  0.00    +0.000 C 
ATOM      2  O   UNL     1       0.357   1.031   0.000  0.00  0.00    +0.000 OA
ENDROOT
BRANCH   1   3
ATOM      3  C   UNL     1      -0.357  -0.206   0.000  0.00  0.00    +0.000 C 
ATOM      4  O   UNL     1      -0.357  -1.031   0.000  0.00  0.00    +0.000 OA
BRANCH   3   5
ATOM      5  C   UNL     1      -1.072   0.206   0.000  0.00  0.00    +0.000 C 
BRANCH   5   6
ATOM      6  O   UNL     1      -1.786  -0.206   0.000  0.00  0.00    +0.000 OA
BRANCH   6   7
ATOM      7  P   UNL     1      -2.501   0.206   0.000  0.00  0.00    +0.000 P 
ATOM      8  O   UNL     1      -3.215  -0.206   0.000  0.00  0.00    +0.000 OA
ATOM      9  O   UNL     1      -2.501   1.031   0.000  0.00  0.00    +0.000 OA
ATOM     10  O   UNL     1      -2.501  -0.619   0.000  0.00  0.00    +0.000 OA
ENDBRANCH   6   7
ENDBRANCH   5   6
ENDBRANCH   3   5
ENDBRANCH   1   3
BRANCH   1  11
ATOM     11  C   UNL     1       1.072  -0.206   0.000  0.00  0.00    +0.000 C 
ATOM     12  O   UNL     1       1.072  -1.031   0.000  0.00  0.00    +0.000 OA
BRANCH  11  13
ATOM     13  C   UNL     1       1.786   0.206   0.000  0.00  0.00    +0.000 C 
ATOM     14  O   UNL     1       1.786   1.031   0.000  0.00  0.00    +0.000 OA
BRANCH  13  15
ATOM     15  C   UNL     1       2.501  -0.206   0.000  0.00  0.00    +0.000 C 
ATOM     16  O   UNL     1       3.215   0.206   0.000  0.00  0.00    +0.000 OA
ENDBRANCH  13  15
ENDBRANCH  11  13
ENDBRANCH   1  11
TORSDOF 7
