REMARK  Name = 
REMARK  7 active torsions:
REMARK  status: ('A' for Active; 'I' for Inactive)
REMARK    1  A    between atoms: C_3  and  C_6
REMARK    2  A    between atoms: C_5  and  N_7
REMARK    3  A    between atoms: N_7  and  CA_9
REMARK    4  A    between atoms: C_8  and  CA_9
REMARK    5  A    between atoms: CA_9  and  C_13
REMARK    6  A    between atoms: C_13  and  C_17
REMARK    7  A    between atoms: C_17  and  C_20
REMARK                            x       y       z     vdW  Elec       q    Type
REMARK                         _______ _______ _______ _____ _____    ______ ____
ROOT
ATOM      1  N   UNL     1       2.312   0.929   0.000  0.00  0.00    +0.000 N 
ATOM      2  C   UNL     1       1.649   0.429   0.000  0.00  0.00    +0.000 C 
ATOM      3  C   UNL     1       3.015   0.496   0.000  0.00  0.00    +0.000 C 
ATOM      4  N   UNL     1       2.328   1.753   0.000  0.00  0.00    +0.000 NA
ATOM      5  C   UNL     1       0.850   0.633   0.000  0.00  0.00    +0.000 C 
ATOM      6  O   UNL     1       1.803  -0.396   0.000  0.00  0.00    +0.000 OA
ATOM      7  C   UNL     1       3.740   0.891   0.000  0.00  0.00    +0.000 C 
ATOM      8  C   UNL     1       1.691   2.278   0.000  0.00  0.00    +0.000 C 
ATOM      9  C   UNL     1       3.053   2.145   0.000  0.00  0.00    +0.000 C 
ATOM     10  C   UNL     1       0.516   1.379   0.000  0.00  0.00    +0.000 C 
ATOM     11  C   UNL     1       3.761   1.716   0.000  0.00  0.00    +0.000 C 
ATOM     12  C   UNL     1       0.887   2.116   0.000  0.00  0.00    +0.000 C 
ENDROOT
BRANCH   3  13
ATOM     13  C   UNL     1       2.990  -0.341   0.000  0.00  0.00    +0.000 C 
ATOM     14  O   UNL     1       2.266  -0.733   0.000  0.00  0.00    +0.000 OA
ATOM     15  O   UNL     1       3.698  -0.770   0.000  0.00  0.00    +0.000 OA
ENDBRANCH   3  13
BRANCH   5  16
ATOM     16  N   UNL     1       0.300   0.017   0.000  0.00  0.00    +0.000 NA
BRANCH  16  17
ATOM     17  CA  UNL     1      -0.512   0.179   0.000  0.00  0.00    +0.000 C 
BRANCH  17  18
ATOM     18  C   UNL     1      -0.770   0.954   0.000  0.00  0.00    +0.000 C 
ATOM     19  O   UNL     1      -1.583   1.116   0.000  0.00  0.00    +0.000 OA
ATOM     20  OXT UNL     1      -0.225   1.579   0.000  0.00  0.00    +0.000 OA
ENDBRANCH  17  18
BRANCH  17  21
ATOM     21  C   UNL     1      -1.058  -0.441   0.000  0.00  0.00    +0.000 C 
BRANCH  21  22
ATOM     22  C   UNL     1      -1.862  -0.271   0.000  0.00  0.00    +0.000 C 
BRANCH  22  23
ATOM     23  C   UNL     1      -2.407  -0.883   0.000  0.00  0.00    +0.000 A 
ATOM     24  C   UNL     1      -3.219  -0.721   0.000  0.00  0.00    +0.000 A 
ATOM     25  C   UNL     1      -2.157  -1.666   0.000  0.00  0.00    +0.000 A 
ATOM     26  C   UNL     1      -3.761  -1.345   0.000  0.00  0.00    +0.000 A 
ATOM     27  C   UNL     1      -2.695  -2.278   0.000  0.00  0.00    +0.000 A 
ATOM     28  C   UNL     1      -3.498  -2.116   0.000  0.00  0.00    +0.000 A 
ENDBRANCH  22  23
ENDBRANCH  21  22
ENDBRANCH  17  21
ENDBRANCH  16  17
ENDBRANCH   5  16
TORSDOF 7
