REMARK  Name = 
REMARK  8 active torsions:
REMARK  status: ('A' for Active; 'I' for Inactive)
REMARK    1  A    between atoms: C_1  and  O_7
REMARK    2  A    between atoms: C_6  and  C_22
REMARK    3  A    between atoms: O_7  and  C_8
REMARK    4  A    between atoms: C_8  and  C_9
REMARK    5  A    between atoms: C_9  and  C_10
REMARK    6  A    between atoms: N_11  and  C_13
REMARK    7  A    between atoms: C_16  and  C_21
REMARK    8  A    between atoms: C_18  and  C_27
REMARK                            x       y       z     vdW  Elec       q    Type
REMARK                         _______ _______ _______ _____ _____    ______ ____
ROOT
ATOM      1  C   UNL     1      -0.715   0.412   0.000  0.00  0.00    +0.000 C 
ATOM      2  N   UNL     1      -1.429   0.000   0.000  0.00  0.00    +0.000 NA
ATOM      3  O   UNL     1      -0.715   1.237   0.000  0.00  0.00    +0.000 OA
ENDROOT
BRANCH   2   4
ATOM      4  C   UNL     1      -2.143   0.412   0.000  0.00  0.00    +0.000 A 
ATOM      5  C   UNL     1      -2.858   0.000   0.000  0.00  0.00    +0.000 A 
ATOM      6  C   UNL     1      -2.143   1.237   0.000  0.00  0.00    +0.000 A 
ATOM      7  C   UNL     1      -3.572   0.412   0.000  0.00  0.00    +0.000 A 
ATOM      8  C   UNL     1      -2.858   1.650   0.000  0.00  0.00    +0.000 A 
ATOM      9  C   UNL     1      -3.572   1.237   0.000  0.00  0.00    +0.000 A 
BRANCH   7  10
ATOM     10  C   UNL     1      -4.287   0.000   0.000  0.00  0.00    +0.000 C 
ATOM     11  F   UNL     1      -5.001  -0.412   0.000  0.00  0.00    +0.000 F 
ATOM     12  F   UNL     1      -4.699   0.715   0.000  0.00  0.00    +0.000 F 
ATOM     13  F   UNL     1      -3.874  -0.715   0.000  0.00  0.00    +0.000 F 
ENDBRANCH   7  10
BRANCH   9  14
ATOM     14  C   UNL     1      -4.287   1.650   0.000  0.00  0.00    +0.000 C 
ATOM     15  N   UNL     1      -5.001   2.062   0.000  0.00  0.00    +0.000 NA
ENDBRANCH   9  14
ENDBRANCH   2   4
BRANCH   1  16
ATOM     16  C   UNL     1       0.000   0.000   0.000  0.00  0.00    +0.000 C 
ATOM     17  C   UNL     1      -0.412  -0.715   0.000  0.00  0.00    +0.000 C 
ATOM     18  O   UNL     1       0.412   0.715   0.000  0.00  0.00    +0.000 OA
BRANCH  16  19
ATOM     19  C   UNL     1       0.714  -0.412   0.000  0.00  0.00    +0.000 C 
BRANCH  19  20
ATOM     20  O   UNL     1       1.429   0.000   0.000  0.00  0.00    +0.000 OA
BRANCH  20  21
ATOM     21  C   UNL     1       2.143  -0.412   0.000  0.00  0.00    +0.000 A 
ATOM     22  C   UNL     1       2.858   0.000   0.000  0.00  0.00    +0.000 A 
ATOM     23  C   UNL     1       2.143  -1.237   0.000  0.00  0.00    +0.000 A 
ATOM     24  C   UNL     1       3.572  -0.412   0.000  0.00  0.00    +0.000 A 
ATOM     25  C   UNL     1       2.858  -1.650   0.000  0.00  0.00    +0.000 A 
ATOM     26  C   UNL     1       3.572  -1.237   0.000  0.00  0.00    +0.000 A 
BRANCH  26  27
ATOM     27  C   UNL     1       4.287  -1.650   0.000  0.00  0.00    +0.000 C 
ATOM     28  N   UNL     1       5.001  -2.062   0.000  0.00  0.00    +0.000 NA
ENDBRANCH  26  27
ENDBRANCH  20  21
ENDBRANCH  19  20
ENDBRANCH  16  19
ENDBRANCH   1  16
TORSDOF 8
