REMARK  Name = 
REMARK  2 active torsions:
REMARK  status: ('A' for Active; 'I' for Inactive)
REMARK    1  A    between atoms: C_2  and  CA_4
REMARK    2  A    between atoms: N_10  and  C_13
REMARK                            x       y       z     vdW  Elec       q    Type
REMARK                         _______ _______ _______ _____ _____    ______ ____
ROOT
ATOM      1  CA  UNL     1       0.715  -1.238   0.000  0.00  0.00    +0.000 C 
ATOM      2  C   UNL     1       0.715  -0.412   0.000  0.00  0.00    +0.000 C 
ATOM      3  C   UNL     1       1.429   0.000   0.000  0.00  0.00    +0.000 C 
ATOM      4  C   UNL     1       1.429   0.825   0.000  0.00  0.00    +0.000 C 
ATOM      5  C   UNL     1       2.096   1.310   0.000  0.00  0.00    +0.000 C 
ATOM      6  C   UNL     1       1.841   2.095   0.000  0.00  0.00    +0.000 C 
ATOM      7  N   UNL     1       1.016   2.095   0.000  0.00  0.00    +0.000 N 
ATOM      8  C   UNL     1       0.761   1.310   0.000  0.00  0.00    +0.000 C 
ATOM      9  O   UNL     1      -0.023   1.055   0.000  0.00  0.00    +0.000 OA
ATOM     10  C   UNL     1       2.143  -0.412   0.000  0.00  0.00    +0.000 A 
ATOM     11  C   UNL     1       2.858   0.000   0.000  0.00  0.00    +0.000 A 
ATOM     12  C   UNL     1       3.572  -0.412   0.000  0.00  0.00    +0.000 A 
ATOM     13  C   UNL     1       3.572  -1.238   0.000  0.00  0.00    +0.000 A 
ATOM     14 CL   UNL     1       4.287  -1.650   0.000  0.00  0.00    +0.000 Cl
ATOM     15  C   UNL     1       2.858  -1.650   0.000  0.00  0.00    +0.000 A 
ATOM     16  C   UNL     1       2.143  -1.238   0.000  0.00  0.00    +0.000 A 
ATOM     17  N   UNL     1       1.429  -1.650   0.000  0.00  0.00    +0.000 NA
ENDROOT
BRANCH   7  18
ATOM     18  C   UNL     1       0.531   2.762   0.000  0.00  0.00    +0.000 A 
ATOM     19  C   UNL     1      -0.289   2.676   0.000  0.00  0.00    +0.000 A 
ATOM     20  C   UNL     1      -0.774   3.343   0.000  0.00  0.00    +0.000 A 
ATOM     21  C   UNL     1      -0.438   4.097   0.000  0.00  0.00    +0.000 A 
ATOM     22  C   UNL     1       0.382   4.183   0.000  0.00  0.00    +0.000 A 
ATOM     23  C   UNL     1       0.867   3.516   0.000  0.00  0.00    +0.000 A 
ENDBRANCH   7  18
BRANCH   1  25
ATOM     24  O   UNL     1       0.000  -2.475   0.000  0.00  0.00    +0.000 OA
ATOM     25  C   UNL     1       0.000  -1.650   0.000  0.00  0.00    +0.000 C 
ATOM     26  OXT UNL     1      -0.715  -1.238   0.000  0.00  0.00    +0.000 OA
ENDBRANCH   1  25
TORSDOF 2
