REMARK  Name = 
REMARK  16 active torsions:
REMARK  status: ('A' for Active; 'I' for Inactive)
REMARK    1  A    between atoms: O_3  and  C_26
REMARK    2  A    between atoms: O_3  and  C_29
REMARK    3  A    between atoms: O_4  and  C_27
REMARK    4  A    between atoms: O_4  and  C_30
REMARK    5  A    between atoms: N_8  and  C_18
REMARK    6  A    between atoms: N_9  and  C_19
REMARK    7  A    between atoms: N_10  and  N_12
REMARK    8  A    between atoms: N_11  and  N_13
REMARK    9  A    between atoms: C_14  and  C_16
REMARK   10  A    between atoms: C_15  and  C_17
REMARK   11  A    between atoms: C_16  and  C_18
REMARK   12  A    between atoms: C_17  and  C_19
REMARK   13  A    between atoms: C_18  and  C_24
REMARK   14  A    between atoms: C_19  and  C_25
REMARK   15  A    between atoms: C_29  and  C_31
REMARK   16  A    between atoms: C_30  and  C_32
REMARK                            x       y       z     vdW  Elec       q    Type
REMARK                         _______ _______ _______ _____ _____    ______ ____
ROOT
ATOM      1  O   UNL     1      -0.714  -0.412   0.000  0.00  0.00    +0.000 OA
ATOM      2  N   UNL     1       0.000   0.825   0.000  0.00  0.00    +0.000 N 
ATOM      3  N   UNL     1      -1.429   0.825   0.000  0.00  0.00    +0.000 N 
ATOM      4  C   UNL     1      -0.714   0.412   0.000  0.00  0.00    +0.000 C 
ATOM      5  H   UNL     1       0.000   1.337   0.000  0.00  0.00    +0.000 HD
ATOM      6  H   UNL     1      -1.429   1.337   0.000  0.00  0.00    +0.000 HD
ENDROOT
BRANCH   2   8
ATOM      7  O   UNL     1       1.429   1.650   0.000  0.00  0.00    +0.000 OA
ATOM      8  N   UNL     1       0.714   0.412   0.000  0.00  0.00    +0.000 N 
ATOM      9  C   UNL     1       1.429   0.825   0.000  0.00  0.00    +0.000 C 
ATOM     10  H   UNL     1       0.714  -0.099   0.000  0.00  0.00    +0.000 HD
BRANCH   9  11
ATOM     11  C   UNL     1       2.143   0.412   0.000  0.00  0.00    +0.000 C 
BRANCH  11  13
ATOM     12  O   UNL     1       2.143   2.062   0.000  0.00  0.00    +0.000 OA
ATOM     13  N   UNL     1       2.858   0.825   0.000  0.00  0.00    +0.000 N 
ATOM     14  C   UNL     1       2.858   1.650   0.000  0.00  0.00    +0.000 C 
ATOM     15  H   UNL     1       3.301   0.569   0.000  0.00  0.00    +0.000 HD
BRANCH  14  16
ATOM     16  O   UNL     1       3.572   2.062   0.000  0.00  0.00    +0.000 OA
BRANCH  16  17
ATOM     17  C   UNL     1       3.572   2.888   0.000  0.00  0.00    +0.000 C 
BRANCH  17  18
ATOM     18  C   UNL     1       4.287   3.300   0.000  0.00  0.00    +0.000 A 
ATOM     19  C   UNL     1       4.287   4.125   0.000  0.00  0.00    +0.000 A 
ATOM     20  C   UNL     1       5.001   2.888   0.000  0.00  0.00    +0.000 A 
ATOM     21  C   UNL     1       5.001   4.537   0.000  0.00  0.00    +0.000 A 
ATOM     22  C   UNL     1       5.716   3.300   0.000  0.00  0.00    +0.000 A 
ATOM     23  C   UNL     1       5.716   4.125   0.000  0.00  0.00    +0.000 A 
ENDBRANCH  17  18
ENDBRANCH  16  17
ENDBRANCH  14  16
ENDBRANCH  11  13
BRANCH  11  24
ATOM     24  C   UNL     1       2.143  -0.412   0.000  0.00  0.00    +0.000 C 
BRANCH  24  25
ATOM     25  C   UNL     1       2.858  -0.825   0.000  0.00  0.00    +0.000 C 
ATOM     26  C   UNL     1       2.858  -1.650   0.000  0.00  0.00    +0.000 C 
ATOM     27  C   UNL     1       3.572  -0.412   0.000  0.00  0.00    +0.000 C 
ENDBRANCH  24  25
ENDBRANCH  11  24
ENDBRANCH   9  11
ENDBRANCH   2   8
BRANCH   3  29
ATOM     28  O   UNL     1      -2.858   1.650   0.000  0.00  0.00    +0.000 OA
ATOM     29  N   UNL     1      -2.143   0.412   0.000  0.00  0.00    +0.000 N 
ATOM     30  C   UNL     1      -2.858   0.825   0.000  0.00  0.00    +0.000 C 
ATOM     31  H   UNL     1      -2.143  -0.099   0.000  0.00  0.00    +0.000 HD
BRANCH  30  32
ATOM     32  C   UNL     1      -3.572   0.412   0.000  0.00  0.00    +0.000 C 
BRANCH  32  34
ATOM     33  O   UNL     1      -5.001  -0.412   0.000  0.00  0.00    +0.000 OA
ATOM     34  N   UNL     1      -3.572  -0.412   0.000  0.00  0.00    +0.000 N 
ATOM     35  C   UNL     1      -4.287  -0.825   0.000  0.00  0.00    +0.000 C 
ATOM     36  H   UNL     1      -3.129  -0.668   0.000  0.00  0.00    +0.000 HD
BRANCH  35  37
ATOM     37  O   UNL     1      -4.287  -1.650   0.000  0.00  0.00    +0.000 OA
BRANCH  37  38
ATOM     38  C   UNL     1      -5.001  -2.062   0.000  0.00  0.00    +0.000 C 
BRANCH  38  39
ATOM     39  C   UNL     1      -5.001  -2.888   0.000  0.00  0.00    +0.000 A 
ATOM     40  C   UNL     1      -4.287  -3.300   0.000  0.00  0.00    +0.000 A 
ATOM     41  C   UNL     1      -5.716  -3.300   0.000  0.00  0.00    +0.000 A 
ATOM     42  C   UNL     1      -4.287  -4.125   0.000  0.00  0.00    +0.000 A 
ATOM     43  C   UNL     1      -5.716  -4.125   0.000  0.00  0.00    +0.000 A 
ATOM     44  C   UNL     1      -5.001  -4.537   0.000  0.00  0.00    +0.000 A 
ENDBRANCH  38  39
ENDBRANCH  37  38
ENDBRANCH  35  37
ENDBRANCH  32  34
BRANCH  32  45
ATOM     45  C   UNL     1      -4.287   0.825   0.000  0.00  0.00    +0.000 C 
BRANCH  45  46
ATOM     46  C   UNL     1      -4.287   1.650   0.000  0.00  0.00    +0.000 C 
ATOM     47  C   UNL     1      -5.001   2.062   0.000  0.00  0.00    +0.000 C 
ATOM     48  C   UNL     1      -3.572   2.062   0.000  0.00  0.00    +0.000 C 
ENDBRANCH  45  46
ENDBRANCH  32  45
ENDBRANCH  30  32
ENDBRANCH   3  29
TORSDOF 16
