REMARK  Name = 
REMARK  1 active torsions:
REMARK  status: ('A' for Active; 'I' for Inactive)
REMARK    1  A    between atoms: N_6  and  C_7
REMARK                            x       y       z     vdW  Elec       q    Type
REMARK                         _______ _______ _______ _____ _____    ______ ____
ROOT
ATOM      1  C   UNL     1       0.412   1.515   0.000  0.00  0.00    +0.000 A 
ATOM      2  N   UNL     1      -0.667   0.731   0.000  0.00  0.00    +0.000 N 
ATOM      3  C   UNL     1      -1.464   0.517   0.000  0.00  0.00    +0.000 C 
ATOM      4  C   UNL     1      -0.412   1.515   0.000  0.00  0.00    +0.000 A 
ATOM      5  C   UNL     1      -0.825   2.229   0.000  0.00  0.00    +0.000 C 
ATOM      6  N   UNL     1       0.000   0.245   0.000  0.00  0.00    +0.000 N 
ATOM      7  C   UNL     1       0.667   0.731   0.000  0.00  0.00    +0.000 A 
ATOM      8  O   UNL     1       1.464   0.517   0.000  0.00  0.00    +0.000 OA
ENDROOT
BRANCH   6   9
ATOM      9  C   UNL     1       0.000  -0.580   0.000  0.00  0.00    +0.000 A 
ATOM     10  C   UNL     1       0.000  -2.229   0.000  0.00  0.00    +0.000 A 
ATOM     11  C   UNL     1       0.714  -1.817   0.000  0.00  0.00    +0.000 A 
ATOM     12  C   UNL     1       0.714  -0.992   0.000  0.00  0.00    +0.000 A 
ATOM     13  C   UNL     1      -0.714  -0.992   0.000  0.00  0.00    +0.000 A 
ATOM     14  C   UNL     1      -0.714  -1.817   0.000  0.00  0.00    +0.000 A 
ENDBRANCH   6   9
TORSDOF 1
