REMARK  Name = 
REMARK  4 active torsions:
REMARK  status: ('A' for Active; 'I' for Inactive)
REMARK    1  A    between atoms: O_2  and  C_3
REMARK    2  A    between atoms: C_8  and  C_9
REMARK    3  A    between atoms: N_16  and  C_17
REMARK    4  A    between atoms: C_17  and  C_18
REMARK                            x       y       z     vdW  Elec       q    Type
REMARK                         _______ _______ _______ _____ _____    ______ ____
ROOT
ATOM      1  C   UNL     1       2.143  -1.238   0.000  0.00  0.00    +0.000 A 
ATOM      2  C   UNL     1       2.143  -0.412   0.000  0.00  0.00    +0.000 A 
ATOM      3  C   UNL     1       2.858   0.000   0.000  0.00  0.00    +0.000 A 
ATOM      4  O   UNL     1       2.858   0.825   0.000  0.00  0.00    +0.000 OA
ATOM      5  N   UNL     1       3.572  -0.412   0.000  0.00  0.00    +0.000 NA
ATOM      6  C   UNL     1       3.572  -1.238   0.000  0.00  0.00    +0.000 A 
ATOM      7  S   UNL     1       4.287  -1.650   0.000  0.00  0.00    +0.000 S 
ATOM      8  N   UNL     1       2.858  -1.650   0.000  0.00  0.00    +0.000 N 
ENDROOT
BRANCH   1  14
ATOM      9  C   UNL     1       0.715  -1.238   0.000  0.00  0.00    +0.000 A 
ATOM     10  C   UNL     1       0.000  -1.650   0.000  0.00  0.00    +0.000 A 
ATOM     11  C   UNL     1       0.000  -2.475   0.000  0.00  0.00    +0.000 A 
ATOM     12  C   UNL     1       0.715  -2.888   0.000  0.00  0.00    +0.000 A 
ATOM     13  C   UNL     1       1.429  -2.475   0.000  0.00  0.00    +0.000 A 
ATOM     14  C   UNL     1       1.429  -1.650   0.000  0.00  0.00    +0.000 A 
ATOM     15 CL   UNL     1       0.715  -3.712   0.000  0.00  0.00    +0.000 Cl
BRANCH   9  17
ATOM     16  C   UNL     1       0.000   0.000   0.000  0.00  0.00    +0.000 C 
ATOM     17  O   UNL     1       0.715  -0.412   0.000  0.00  0.00    +0.000 OA
ENDBRANCH   9  17
ENDBRANCH   1  14
BRANCH   8  18
ATOM     18  C   UNL     1       2.858  -2.475   0.000  0.00  0.00    +0.000 C 
BRANCH  18  19
ATOM     19  C   UNL     1       3.572  -2.888   0.000  0.00  0.00    +0.000 C 
ATOM     20  O   UNL     1       4.287  -2.475   0.000  0.00  0.00    +0.000 OA
ATOM     21  N   UNL     1       3.572  -3.712   0.000  0.00  0.00    +0.000 NA
ENDBRANCH  18  19
ENDBRANCH   8  18
TORSDOF 4
