REMARK  Name = 
REMARK  1 active torsions:
REMARK  status: ('A' for Active; 'I' for Inactive)
REMARK    1  A    between atoms: C_1  and  C_2
REMARK                            x       y       z     vdW  Elec       q    Type
REMARK                         _______ _______ _______ _____ _____    ______ ____
ROOT
ATOM      1  C   UNL     1      -0.392   0.041   0.000  0.00  0.00    +0.000 A 
ATOM      2  C   UNL     1      -1.135   0.454   0.000  0.00  0.00    +0.000 A 
ATOM      3  C   UNL     1      -0.392  -0.784   0.000  0.00  0.00    +0.000 A 
ATOM      4  C   UNL     1      -1.836   0.041   0.000  0.00  0.00    +0.000 A 
ATOM      5  C   UNL     1      -1.135  -1.196   0.000  0.00  0.00    +0.000 A 
ATOM      6  C   UNL     1      -1.836  -0.784   0.000  0.00  0.00    +0.000 A 
ENDROOT
BRANCH   1   7
ATOM      7  C   UNL     1       0.309   0.454   0.000  0.00  0.00    +0.000 C 
ATOM      8  C   UNL     1       1.134   0.454   0.000  0.00  0.00    +0.000 C 
ATOM      9  C   UNL     1       0.722   1.196   0.000  0.00  0.00    +0.000 C 
ATOM     10  N   UNL     1       1.836   0.041   0.000  0.00  0.00    +0.000 NA
ENDBRANCH   1   7
TORSDOF 1
