REMARK  Name = 
REMARK  6 active torsions:
REMARK  status: ('A' for Active; 'I' for Inactive)
REMARK    1  A    between atoms: C_2  and  O_3
REMARK    2  A    between atoms: O_3  and  C_4
REMARK    3  A    between atoms: C_7  and  C_10
REMARK    4  A    between atoms: C_10  and  C_11
REMARK    5  A    between atoms: C_13  and  C_18
REMARK    6  A    between atoms: C_22  and  C_26
REMARK                            x       y       z     vdW  Elec       q    Type
REMARK                         _______ _______ _______ _____ _____    ______ ____
ROOT
ATOM      1  C   UNL     1      -0.351  -2.035   0.000  0.00  0.00    +0.000 A 
ATOM      2  C   UNL     1      -0.168  -1.231   0.000  0.00  0.00    +0.000 A 
ATOM      3  C   UNL     1       0.621  -0.988   0.000  0.00  0.00    +0.000 A 
ATOM      4  C   UNL     1       1.226  -1.549   0.000  0.00  0.00    +0.000 A 
ATOM      5  C   UNL     1       1.042  -2.353   0.000  0.00  0.00    +0.000 A 
ATOM      6  C   UNL     1       0.254  -2.596   0.000  0.00  0.00    +0.000 A 
ATOM      7 CL   UNL     1       0.070  -3.401   0.000  0.00  0.00    +0.000 Cl
ENDROOT
BRANCH   3   8
ATOM      8  C   UNL     1       0.804  -0.183   0.000  0.00  0.00    +0.000 C 
ATOM      9  C   UNL     1       1.609   0.000   0.000  0.00  0.00    +0.000 C 
ATOM     10  C   UNL     1       1.967   0.743   0.000  0.00  0.00    +0.000 C 
ATOM     11  C   UNL     1       1.609   1.487   0.000  0.00  0.00    +0.000 C 
ATOM     12  C   UNL     1       0.804   1.670   0.000  0.00  0.00    +0.000 C 
ATOM     13  O   UNL     1       1.036   0.743   0.000  0.00  0.00    +0.000 OA
ATOM     14  C   UNL     1       0.159   1.156   0.000  0.00  0.00    +0.000 C 
ATOM     15  O   UNL     1       0.159   0.331   0.000  0.00  0.00    +0.000 OA
ATOM     16  O   UNL     1       2.123   2.132   0.000  0.00  0.00    +0.000 OA
ATOM     17  O   UNL     1       2.792   0.743   0.000  0.00  0.00    +0.000 OA
ATOM     18  O   UNL     1       2.123  -0.645   0.000  0.00  0.00    +0.000 OA
BRANCH  12  19
ATOM     19  C   UNL     1       0.621   2.475   0.000  0.00  0.00    +0.000 C 
ATOM     20  O   UNL     1      -0.168   2.718   0.000  0.00  0.00    +0.000 OA
ENDBRANCH  12  19
ENDBRANCH   3   8
BRANCH   1  21
ATOM     21  C   UNL     1      -1.139  -2.279   0.000  0.00  0.00    +0.000 C 
BRANCH  21  25
ATOM     22  C   UNL     1      -1.690  -4.691   0.000  0.00  0.00    +0.000 A 
ATOM     23  C   UNL     1      -2.295  -4.130   0.000  0.00  0.00    +0.000 A 
ATOM     24  C   UNL     1      -2.111  -3.326   0.000  0.00  0.00    +0.000 A 
ATOM     25  C   UNL     1      -1.323  -3.083   0.000  0.00  0.00    +0.000 A 
ATOM     26  C   UNL     1      -0.718  -3.644   0.000  0.00  0.00    +0.000 A 
ATOM     27  C   UNL     1      -0.902  -4.448   0.000  0.00  0.00    +0.000 A 
BRANCH  22  28
ATOM     28  O   UNL     1      -1.874  -5.496   0.000  0.00  0.00    +0.000 OA
BRANCH  28  30
ATOM     29  C   UNL     1      -1.453  -6.861   0.000  0.00  0.00    +0.000 C 
ATOM     30  C   UNL     1      -1.269  -6.057   0.000  0.00  0.00    +0.000 C 
ENDBRANCH  28  30
ENDBRANCH  22  28
ENDBRANCH  21  25
ENDBRANCH   1  21
TORSDOF 6
