REMARK  Name = 
REMARK  16 active torsions:
REMARK  status: ('A' for Active; 'I' for Inactive)
REMARK    1  A    between atoms: C_1  and  C_3
REMARK    2  A    between atoms: C_1  and  N_15
REMARK    3  A    between atoms: C_2  and  C_4
REMARK    4  A    between atoms: C_2  and  N_15
REMARK    5  A    between atoms: C_3  and  N_16
REMARK    6  A    between atoms: C_4  and  N_17
REMARK    7  A    between atoms: C_5  and  C_10
REMARK    8  A    between atoms: C_5  and  N_15
REMARK    9  A    between atoms: C_6  and  C_11
REMARK   10  A    between atoms: C_6  and  N_16
REMARK   11  A    between atoms: C_7  and  C_12
REMARK   12  A    between atoms: C_7  and  N_16
REMARK   13  A    between atoms: C_8  and  C_13
REMARK   14  A    between atoms: C_8  and  N_17
REMARK   15  A    between atoms: C_9  and  C_14
REMARK   16  A    between atoms: C_9  and  N_17
REMARK                            x       y       z     vdW  Elec       q    Type
REMARK                         _______ _______ _______ _____ _____    ______ ____
ROOT
ATOM      1  N   UNL     1       0.000   0.206   0.000  0.00  0.00    +0.000 NA
ENDROOT
BRANCH   1   2
ATOM      2  C   UNL     1       0.000   1.031   0.000  0.00  0.00    +0.000 C 
BRANCH   2   3
ATOM      3  C   UNL     1       0.714   1.444   0.000  0.00  0.00    +0.000 C 
ATOM      4  O   UNL     1       0.714   2.269   0.000  0.00  0.00    +0.000 OA
ATOM      5  O   UNL     1       1.429   1.031   0.000  0.00  0.00    +0.000 OA
ENDBRANCH   2   3
ENDBRANCH   1   2
BRANCH   1   6
ATOM      6  C   UNL     1       0.714  -0.206   0.000  0.00  0.00    +0.000 C 
BRANCH   6   7
ATOM      7  C   UNL     1       1.429   0.206   0.000  0.00  0.00    +0.000 C 
BRANCH   7   8
ATOM      8  N   UNL     1       2.143  -0.206   0.000  0.00  0.00    +0.000 NA
BRANCH   8   9
ATOM      9  C   UNL     1       2.858   0.206   0.000  0.00  0.00    +0.000 C 
BRANCH   9  10
ATOM     10  C   UNL     1       2.858   1.031   0.000  0.00  0.00    +0.000 C 
ATOM     11  O   UNL     1       2.143   1.444   0.000  0.00  0.00    +0.000 OA
ATOM     12  O   UNL     1       3.572   1.444   0.000  0.00  0.00    +0.000 OA
ENDBRANCH   9  10
ENDBRANCH   8   9
BRANCH   8  13
ATOM     13  C   UNL     1       2.143  -1.031   0.000  0.00  0.00    +0.000 C 
BRANCH  13  14
ATOM     14  C   UNL     1       2.858  -1.444   0.000  0.00  0.00    +0.000 C 
ATOM     15  O   UNL     1       3.572  -1.031   0.000  0.00  0.00    +0.000 OA
ATOM     16  O   UNL     1       2.858  -2.269   0.000  0.00  0.00    +0.000 OA
ENDBRANCH  13  14
ENDBRANCH   8  13
ENDBRANCH   7   8
ENDBRANCH   6   7
ENDBRANCH   1   6
BRANCH   1  17
ATOM     17  C   UNL     1      -0.714  -0.206   0.000  0.00  0.00    +0.000 C 
BRANCH  17  18
ATOM     18  C   UNL     1      -1.429   0.206   0.000  0.00  0.00    +0.000 C 
BRANCH  18  19
ATOM     19  N   UNL     1      -2.143  -0.206   0.000  0.00  0.00    +0.000 NA
BRANCH  19  20
ATOM     20  C   UNL     1      -2.858   0.206   0.000  0.00  0.00    +0.000 C 
BRANCH  20  21
ATOM     21  C   UNL     1      -2.858   1.031   0.000  0.00  0.00    +0.000 C 
ATOM     22  O   UNL     1      -2.143   1.444   0.000  0.00  0.00    +0.000 OA
ATOM     23  O   UNL     1      -3.572   1.444   0.000  0.00  0.00    +0.000 OA
ENDBRANCH  20  21
ENDBRANCH  19  20
BRANCH  19  24
ATOM     24  C   UNL     1      -2.143  -1.031   0.000  0.00  0.00    +0.000 C 
BRANCH  24  25
ATOM     25  C   UNL     1      -2.858  -1.444   0.000  0.00  0.00    +0.000 C 
ATOM     26  O   UNL     1      -2.858  -2.269   0.000  0.00  0.00    +0.000 OA
ATOM     27  O   UNL     1      -3.572  -1.031   0.000  0.00  0.00    +0.000 OA
ENDBRANCH  24  25
ENDBRANCH  19  24
ENDBRANCH  18  19
ENDBRANCH  17  18
ENDBRANCH   1  17
TORSDOF 16
REMARK  Name = 
REMARK  16 active torsions:
REMARK  status: ('A' for Active; 'I' for Inactive)
REMARK    1  A    between atoms: C_1  and  C_3
REMARK    2  A    between atoms: C_1  and  N_15
REMARK    3  A    between atoms: C_2  and  C_4
REMARK    4  A    between atoms: C_2  and  N_15
REMARK    5  A    between atoms: C_3  and  N_16
REMARK    6  A    between atoms: C_4  and  N_17
REMARK    7  A    between atoms: C_5  and  C_10
REMARK    8  A    between atoms: C_5  and  N_15
REMARK    9  A    between atoms: C_6  and  C_11
REMARK   10  A    between atoms: C_6  and  N_16
REMARK   11  A    between atoms: C_7  and  C_12
REMARK   12  A    between atoms: C_7  and  N_16
REMARK   13  A    between atoms: C_8  and  C_13
REMARK   14  A    between atoms: C_8  and  N_17
REMARK   15  A    between atoms: C_9  and  C_14
REMARK   16  A    between atoms: C_9  and  N_17
REMARK                            x       y       z     vdW  Elec       q    Type
REMARK                         _______ _______ _______ _____ _____    ______ ____
ROOT
ATOM      1 IN   UNL     1       2.143   0.619   0.000  0.00  0.00    +0.000 In
ENDROOT
TORSDOF 0
