REMARK  Name = 
REMARK  21 active torsions:
REMARK  status: ('A' for Active; 'I' for Inactive)
REMARK    1  A    between atoms: P_1  and  O_5
REMARK    2  A    between atoms: P_2  and  O_7
REMARK    3  A    between atoms: P_2  and  O_10
REMARK    4  A    between atoms: P_3  and  O_10
REMARK    5  A    between atoms: P_3  and  O_11
REMARK    6  A    between atoms: O_5  and  C_30
REMARK    7  A    between atoms: O_7  and  C_34
REMARK    8  A    between atoms: O_11  and  C_40
REMARK    9  A    between atoms: N_22  and  C_33
REMARK   10  A    between atoms: N_26  and  C_43
REMARK   11  A    between atoms: N_27  and  C_46
REMARK   12  A    between atoms: N_28  and  C_49
REMARK   13  A    between atoms: N_29  and  C_51
REMARK   14  A    between atoms: C_32  and  C_34
REMARK   15  A    between atoms: C_38  and  C_39
REMARK   16  A    between atoms: C_38  and  C_40
REMARK   17  A    between atoms: C_39  and  C_44
REMARK   18  A    between atoms: C_46  and  C_47
REMARK   19  A    between atoms: C_47  and  C_48
REMARK   20  A    between atoms: C_49  and  C_50
REMARK   21  A    between atoms: C_50  and  C_51
REMARK                            x       y       z     vdW  Elec       q    Type
REMARK                         _______ _______ _______ _____ _____    ______ ____
ROOT
ATOM      1  P   UNL     1      -3.391   1.714   0.000  0.00  0.00    +0.000 P 
ATOM      2  O   UNL     1      -2.908   1.046   0.000  0.00  0.00    +0.000 OA
ATOM      3  O   UNL     1      -3.875   2.382   0.000  0.00  0.00    +0.000 OA
ENDROOT
BRANCH   1   4
ATOM      4  O   UNL     1      -4.060   1.230   0.000  0.00  0.00    +0.000 OA
BRANCH   4   5
ATOM      5  C   UNL     1      -4.813   1.567   0.000  0.00  0.00    +0.000 C 
BRANCH   5  10
ATOM      6  O   UNL     1      -5.482   0.258   0.000  0.00  0.00    +0.000 OA
ATOM      7  O   UNL     1      -7.577   0.674   0.000  0.00  0.00    +0.000 OA
ATOM      8  C   UNL     1      -6.265   1.340   0.000  0.00  0.00    +0.000 C 
ATOM      9  C   UNL     1      -6.751   0.673   0.000  0.00  0.00    +0.000 C 
ATOM     10  C   UNL     1      -5.481   1.083   0.000  0.00  0.00    +0.000 C 
ATOM     11  C   UNL     1      -6.268   0.005   0.000  0.00  0.00    +0.000 C 
BRANCH  11  12
ATOM     12  N   UNL     1      -6.524  -0.779   0.000  0.00  0.00    +0.000 N 
ATOM     13  N   UNL     1      -6.524  -2.107   0.000  0.00  0.00    +0.000 NA
ATOM     14  N   UNL     1      -8.019  -0.618   0.000  0.00  0.00    +0.000 NA
ATOM     15  N   UNL     1      -8.734  -1.856   0.000  0.00  0.00    +0.000 NA
ATOM     16  C   UNL     1      -7.304  -1.031   0.000  0.00  0.00    +0.000 A 
ATOM     17  C   UNL     1      -6.042  -1.443   0.000  0.00  0.00    +0.000 A 
ATOM     18  C   UNL     1      -7.304  -1.856   0.000  0.00  0.00    +0.000 A 
ATOM     19  C   UNL     1      -8.019  -2.268   0.000  0.00  0.00    +0.000 A 
ATOM     20  C   UNL     1      -8.734  -1.031   0.000  0.00  0.00    +0.000 A 
BRANCH  19  21
ATOM     21  N   UNL     1      -8.019  -3.093   0.000  0.00  0.00    +0.000 N 
ATOM     22  H   UNL     1      -8.462  -3.349   0.000  0.00  0.00    +0.000 HD
ATOM     23  H   UNL     1      -7.576  -3.349   0.000  0.00  0.00    +0.000 HD
ENDBRANCH  19  21
ENDBRANCH  11  12
BRANCH   8  24
ATOM     24  O   UNL     1      -6.519   2.125   0.000  0.00  0.00    +0.000 OA
BRANCH  24  25
ATOM     25  P   UNL     1      -5.966   2.737   0.000  0.00  0.00    +0.000 P 
ATOM     26  O   UNL     1      -6.578   3.290   0.000  0.00  0.00    +0.000 OA
ATOM     27  O   UNL     1      -5.413   3.349   0.000  0.00  0.00    +0.000 OA
ATOM     28  O   UNL     1      -5.354   2.184   0.000  0.00  0.00    +0.000 OA
ENDBRANCH  24  25
ENDBRANCH   8  24
ENDBRANCH   5  10
ENDBRANCH   4   5
ENDBRANCH   1   4
BRANCH   1  29
ATOM     29  O   UNL     1      -2.723   2.198   0.000  0.00  0.00    +0.000 OA
BRANCH  29  30
ATOM     30  P   UNL     1      -1.970   1.861   0.000  0.00  0.00    +0.000 P 
ATOM     31  O   UNL     1      -1.633   2.614   0.000  0.00  0.00    +0.000 OA
ATOM     32  O   UNL     1      -2.307   1.108   0.000  0.00  0.00    +0.000 OA
BRANCH  30  33
ATOM     33  O   UNL     1      -1.217   1.524   0.000  0.00  0.00    +0.000 OA
BRANCH  33  34
ATOM     34  C   UNL     1      -0.548   2.008   0.000  0.00  0.00    +0.000 C 
BRANCH  34  35
ATOM     35  C   UNL     1       0.205   1.671   0.000  0.00  0.00    +0.000 C 
ATOM     36  C   UNL     1      -0.132   0.918   0.000  0.00  0.00    +0.000 C 
ATOM     37  C   UNL     1       0.542   2.424   0.000  0.00  0.00    +0.000 C 
BRANCH  35  39
ATOM     38  O   UNL     1       1.043   0.514   0.000  0.00  0.00    +0.000 OA
ATOM     39  C   UNL     1       0.958   1.334   0.000  0.00  0.00    +0.000 C 
BRANCH  39  42
ATOM     40  O   UNL     1       1.541   2.639   0.000  0.00  0.00    +0.000 OA
ATOM     41  N   UNL     1       2.379   1.481   0.000  0.00  0.00    +0.000 N 
ATOM     42  C   UNL     1       1.626   1.818   0.000  0.00  0.00    +0.000 C 
ATOM     43  H   UNL     1       2.432   0.972   0.000  0.00  0.00    +0.000 HD
BRANCH  41  44
ATOM     44  C   UNL     1       3.048   1.965   0.000  0.00  0.00    +0.000 C 
BRANCH  44  45
ATOM     45  C   UNL     1       3.801   1.628   0.000  0.00  0.00    +0.000 C 
BRANCH  45  48
ATOM     46  O   UNL     1       4.384   2.933   0.000  0.00  0.00    +0.000 OA
ATOM     47  N   UNL     1       5.222   1.775   0.000  0.00  0.00    +0.000 N 
ATOM     48  C   UNL     1       4.469   2.112   0.000  0.00  0.00    +0.000 C 
ATOM     49  H   UNL     1       5.275   1.266   0.000  0.00  0.00    +0.000 HD
BRANCH  47  50
ATOM     50  C   UNL     1       5.891   2.259   0.000  0.00  0.00    +0.000 C 
BRANCH  50  51
ATOM     51  C   UNL     1       6.644   1.922   0.000  0.00  0.00    +0.000 C 
BRANCH  51  52
ATOM     52  C   UNL     1       7.312   2.406   0.000  0.00  0.00    +0.000 C 
BRANCH  52  55
ATOM     53  O   UNL     1       8.734   2.553   0.000  0.00  0.00    +0.000 OA
ATOM     54  O   UNL     1       8.150   1.248   0.000  0.00  0.00    +0.000 OA
ATOM     55  N   UNL     1       8.065   2.069   0.000  0.00  0.00    +0.000 N 
ENDBRANCH  52  55
ENDBRANCH  51  52
ENDBRANCH  50  51
ENDBRANCH  47  50
ENDBRANCH  45  48
ENDBRANCH  44  45
ENDBRANCH  41  44
ENDBRANCH  39  42
ENDBRANCH  35  39
ENDBRANCH  34  35
ENDBRANCH  33  34
ENDBRANCH  30  33
ENDBRANCH  29  30
ENDBRANCH   1  29
TORSDOF 21
