REMARK  Name = 
REMARK  4 active torsions:
REMARK  status: ('A' for Active; 'I' for Inactive)
REMARK    1  A    between atoms: C_4  and  C_7
REMARK    2  A    between atoms: C_15  and  N_16
REMARK    3  A    between atoms: C_17  and  C_19
REMARK    4  A    between atoms: C_23  and  N_25
REMARK                            x       y       z     vdW  Elec       q    Type
REMARK                         _______ _______ _______ _____ _____    ______ ____
ROOT
ATOM      1  C   UNL     1      -0.715  -1.238   0.000  0.00  0.00    +0.000 A 
ATOM      2  C   UNL     1       0.000  -1.650   0.000  0.00  0.00    +0.000 A 
ATOM      3  C   UNL     1       0.715  -1.238   0.000  0.00  0.00    +0.000 A 
ATOM      4  C   UNL     1       0.715  -0.412   0.000  0.00  0.00    +0.000 A 
ATOM      5  C   UNL     1       0.000   0.000   0.000  0.00  0.00    +0.000 A 
ATOM      6  C   UNL     1      -0.715  -0.412   0.000  0.00  0.00    +0.000 A 
ATOM      7  C   UNL     1       1.429   0.000   0.000  0.00  0.00    +0.000 A 
ATOM      8  N   UNL     1       2.143  -0.412   0.000  0.00  0.00    +0.000 NA
ATOM      9  C   UNL     1       2.143  -1.238   0.000  0.00  0.00    +0.000 A 
ATOM     10  C   UNL     1       1.429  -1.650   0.000  0.00  0.00    +0.000 A 
ENDROOT
BRANCH   1  14
ATOM     11  C   UNL     1      -3.555  -1.841   0.000  0.00  0.00    +0.000 C 
ATOM     12  N   UNL     1      -2.735  -1.927   0.000  0.00  0.00    +0.000 N 
ATOM     13  C   UNL     1      -2.183  -1.314   0.000  0.00  0.00    +0.000 A 
ATOM     14  C   UNL     1      -1.429  -1.650   0.000  0.00  0.00    +0.000 A 
ATOM     15  C   UNL     1      -1.515  -2.470   0.000  0.00  0.00    +0.000 A 
ATOM     16  N   UNL     1      -2.322  -2.642   0.000  0.00  0.00    +0.000 NA
ENDBRANCH   1  14
BRANCH   9  17
ATOM     17  N   UNL     1       2.858  -1.650   0.000  0.00  0.00    +0.000 NA
ATOM     18  C   UNL     1       2.858  -2.475   0.000  0.00  0.00    +0.000 C 
ATOM     19  O   UNL     1       2.143  -2.888   0.000  0.00  0.00    +0.000 OA
BRANCH  18  20
ATOM     20  C   UNL     1       3.572  -2.888   0.000  0.00  0.00    +0.000 A 
ATOM     21  C   UNL     1       4.287  -2.475   0.000  0.00  0.00    +0.000 A 
ATOM     22  C   UNL     1       5.001  -2.888   0.000  0.00  0.00    +0.000 A 
ATOM     23  N   UNL     1       5.001  -3.712   0.000  0.00  0.00    +0.000 NA
ATOM     24  C   UNL     1       4.287  -4.125   0.000  0.00  0.00    +0.000 A 
ATOM     25  C   UNL     1       3.572  -3.712   0.000  0.00  0.00    +0.000 A 
BRANCH  24  26
ATOM     26  N   UNL     1       4.287  -4.950   0.000  0.00  0.00    +0.000 N 
ATOM     27  C   UNL     1       5.001  -5.362   0.000  0.00  0.00    +0.000 C 
ATOM     28  C   UNL     1       5.001  -6.188   0.000  0.00  0.00    +0.000 C 
ATOM     29  N   UNL     1       4.287  -6.600   0.000  0.00  0.00    +0.000 NA
ATOM     30  C   UNL     1       4.287  -7.425   0.000  0.00  0.00    +0.000 C 
ATOM     31  C   UNL     1       3.572  -6.188   0.000  0.00  0.00    +0.000 C 
ATOM     32  C   UNL     1       3.572  -5.362   0.000  0.00  0.00    +0.000 C 
ENDBRANCH  24  26
ENDBRANCH  18  20
ENDBRANCH   9  17
TORSDOF 4
