REMARK  Name = 
REMARK  8 active torsions:
REMARK  status: ('A' for Active; 'I' for Inactive)
REMARK    1  A    between atoms: C_2  and  C_3
REMARK    2  A    between atoms: C_2  and  N_21
REMARK    3  A    between atoms: C_6  and  C_10
REMARK    4  A    between atoms: C_15  and  C_16
REMARK    5  A    between atoms: C_16  and  O_18
REMARK    6  A    between atoms: C_22  and  C_24
REMARK    7  A    between atoms: C_24  and  N_27
REMARK    8  A    between atoms: C_28  and  C_30
REMARK                            x       y       z     vdW  Elec       q    Type
REMARK                         _______ _______ _______ _____ _____    ______ ____
ROOT
ATOM      1  C   UNL     1       1.249  -2.670   0.000  0.00  0.00    +0.000 A 
ATOM      2  C   UNL     1       0.617  -2.139   0.000  0.00  0.00    +0.000 A 
ATOM      3  C   UNL     1       0.760  -1.327   0.000  0.00  0.00    +0.000 A 
ATOM      4  C   UNL     1       1.535  -1.045   0.000  0.00  0.00    +0.000 A 
ATOM      5  C   UNL     1       2.167  -1.575   0.000  0.00  0.00    +0.000 A 
ATOM      6  C   UNL     1       2.024  -2.388   0.000  0.00  0.00    +0.000 A 
ATOM      7  F   UNL     1       2.656  -2.918   0.000  0.00  0.00    +0.000 F 
ENDROOT
BRANCH   4   8
ATOM      8  C   UNL     1       1.678  -0.232   0.000  0.00  0.00    +0.000 A 
ATOM      9  C   UNL     1       1.046   0.298   0.000  0.00  0.00    +0.000 A 
ATOM     10  C   UNL     1       1.190   1.110   0.000  0.00  0.00    +0.000 A 
ATOM     11  C   UNL     1       1.965   1.393   0.000  0.00  0.00    +0.000 A 
ATOM     12  C   UNL     1       2.597   0.862   0.000  0.00  0.00    +0.000 A 
ATOM     13  C   UNL     1       2.454   0.050   0.000  0.00  0.00    +0.000 A 
ATOM     14 CL   UNL     1       3.372   1.145   0.000  0.00  0.00    +0.000 Cl
BRANCH  13  15
ATOM     15  C   UNL     1       3.086  -0.480   0.000  0.00  0.00    +0.000 C 
ATOM     16  O   UNL     1       2.942  -1.293   0.000  0.00  0.00    +0.000 OA
BRANCH  15  17
ATOM     17  O   UNL     1       3.861  -0.198   0.000  0.00  0.00    +0.000 OA
ATOM     18  C   UNL     1       4.493  -0.729   0.000  0.00  0.00    +0.000 C 
ENDBRANCH  15  17
ENDBRANCH  13  15
ENDBRANCH   4   8
BRANCH   1  20
ATOM     19  C   UNL     1       0.330  -3.764   0.000  0.00  0.00    +0.000 C 
ATOM     20  C   UNL     1       1.105  -3.482   0.000  0.00  0.00    +0.000 C 
BRANCH  20  21
ATOM     21  N   UNL     1       1.737  -4.013   0.000  0.00  0.00    +0.000 NA
ATOM     22  C   UNL     1       1.594  -4.825   0.000  0.00  0.00    +0.000 C 
ATOM     23  O   UNL     1       0.819  -5.107   0.000  0.00  0.00    +0.000 OA
BRANCH  22  24
ATOM     24  C   UNL     1       2.226  -5.355   0.000  0.00  0.00    +0.000 C 
ATOM     25  C   UNL     1       2.639  -6.070   0.000  0.00  0.00    +0.000 C 
ATOM     26  C   UNL     1       1.814  -6.070   0.000  0.00  0.00    +0.000 C 
BRANCH  24  27
ATOM     27  N   UNL     1       2.858  -4.825   0.000  0.00  0.00    +0.000 NA
ATOM     28  C   UNL     1       3.633  -5.107   0.000  0.00  0.00    +0.000 C 
ATOM     29  O   UNL     1       3.777  -5.920   0.000  0.00  0.00    +0.000 OA
BRANCH  28  30
ATOM     30  C   UNL     1       4.265  -4.577   0.000  0.00  0.00    +0.000 C 
ATOM     31  F   UNL     1       4.897  -4.046   0.000  0.00  0.00    +0.000 F 
ATOM     32  F   UNL     1       4.796  -5.209   0.000  0.00  0.00    +0.000 F 
ATOM     33  F   UNL     1       3.735  -3.945   0.000  0.00  0.00    +0.000 F 
ENDBRANCH  28  30
ENDBRANCH  24  27
ENDBRANCH  22  24
ENDBRANCH  20  21
ENDBRANCH   1  20
TORSDOF 8
