REMARK  Name = 
REMARK  0 active torsions:
REMARK  status: ('A' for Active; 'I' for Inactive)
REMARK                            x       y       z     vdW  Elec       q    Type
REMARK                         _______ _______ _______ _____ _____    ______ ____
ROOT
ATOM      1  C   UNL     1      -0.457   0.042   0.000  0.00  0.00    +0.000 C 
ATOM      2  C   UNL     1      -0.956   0.707   0.000  0.00  0.00    +0.000 A 
ATOM      3  C   UNL     1      -0.748   1.496   0.000  0.00  0.00    +0.000 A 
ATOM      4  C   UNL     1       0.000   1.870   0.000  0.00  0.00    +0.000 C 
ATOM      5  C   UNL     1       0.374   0.042   0.000  0.00  0.00    +0.000 C 
ATOM      6  C   UNL     1       0.748   1.496   0.000  0.00  0.00    +0.000 A 
ATOM      7  C   UNL     1       0.914   0.665   0.000  0.00  0.00    +0.000 A 
ATOM      8  C   UNL     1      -1.330   2.078   0.000  0.00  0.00    +0.000 A 
ATOM      9  C   UNL     1      -2.120   1.870   0.000  0.00  0.00    +0.000 A 
ATOM     10  C   UNL     1      -2.327   1.039   0.000  0.00  0.00    +0.000 A 
ATOM     11  C   UNL     1      -1.746   0.499   0.000  0.00  0.00    +0.000 A 
ATOM     12  C   UNL     1       1.704   0.416   0.000  0.00  0.00    +0.000 A 
ATOM     13  C   UNL     1       2.327   0.956   0.000  0.00  0.00    +0.000 A 
ATOM     14  C   UNL     1       2.161   1.787   0.000  0.00  0.00    +0.000 A 
ATOM     15  C   UNL     1       1.371   2.036   0.000  0.00  0.00    +0.000 A 
ATOM     16  C   UNL     1      -0.873  -0.665   0.000  0.00  0.00    +0.000 C 
ATOM     17  N   UNL     1      -0.457  -1.371   0.000  0.00  0.00    +0.000 NA
ATOM     18  C   UNL     1       0.374  -1.371   0.000  0.00  0.00    +0.000 C 
ATOM     19  C   UNL     1       0.790  -0.665   0.000  0.00  0.00    +0.000 C 
ATOM     20  C   UNL     1      -0.914  -2.078   0.000  0.00  0.00    +0.000 C 
ENDROOT
TORSDOF 0
