REMARK  Name = 
REMARK  3 active torsions:
REMARK  status: ('A' for Active; 'I' for Inactive)
REMARK    1  A    between atoms: C_11  and  O_12
REMARK    2  A    between atoms: O_12  and  C_13
REMARK    3  A    between atoms: C_13  and  C_15
REMARK                            x       y       z     vdW  Elec       q    Type
REMARK                         _______ _______ _______ _____ _____    ______ ____
ROOT
ATOM      1  C   UNL     1       0.000   0.000   0.000  0.00  0.00    +0.000 C 
ATOM      2  C   UNL     1       0.715  -0.412   0.000  0.00  0.00    +0.000 A 
ATOM      3  C   UNL     1       1.429   0.000   0.000  0.00  0.00    +0.000 A 
ATOM      4  C   UNL     1       2.143  -0.412   0.000  0.00  0.00    +0.000 A 
ATOM      5  C   UNL     1       2.858   0.000   0.000  0.00  0.00    +0.000 A 
ATOM      6  C   UNL     1       3.572  -0.412   0.000  0.00  0.00    +0.000 A 
ATOM      7  C   UNL     1       3.572  -1.238   0.000  0.00  0.00    +0.000 A 
ATOM      8  C   UNL     1       2.858  -1.650   0.000  0.00  0.00    +0.000 A 
ATOM      9  C   UNL     1       2.143  -1.238   0.000  0.00  0.00    +0.000 A 
ATOM     10  C   UNL     1       1.429  -1.650   0.000  0.00  0.00    +0.000 A 
ATOM     11  C   UNL     1       0.715  -1.238   0.000  0.00  0.00    +0.000 A 
ATOM     12  O   UNL     1       1.429  -2.475   0.000  0.00  0.00    +0.000 OA
ATOM     13  O   UNL     1       1.429   0.825   0.000  0.00  0.00    +0.000 OA
ENDROOT
BRANCH  11  14
ATOM     14  O   UNL     1       0.000  -1.650   0.000  0.00  0.00    +0.000 OA
BRANCH  14  15
ATOM     15  C   UNL     1       0.000  -2.475   0.000  0.00  0.00    +0.000 C 
ATOM     16  O   UNL     1       0.715  -2.888   0.000  0.00  0.00    +0.000 OA
BRANCH  15  17
ATOM     17  C   UNL     1      -0.715  -2.888   0.000  0.00  0.00    +0.000 A 
ATOM     18  C   UNL     1      -0.715  -3.712   0.000  0.00  0.00    +0.000 A 
ATOM     19  C   UNL     1      -1.429  -4.125   0.000  0.00  0.00    +0.000 A 
ATOM     20  C   UNL     1      -2.143  -3.712   0.000  0.00  0.00    +0.000 A 
ATOM     21  C   UNL     1      -2.143  -2.888   0.000  0.00  0.00    +0.000 A 
ATOM     22  C   UNL     1      -1.429  -2.475   0.000  0.00  0.00    +0.000 A 
ATOM     23  N   UNL     1      -2.858  -4.125   0.000  0.00  0.00    +0.000 NA
ENDBRANCH  15  17
ENDBRANCH  14  15
ENDBRANCH  11  14
TORSDOF 3
