REMARK  Name = 
REMARK  3 active torsions:
REMARK  status: ('A' for Active; 'I' for Inactive)
REMARK    1  A    between atoms: C_2  and  C_11
REMARK    2  A    between atoms: C_3  and  C_5
REMARK    3  A    between atoms: C_10  and  C_18
REMARK                            x       y       z     vdW  Elec       q    Type
REMARK                         _______ _______ _______ _____ _____    ______ ____
ROOT
ATOM      1  C   UNL     1       0.723  -0.621   0.000  0.00  0.00    +0.000 A 
ATOM      2  C   UNL     1       0.018  -1.859   0.000  0.00  0.00    +0.000 A 
ATOM      3  C   UNL     1       0.018  -1.034   0.000  0.00  0.00    +0.000 A 
ATOM      4  N   UNL     1       1.442  -1.859   0.000  0.00  0.00    +0.000 NA
ATOM      5  C   UNL     1       1.442  -1.034   0.000  0.00  0.00    +0.000 A 
ATOM      6  C   UNL     1       0.723  -2.271   0.000  0.00  0.00    +0.000 A 
ATOM      7  F   UNL     1       2.156  -0.617   0.000  0.00  0.00    +0.000 F 
ENDROOT
BRANCH   2  10
ATOM      8  N   UNL     1      -1.992  -1.273   0.000  0.00  0.00    +0.000 NA
ATOM      9  C   UNL     1      -1.406  -1.859   0.000  0.00  0.00    +0.000 C 
ATOM     10  C   UNL     1      -0.692  -2.271   0.000  0.00  0.00    +0.000 C 
ATOM     11  C   UNL     1      -1.464  -3.491   0.000  0.00  0.00    +0.000 C 
ATOM     12  C   UNL     1      -0.692  -3.096   0.000  0.00  0.00    +0.000 C 
ATOM     13  C   UNL     1      -2.116  -2.231   0.000  0.00  0.00    +0.000 C 
ATOM     14  C   UNL     1      -2.156  -3.056   0.000  0.00  0.00    +0.000 C 
ENDBRANCH   2  10
BRANCH   1  15
ATOM     15  C   UNL     1       0.723   0.204   0.000  0.00  0.00    +0.000 A 
ATOM     16  C   UNL     1       1.442   0.608   0.000  0.00  0.00    +0.000 A 
ATOM     17  C   UNL     1       0.018   0.608   0.000  0.00  0.00    +0.000 A 
ATOM     18  C   UNL     1       0.723   1.845   0.000  0.00  0.00    +0.000 A 
ATOM     19  C   UNL     1       1.442   1.433   0.000  0.00  0.00    +0.000 A 
ATOM     20  C   UNL     1       0.018   1.433   0.000  0.00  0.00    +0.000 A 
BRANCH  18  22
ATOM     21  N   UNL     1       0.723   3.491   0.000  0.00  0.00    +0.000 NA
ATOM     22  C   UNL     1       0.723   2.666   0.000  0.00  0.00    +0.000 C 
ENDBRANCH  18  22
ENDBRANCH   1  15
TORSDOF 3
