REMARK  Name = 
REMARK  7 active torsions:
REMARK  status: ('A' for Active; 'I' for Inactive)
REMARK    1  A    between atoms: C_2  and  N_4
REMARK    2  A    between atoms: N_4  and  C_5
REMARK    3  A    between atoms: N_4  and  C_17
REMARK    4  A    between atoms: C_5  and  C_6
REMARK    5  A    between atoms: C_6  and  N_7
REMARK    6  A    between atoms: C_8  and  C_10
REMARK    7  A    between atoms: C_10  and  N_11
REMARK                            x       y       z     vdW  Elec       q    Type
REMARK                         _______ _______ _______ _____ _____    ______ ____
ROOT
ATOM      1  N   UNL     1       2.390  -1.507   0.000  0.00  0.00    +0.000 NA
ATOM      2  C   UNL     1       1.850  -0.884   0.000  0.00  0.00    +0.000 C 
ATOM      3  O   UNL     1       2.120  -0.104   0.000  0.00  0.00    +0.000 OA
ENDROOT
BRANCH   1   4
ATOM      4  C   UNL     1       3.200  -1.351   0.000  0.00  0.00    +0.000 C 
BRANCH   4   5
ATOM      5  C   UNL     1       3.740  -1.975   0.000  0.00  0.00    +0.000 C 
BRANCH   5   6
ATOM      6  N   UNL     1       4.550  -1.819   0.000  0.00  0.00    +0.000 NA
BRANCH   6   8
ATOM      7  C   UNL     1       5.900  -2.287   0.000  0.00  0.00    +0.000 C 
ATOM      8  C   UNL     1       5.090  -2.443   0.000  0.00  0.00    +0.000 C 
ATOM      9  C   UNL     1       4.820  -3.222   0.000  0.00  0.00    +0.000 C 
ENDBRANCH   6   8
BRANCH   6  10
ATOM     10  C   UNL     1       4.820  -1.040   0.000  0.00  0.00    +0.000 C 
ATOM     11  C   UNL     1       4.280  -0.416   0.000  0.00  0.00    +0.000 C 
ATOM     12  C   UNL     1       5.630  -0.884   0.000  0.00  0.00    +0.000 C 
ENDBRANCH   6  10
ENDBRANCH   5   6
ENDBRANCH   4   5
ENDBRANCH   1   4
BRANCH   2  13
ATOM     13  C   UNL     1       1.040  -1.040   0.000  0.00  0.00    +0.000 C 
BRANCH  13  14
ATOM     14  N   UNL     1       0.499  -0.416   0.000  0.00  0.00    +0.000 N 
ATOM     15  C   UNL     1      -0.323  -0.486   0.000  0.00  0.00    +0.000 C 
ATOM     16  C   UNL     1      -0.643   0.274   0.000  0.00  0.00    +0.000 C 
ATOM     17  C   UNL     1      -0.020   0.814   0.000  0.00  0.00    +0.000 C 
ATOM     18  C   UNL     1       0.687   0.388   0.000  0.00  0.00    +0.000 C 
ATOM     19  O   UNL     1       1.447   0.709   0.000  0.00  0.00    +0.000 OA
ENDBRANCH  13  14
ENDBRANCH   2  13
TORSDOF 7
