REMARK  Name = 
REMARK  8 active torsions:
REMARK  status: ('A' for Active; 'I' for Inactive)
REMARK    1  A    between atoms: C_2  and  C_3
REMARK    2  A    between atoms: C_3  and  C_4
REMARK    3  A    between atoms: C_4  and  O_5
REMARK    4  A    between atoms: O_5  and  C_6
REMARK    5  A    between atoms: N_12  and  C_17
REMARK    6  A    between atoms: C_17  and  C_18
REMARK    7  A    between atoms: C_22  and  C_24
REMARK    8  A    between atoms: C_24  and  N_25
REMARK                            x       y       z     vdW  Elec       q    Type
REMARK                         _______ _______ _______ _____ _____    ______ ____
ROOT
ATOM      1  C   UNL     1      -0.715  -0.412   0.000  0.00  0.00    +0.000 A 
ATOM      2  N   UNL     1      -0.715  -1.238   0.000  0.00  0.00    +0.000 NA
ATOM      3  C   UNL     1       0.000  -1.650   0.000  0.00  0.00    +0.000 A 
ATOM      4  C   UNL     1       0.715  -1.238   0.000  0.00  0.00    +0.000 A 
ATOM      5  C   UNL     1       0.715  -0.412   0.000  0.00  0.00    +0.000 A 
ATOM      6  N   UNL     1       0.000   0.000   0.000  0.00  0.00    +0.000 NA
ATOM      7  N   UNL     1       1.429   0.000   0.000  0.00  0.00    +0.000 N 
ATOM      8  C   UNL     1       2.143  -0.412   0.000  0.00  0.00    +0.000 C 
ATOM      9  C   UNL     1       2.143  -1.238   0.000  0.00  0.00    +0.000 C 
ATOM     10  O   UNL     1       2.858  -1.650   0.000  0.00  0.00    +0.000 OA
ATOM     11  N   UNL     1       1.429  -1.650   0.000  0.00  0.00    +0.000 NA
ATOM     12  N   UNL     1       0.000  -2.475   0.000  0.00  0.00    +0.000 NA
ENDROOT
BRANCH   1  13
ATOM     13  O   UNL     1      -1.429   0.000   0.000  0.00  0.00    +0.000 OA
BRANCH  13  14
ATOM     14  C   UNL     1      -2.143  -0.412   0.000  0.00  0.00    +0.000 C 
BRANCH  14  15
ATOM     15  C   UNL     1      -2.858   0.000   0.000  0.00  0.00    +0.000 C 
BRANCH  15  17
ATOM     16  C   UNL     1      -4.287   0.000   0.000  0.00  0.00    +0.000 C 
ATOM     17  C   UNL     1      -3.572  -0.412   0.000  0.00  0.00    +0.000 C 
ENDBRANCH  15  17
ENDBRANCH  14  15
ENDBRANCH  13  14
ENDBRANCH   1  13
BRANCH   7  18
ATOM     18  C   UNL     1       1.429   0.825   0.000  0.00  0.00    +0.000 C 
BRANCH  18  19
ATOM     19  C   UNL     1       2.143   1.238   0.000  0.00  0.00    +0.000 A 
ATOM     20  C   UNL     1       2.143   2.062   0.000  0.00  0.00    +0.000 A 
ATOM     21  C   UNL     1       2.858   2.475   0.000  0.00  0.00    +0.000 A 
ATOM     22  C   UNL     1       3.572   2.062   0.000  0.00  0.00    +0.000 A 
ATOM     23  C   UNL     1       3.572   1.238   0.000  0.00  0.00    +0.000 A 
ATOM     24  C   UNL     1       2.858   0.825   0.000  0.00  0.00    +0.000 A 
BRANCH  23  25
ATOM     25  C   UNL     1       4.287   0.825   0.000  0.00  0.00    +0.000 C 
BRANCH  25  26
ATOM     26  N   UNL     1       4.287   0.000   0.000  0.00  0.00    +0.000 NA
ATOM     27  C   UNL     1       4.954  -0.485   0.000  0.00  0.00    +0.000 C 
ATOM     28  C   UNL     1       4.699  -1.270   0.000  0.00  0.00    +0.000 C 
ATOM     29  C   UNL     1       3.874  -1.270   0.000  0.00  0.00    +0.000 C 
ATOM     30  C   UNL     1       3.619  -0.485   0.000  0.00  0.00    +0.000 C 
ENDBRANCH  25  26
ENDBRANCH  23  25
ENDBRANCH  18  19
ENDBRANCH   7  18
TORSDOF 8
