REMARK  Name = 
REMARK  5 active torsions:
REMARK  status: ('A' for Active; 'I' for Inactive)
REMARK    1  A    between atoms: O_2  and  C_3
REMARK    2  A    between atoms: C_3  and  C_4
REMARK    3  A    between atoms: C_4  and  N_5
REMARK    4  A    between atoms: N_8  and  C_9
REMARK    5  A    between atoms: C_9  and  C_10
REMARK                            x       y       z     vdW  Elec       q    Type
REMARK                         _______ _______ _______ _____ _____    ______ ____
ROOT
ATOM      1  N   UNL     1       3.643  -0.255   0.000  0.00  0.00    +0.000 N 
ATOM      2  C   UNL     1       4.127   0.412   0.000  0.00  0.00    +0.000 A 
ATOM      3  C   UNL     1       4.952   0.412   0.000  0.00  0.00    +0.000 C 
ATOM      4  N   UNL     1       3.643   1.080   0.000  0.00  0.00    +0.000 N 
ATOM      5  C   UNL     1       2.858   0.825   0.000  0.00  0.00    +0.000 A 
ATOM      6  C   UNL     1       2.858   0.000   0.000  0.00  0.00    +0.000 A 
ATOM      7  C   UNL     1       2.143  -0.412   0.000  0.00  0.00    +0.000 C 
ATOM      8  O   UNL     1       2.143  -1.238   0.000  0.00  0.00    +0.000 OA
ATOM      9  C   UNL     1       1.429   0.000   0.000  0.00  0.00    +0.000 A 
ATOM     10  C   UNL     1       0.715  -0.412   0.000  0.00  0.00    +0.000 A 
ATOM     11  C   UNL     1       0.000   0.000   0.000  0.00  0.00    +0.000 A 
ATOM     12  C   UNL     1       0.000   0.825   0.000  0.00  0.00    +0.000 A 
ATOM     13  C   UNL     1       0.715   1.238   0.000  0.00  0.00    +0.000 A 
ATOM     14  C   UNL     1       1.429   0.825   0.000  0.00  0.00    +0.000 A 
ATOM     15  C   UNL     1       2.143   1.238   0.000  0.00  0.00    +0.000 C 
ATOM     16  O   UNL     1       2.143   2.062   0.000  0.00  0.00    +0.000 OA
ENDROOT
BRANCH   1  17
ATOM     17  C   UNL     1       3.897  -1.040   0.000  0.00  0.00    +0.000 C 
BRANCH  17  18
ATOM     18  C   UNL     1       3.345  -1.653   0.000  0.00  0.00    +0.000 C 
BRANCH  18  20
ATOM     19  C   UNL     1       3.048  -3.050   0.000  0.00  0.00    +0.000 C 
ATOM     20  O   UNL     1       3.600  -2.437   0.000  0.00  0.00    +0.000 OA
ENDBRANCH  18  20
ENDBRANCH  17  18
ENDBRANCH   1  17
BRANCH   4  21
ATOM     21  C   UNL     1       3.897   1.865   0.000  0.00  0.00    +0.000 C 
BRANCH  21  22
ATOM     22  C   UNL     1       4.704   2.036   0.000  0.00  0.00    +0.000 A 
ATOM     23  N   UNL     1       4.959   2.821   0.000  0.00  0.00    +0.000 NA
ATOM     24  C   UNL     1       5.766   2.992   0.000  0.00  0.00    +0.000 A 
ATOM     25  C   UNL     1       6.318   2.379   0.000  0.00  0.00    +0.000 A 
ATOM     26  N   UNL     1       6.063   1.595   0.000  0.00  0.00    +0.000 NA
ATOM     27  C   UNL     1       5.256   1.423   0.000  0.00  0.00    +0.000 A 
ENDBRANCH  21  22
ENDBRANCH   4  21
TORSDOF 5
