REMARK  Name = 
REMARK  1 active torsions:
REMARK  status: ('A' for Active; 'I' for Inactive)
REMARK    1  A    between atoms: C_17  and  C_18
REMARK                            x       y       z     vdW  Elec       q    Type
REMARK                         _______ _______ _______ _____ _____    ______ ____
ROOT
ATOM      1  C   UNL     1       9.111 -10.380   0.000  0.00  0.00    +0.000 C 
ATOM      2  C   UNL     1       9.111 -11.205   0.000  0.00  0.00    +0.000 C 
ATOM      3  C   UNL     1       9.825 -11.617   0.000  0.00  0.00    +0.000 C 
ATOM      4  C   UNL     1      10.540 -11.205   0.000  0.00  0.00    +0.000 C 
ATOM      5  C   UNL     1      10.540 -10.380   0.000  0.00  0.00    +0.000 C 
ATOM      6  C   UNL     1       9.825  -9.967   0.000  0.00  0.00    +0.000 C 
ATOM      7  C   UNL     1      11.254 -11.617   0.000  0.00  0.00    +0.000 C 
ATOM      8  C   UNL     1      11.969 -11.205   0.000  0.00  0.00    +0.000 C 
ATOM      9  C   UNL     1      11.969 -10.380   0.000  0.00  0.00    +0.000 C 
ATOM     10  C   UNL     1      11.254  -9.967   0.000  0.00  0.00    +0.000 C 
ATOM     11  C   UNL     1      12.683  -9.967   0.000  0.00  0.00    +0.000 C 
ATOM     12  C   UNL     1      12.683  -9.142   0.000  0.00  0.00    +0.000 C 
ATOM     13  C   UNL     1      11.969  -8.730   0.000  0.00  0.00    +0.000 C 
ATOM     14  C   UNL     1      11.254  -9.142   0.000  0.00  0.00    +0.000 C 
ATOM     15  C   UNL     1      14.112  -9.967   0.000  0.00  0.00    +0.000 C 
ATOM     16  C   UNL     1      14.112  -9.142   0.000  0.00  0.00    +0.000 C 
ATOM     17  C   UNL     1      13.398  -8.730   0.000  0.00  0.00    +0.000 C 
ATOM     18  C   UNL     1      12.683  -8.317   0.000  0.00  0.00    +0.000 C 
ATOM     19  C   UNL     1      10.540  -9.555   0.000  0.00  0.00    +0.000 C 
ATOM     20  O   UNL     1       8.397 -11.617   0.000  0.00  0.00    +0.000 OA
ENDROOT
BRANCH  17  21
ATOM     21  C   UNL     1      13.398  -7.905   0.000  0.00  0.00    +0.000 C 
ATOM     22  C   UNL     1      14.115  -7.491   0.000  0.00  0.00    +0.000 C 
ATOM     23  O   UNL     1      12.686  -7.494   0.000  0.00  0.00    +0.000 OA
ENDBRANCH  17  21
TORSDOF 1
