REMARK  Name = 
REMARK  8 active torsions:
REMARK  status: ('A' for Active; 'I' for Inactive)
REMARK    1  A    between atoms: C_2  and  C_3
REMARK    2  A    between atoms: N_5  and  C_6
REMARK    3  A    between atoms: N_5  and  C_12
REMARK    4  A    between atoms: C_12  and  C_26
REMARK    5  A    between atoms: N_15  and  C_16
REMARK    6  A    between atoms: C_16  and  C_17
REMARK    7  A    between atoms: C_17  and  C_18
REMARK    8  A    between atoms: C_26  and  O_28
REMARK                            x       y       z     vdW  Elec       q    Type
REMARK                         _______ _______ _______ _____ _____    ______ ____
ROOT
ATOM      1  C   UNL     1       0.680  -4.245   0.000  0.00  0.00    +0.000 C 
ATOM      2  C   UNL     1      -0.132  -4.102   0.000  0.00  0.00    +0.000 C 
ATOM      3  C   UNL     1      -0.414  -3.326   0.000  0.00  0.00    +0.000 C 
ATOM      4  N   UNL     1       0.116  -2.695   0.000  0.00  0.00    +0.000 NA
ATOM      5  C   UNL     1       0.929  -2.838   0.000  0.00  0.00    +0.000 C 
ATOM      6  C   UNL     1       1.211  -3.613   0.000  0.00  0.00    +0.000 C 
ENDROOT
BRANCH   1   9
ATOM      7  C   UNL     1       2.109  -4.245   0.000  0.00  0.00    +0.000 C 
ATOM      8  O   UNL     1       2.109  -3.420   0.000  0.00  0.00    +0.000 OA
ATOM      9  N   UNL     1       1.395  -4.657   0.000  0.00  0.00    +0.000 N 
BRANCH   9  10
ATOM     10  C   UNL     1       1.395  -5.482   0.000  0.00  0.00    +0.000 A 
ATOM     11  C   UNL     1       2.109  -5.895   0.000  0.00  0.00    +0.000 A 
ATOM     12  C   UNL     1       2.109  -6.720   0.000  0.00  0.00    +0.000 A 
ATOM     13  C   UNL     1       1.395  -7.133   0.000  0.00  0.00    +0.000 A 
ATOM     14  C   UNL     1       0.680  -6.720   0.000  0.00  0.00    +0.000 A 
ATOM     15  C   UNL     1       0.680  -5.895   0.000  0.00  0.00    +0.000 A 
ENDBRANCH   9  10
BRANCH   7  17
ATOM     16  C   UNL     1       3.538  -4.245   0.000  0.00  0.00    +0.000 C 
ATOM     17  C   UNL     1       2.824  -4.657   0.000  0.00  0.00    +0.000 C 
ENDBRANCH   7  17
ENDBRANCH   1   9
BRANCH   1  18
ATOM     18  C   UNL     1       0.398  -5.020   0.000  0.00  0.00    +0.000 C 
ATOM     19  O   UNL     1       0.199  -5.821   0.000  0.00  0.00    +0.000 OA
BRANCH  18  20
ATOM     20  O   UNL     1      -0.414  -5.163   0.000  0.00  0.00    +0.000 OA
ATOM     21  C   UNL     1      -0.696  -5.939   0.000  0.00  0.00    +0.000 C 
ENDBRANCH  18  20
ENDBRANCH   1  18
BRANCH   4  22
ATOM     22  C   UNL     1      -0.166  -1.919   0.000  0.00  0.00    +0.000 C 
BRANCH  22  23
ATOM     23  C   UNL     1      -0.979  -1.776   0.000  0.00  0.00    +0.000 C 
BRANCH  23  24
ATOM     24  C   UNL     1      -1.261  -1.001   0.000  0.00  0.00    +0.000 A 
ATOM     25  C   UNL     1      -2.073  -0.858   0.000  0.00  0.00    +0.000 A 
ATOM     26  C   UNL     1      -2.355  -0.082   0.000  0.00  0.00    +0.000 A 
ATOM     27  C   UNL     1      -1.825   0.550   0.000  0.00  0.00    +0.000 A 
ATOM     28  C   UNL     1      -1.013   0.406   0.000  0.00  0.00    +0.000 A 
ATOM     29  C   UNL     1      -0.730  -0.369   0.000  0.00  0.00    +0.000 A 
ENDBRANCH  23  24
ENDBRANCH  22  23
ENDBRANCH   4  22
TORSDOF 8
