REMARK  Name = 
REMARK  2 active torsions:
REMARK  status: ('A' for Active; 'I' for Inactive)
REMARK    1  A    between atoms: N_7  and  C_8
REMARK    2  A    between atoms: C_11  and  C_13
REMARK                            x       y       z     vdW  Elec       q    Type
REMARK                         _______ _______ _______ _____ _____    ______ ____
ROOT
ATOM      1  C   UNL     1       2.037   1.176   0.000  0.00  0.00    +0.000 A 
ATOM      2  C   UNL     1       2.037   2.001   0.000  0.00  0.00    +0.000 A 
ATOM      3  C   UNL     1       2.751   2.413   0.000  0.00  0.00    +0.000 A 
ATOM      4  N   UNL     1       3.466   2.001   0.000  0.00  0.00    +0.000 NA
ATOM      5  C   UNL     1       3.466   1.176   0.000  0.00  0.00    +0.000 A 
ATOM      6  O   UNL     1       4.180   0.763   0.000  0.00  0.00    +0.000 OA
ATOM      7  N   UNL     1       2.751   0.763   0.000  0.00  0.00    +0.000 N 
ATOM      8  N   UNL     1       2.751   3.238   0.000  0.00  0.00    +0.000 NA
ATOM      9  F   UNL     1       1.322   2.413   0.000  0.00  0.00    +0.000 F 
ENDROOT
BRANCH   7  10
ATOM     10  C   UNL     1       2.751  -0.062   0.000  0.00  0.00    +0.000 C 
ATOM     11  C   UNL     1       3.419  -0.546   0.000  0.00  0.00    +0.000 C 
ATOM     12  C   UNL     1       3.164  -1.331   0.000  0.00  0.00    +0.000 C 
ATOM     13  C   UNL     1       2.339  -1.331   0.000  0.00  0.00    +0.000 C 
ATOM     14  O   UNL     1       2.084  -0.546   0.000  0.00  0.00    +0.000 OA
BRANCH  13  15
ATOM     15  C   UNL     1       1.854  -1.999   0.000  0.00  0.00    +0.000 C 
ATOM     16  O   UNL     1       2.189  -2.752   0.000  0.00  0.00    +0.000 OA
ENDBRANCH  13  15
ENDBRANCH   7  10
TORSDOF 2
