REMARK  Name = 
REMARK  5 active torsions:
REMARK  status: ('A' for Active; 'I' for Inactive)
REMARK    1  A    between atoms: N_4  and  C_5
REMARK    2  A    between atoms: C_6  and  C_19
REMARK    3  A    between atoms: C_8  and  C_10
REMARK    4  A    between atoms: C_11  and  C_12
REMARK    5  A    between atoms: N_21  and  C_22
REMARK                            x       y       z     vdW  Elec       q    Type
REMARK                         _______ _______ _______ _____ _____    ______ ____
ROOT
ATOM      1  C   UNL     1       1.429  -2.475   0.000  0.00  0.00    +0.000 A 
ATOM      2  C   UNL     1       2.096  -2.960   0.000  0.00  0.00    +0.000 A 
ATOM      3  S   UNL     1       1.841  -3.744   0.000  0.00  0.00    +0.000 S 
ATOM      4  C   UNL     1       1.016  -3.744   0.000  0.00  0.00    +0.000 A 
ATOM      5  C   UNL     1       0.761  -2.960   0.000  0.00  0.00    +0.000 A 
ENDROOT
BRANCH   1   9
ATOM      6  N   UNL     1       0.715  -0.412   0.000  0.00  0.00    +0.000 NA
ATOM      7  C   UNL     1       0.715  -1.238   0.000  0.00  0.00    +0.000 C 
ATOM      8  O   UNL     1       0.000  -1.650   0.000  0.00  0.00    +0.000 OA
ATOM      9  N   UNL     1       1.429  -1.650   0.000  0.00  0.00    +0.000 NA
ENDBRANCH   1   9
BRANCH   2  10
ATOM     10  C   UNL     1       2.881  -2.705   0.000  0.00  0.00    +0.000 C 
ATOM     11  O   UNL     1       3.494  -3.257   0.000  0.00  0.00    +0.000 OA
ATOM     12  N   UNL     1       3.053  -1.898   0.000  0.00  0.00    +0.000 NA
BRANCH  12  13
ATOM     13  C   UNL     1       3.837  -1.643   0.000  0.00  0.00    +0.000 C 
ATOM     14  C   UNL     1       4.009  -0.836   0.000  0.00  0.00    +0.000 C 
ATOM     15  C   UNL     1       4.793  -0.581   0.000  0.00  0.00    +0.000 C 
ATOM     16  C   UNL     1       5.406  -1.133   0.000  0.00  0.00    +0.000 C 
ATOM     17  N   UNL     1       5.235  -1.940   0.000  0.00  0.00    +0.000 NA
ATOM     18  C   UNL     1       4.450  -2.195   0.000  0.00  0.00    +0.000 C 
ENDBRANCH  12  13
ENDBRANCH   2  10
BRANCH   4  19
ATOM     19  C   UNL     1       0.531  -4.412   0.000  0.00  0.00    +0.000 C 
ATOM     20  C   UNL     1       0.047  -5.079   0.000  0.00  0.00    +0.000 C 
BRANCH  20  21
ATOM     21  C   UNL     1      -0.438  -5.747   0.000  0.00  0.00    +0.000 A 
ATOM     22  C   UNL     1      -0.103  -6.500   0.000  0.00  0.00    +0.000 A 
ATOM     23  C   UNL     1      -0.588  -7.168   0.000  0.00  0.00    +0.000 A 
ATOM     24  C   UNL     1      -1.408  -7.082   0.000  0.00  0.00    +0.000 A 
ATOM     25  C   UNL     1      -1.744  -6.328   0.000  0.00  0.00    +0.000 A 
ATOM     26  F   UNL     1      -2.564  -6.242   0.000  0.00  0.00    +0.000 F 
ATOM     27  C   UNL     1      -1.259  -5.661   0.000  0.00  0.00    +0.000 A 
ENDBRANCH  20  21
ENDBRANCH   4  19
TORSDOF 5
