REMARK  Name = 
REMARK  1 active torsions:
REMARK  status: ('A' for Active; 'I' for Inactive)
REMARK    1  A    between atoms: C_1  and  C_5
REMARK                            x       y       z     vdW  Elec       q    Type
REMARK                         _______ _______ _______ _____ _____    ______ ____
ROOT
ATOM      1  C   UNL     1      -0.367  -0.206   0.000  0.00  0.00    +0.000 C 
ATOM      2  C   UNL     1      -1.069   0.206   0.000  0.00  0.00    +0.000 C 
ATOM      3  O   UNL     1      -0.367  -1.031   0.000  0.00  0.00    +0.000 OA
ENDROOT
BRANCH   1   5
ATOM      4  O   UNL     1       0.344   1.031   0.000  0.00  0.00    +0.000 OA
ATOM      5  C   UNL     1       0.354   0.206   0.000  0.00  0.00    +0.000 C 
ENDBRANCH   1   5
TORSDOF 1
