REMARK  Name = 
REMARK  1 active torsions:
REMARK  status: ('A' for Active; 'I' for Inactive)
REMARK    1  A    between atoms: C_6  and  C_7
REMARK                            x       y       z     vdW  Elec       q    Type
REMARK                         _______ _______ _______ _____ _____    ______ ____
ROOT
ATOM      1  C   UNL     1      -1.547  -1.060   0.000  0.00  0.00    +0.000 C 
ATOM      2  C   UNL     1      -1.062  -0.392   0.000  0.00  0.00    +0.000 C 
ATOM      3  C   UNL     1      -1.062  -1.727   0.000  0.00  0.00    +0.000 C 
ATOM      4  C   UNL     1      -0.277  -0.647   0.000  0.00  0.00    +0.000 A 
ATOM      5  C   UNL     1      -0.277  -1.472   0.000  0.00  0.00    +0.000 A 
ATOM      6  C   UNL     1       0.507  -0.392   0.000  0.00  0.00    +0.000 A 
ATOM      7  N   UNL     1       0.507  -1.727   0.000  0.00  0.00    +0.000 NA
ATOM      8  N   UNL     1       0.992  -1.060   0.000  0.00  0.00    +0.000 NA
ENDROOT
BRANCH   6   9
ATOM      9  C   UNL     1       0.762   0.392   0.000  0.00  0.00    +0.000 A 
ATOM     10  N   UNL     1       1.547   0.647   0.000  0.00  0.00    +0.000 NA
ATOM     11  N   UNL     1       0.277   1.060   0.000  0.00  0.00    +0.000 NA
ATOM     12  N   UNL     1       1.547   1.472   0.000  0.00  0.00    +0.000 NA
ATOM     13  N   UNL     1       0.762   1.727   0.000  0.00  0.00    +0.000 NA
ENDBRANCH   6   9
TORSDOF 1
