REMARK  Name = 
REMARK  8 active torsions:
REMARK  status: ('A' for Active; 'I' for Inactive)
REMARK    1  A    between atoms: C_8  and  O_9
REMARK    2  A    between atoms: O_9  and  C_10
REMARK    3  A    between atoms: C_14  and  O_15
REMARK    4  A    between atoms: C_21  and  C_22
REMARK    5  A    between atoms: C_25  and  C_26
REMARK    6  A    between atoms: C_37  and  C_38
REMARK    7  A    between atoms: N_40  and  S_41
REMARK    8  A    between atoms: S_41  and  C_43
REMARK                            x       y       z     vdW  Elec       q    Type
REMARK                         _______ _______ _______ _____ _____    ______ ____
ROOT
ATOM      1  C   UNL     1      -2.881  -1.462   0.000  0.00  0.00    +0.000 C 
ATOM      2  N   UNL     1      -2.881  -0.644   0.000  0.00  0.00    +0.000 N 
ATOM      3  C   UNL     1      -2.172  -1.053   0.000  0.00  0.00    +0.000 C 
ATOM      4  O   UNL     1      -2.172  -1.875   0.000  0.00  0.00    +0.000 OA
ATOM      5  C   UNL     1      -1.453  -0.644   0.000  0.00  0.00    +0.000 C 
ATOM      6  C   UNL     1      -0.667  -0.894   0.000  0.00  0.00    +0.000 C 
ATOM      7  C   UNL     1      -0.185  -0.226   0.000  0.00  0.00    +0.000 C 
ATOM      8  C   UNL     1      -0.667   0.433   0.000  0.00  0.00    +0.000 C 
ATOM      9  C   UNL     1      -1.453   0.178   0.000  0.00  0.00    +0.000 C 
ATOM     10  C   UNL     1      -2.172   0.592   0.000  0.00  0.00    +0.000 C 
ATOM     11  O   UNL     1      -2.172   1.419   0.000  0.00  0.00    +0.000 OA
ATOM     12  N   UNL     1      -2.866   0.163   0.000  0.00  0.00    +0.000 NA
ATOM     13  C   UNL     1      -3.590   0.592   0.000  0.00  0.00    +0.000 C 
ATOM     14  C   UNL     1      -4.200   1.027   0.000  0.00  0.00    +0.000 C 
ATOM     15  C   UNL     1      -4.304   0.178   0.000  0.00  0.00    +0.000 C 
ATOM     16  C   UNL     1      -5.023   0.592   0.000  0.00  0.00    +0.000 C 
ATOM     17  C   UNL     1      -5.727   0.178   0.000  0.00  0.00    +0.000 C 
ATOM     18  C   UNL     1      -5.727  -0.644   0.000  0.00  0.00    +0.000 C 
ATOM     19  C   UNL     1      -5.023  -1.053   0.000  0.00  0.00    +0.000 C 
ATOM     20  C   UNL     1      -4.304  -0.644   0.000  0.00  0.00    +0.000 C 
ATOM     21  C   UNL     1      -3.590  -1.053   0.000  0.00  0.00    +0.000 C 
ENDROOT
BRANCH  13  22
ATOM     22  C   UNL     1      -3.321   1.502   0.000  0.00  0.00    +0.000 C 
ATOM     23  O   UNL     1      -2.670   1.721   0.000  0.00  0.00    +0.000 OA
ATOM     24  N   UNL     1      -3.915   2.074   0.000  0.00  0.00    +0.000 NA
BRANCH  24  25
ATOM     25  S   UNL     1      -3.716   2.875   0.000  0.00  0.00    +0.000 S 
ATOM     26  O   UNL     1      -2.916   2.676   0.000  0.00  0.00    +0.000 OA
ATOM     27  O   UNL     1      -4.517   3.073   0.000  0.00  0.00    +0.000 OA
BRANCH  25  28
ATOM     28  C   UNL     1      -3.518   3.676   0.000  0.00  0.00    +0.000 C 
ATOM     29  C   UNL     1      -3.746   4.468   0.000  0.00  0.00    +0.000 C 
ATOM     30  C   UNL     1      -2.946   4.270   0.000  0.00  0.00    +0.000 C 
ENDBRANCH  25  28
ENDBRANCH  24  25
ENDBRANCH  13  22
BRANCH   7  31
ATOM     31  O   UNL     1       0.637  -0.226   0.000  0.00  0.00    +0.000 OA
BRANCH  31  32
ATOM     32  C   UNL     1       1.007  -0.964   0.000  0.00  0.00    +0.000 A 
ATOM     33  C   UNL     1       0.553  -1.660   0.000  0.00  0.00    +0.000 A 
ATOM     34  C   UNL     1      -0.278  -1.660   0.000  0.00  0.00    +0.000 A 
ATOM     35  C   UNL     1      -0.721  -2.309   0.000  0.00  0.00    +0.000 A 
ATOM     36  C   UNL     1      -0.346  -3.042   0.000  0.00  0.00    +0.000 A 
ATOM     37  C   UNL     1       0.476  -3.042   0.000  0.00  0.00    +0.000 A 
ATOM     38  C   UNL     1       0.887  -3.759   0.000  0.00  0.00    +0.000 C 
ATOM     39  C   UNL     1       0.924  -2.391   0.000  0.00  0.00    +0.000 A 
ATOM     40  N   UNL     1       1.749  -2.442   0.000  0.00  0.00    +0.000 NA
ATOM     41  C   UNL     1       2.198  -1.753   0.000  0.00  0.00    +0.000 A 
ATOM     42  C   UNL     1       1.829  -1.020   0.000  0.00  0.00    +0.000 A 
BRANCH  41  43
ATOM     43  C   UNL     1       3.029  -1.753   0.000  0.00  0.00    +0.000 A 
ATOM     44  S   UNL     1       3.511  -1.088   0.000  0.00  0.00    +0.000 S 
ATOM     45  C   UNL     1       4.296  -1.340   0.000  0.00  0.00    +0.000 A 
ATOM     46  C   UNL     1       4.296  -2.166   0.000  0.00  0.00    +0.000 A 
ATOM     47  N   UNL     1       3.511  -2.418   0.000  0.00  0.00    +0.000 NA
BRANCH  46  48
ATOM     48  C   UNL     1       5.011  -2.579   0.000  0.00  0.00    +0.000 C 
ATOM     49  C   UNL     1       5.011  -3.458   0.000  0.00  0.00    +0.000 C 
ATOM     50  C   UNL     1       5.727  -2.166   0.000  0.00  0.00    +0.000 C 
ENDBRANCH  46  48
ENDBRANCH  41  43
BRANCH  36  51
ATOM     51  O   UNL     1      -0.760  -3.757   0.000  0.00  0.00    +0.000 OA
ATOM     52  C   UNL     1      -0.346  -4.468   0.000  0.00  0.00    +0.000 C 
ENDBRANCH  36  51
ENDBRANCH  31  32
ENDBRANCH   7  31
TORSDOF 8
