REMARK  Name = 
REMARK  4 active torsions:
REMARK  status: ('A' for Active; 'I' for Inactive)
REMARK    1  A    between atoms: O_2  and  C_3
REMARK    2  A    between atoms: C_4  and  C_10
REMARK    3  A    between atoms: C_18  and  C_19
REMARK    4  A    between atoms: C_19  and  S_20
REMARK                            x       y       z     vdW  Elec       q    Type
REMARK                         _______ _______ _______ _____ _____    ______ ____
ROOT
ATOM      1  C   UNL     1      -1.429   0.000   0.000  0.00  0.00    +0.000 A 
ATOM      2  C   UNL     1      -1.429   0.825   0.000  0.00  0.00    +0.000 A 
ATOM      3  C   UNL     1      -0.715   1.238   0.000  0.00  0.00    +0.000 A 
ATOM      4  N   UNL     1      -0.715   2.062   0.000  0.00  0.00    +0.000 NA
ATOM      5  C   UNL     1      -1.429   2.475   0.000  0.00  0.00    +0.000 A 
ATOM      6  N   UNL     1      -2.143   2.062   0.000  0.00  0.00    +0.000 NA
ATOM      7  C   UNL     1      -2.858   2.475   0.000  0.00  0.00    +0.000 A 
ATOM      8  C   UNL     1      -2.858   3.300   0.000  0.00  0.00    +0.000 A 
ATOM      9  C   UNL     1      -2.143   3.712   0.000  0.00  0.00    +0.000 A 
ATOM     10  C   UNL     1      -1.429   3.300   0.000  0.00  0.00    +0.000 A 
ATOM     11  N   UNL     1       0.000   0.825   0.000  0.00  0.00    +0.000 NA
ATOM     12  C   UNL     1       0.000   0.000   0.000  0.00  0.00    +0.000 A 
ATOM     13  C   UNL     1      -0.715  -0.412   0.000  0.00  0.00    +0.000 A 
ATOM     14  F   UNL     1      -0.715  -1.238   0.000  0.00  0.00    +0.000 F 
ENDROOT
BRANCH   1  16
ATOM     15  C   UNL     1      -2.858   0.000   0.000  0.00  0.00    +0.000 A 
ATOM     16  C   UNL     1      -2.143  -0.412   0.000  0.00  0.00    +0.000 A 
ATOM     17  C   UNL     1      -2.143  -1.238   0.000  0.00  0.00    +0.000 A 
ATOM     18  C   UNL     1      -2.858  -1.650   0.000  0.00  0.00    +0.000 A 
ATOM     19  C   UNL     1      -3.572  -1.238   0.000  0.00  0.00    +0.000 A 
ATOM     20  F   UNL     1      -4.287  -1.650   0.000  0.00  0.00    +0.000 F 
ATOM     21  C   UNL     1      -3.572  -0.412   0.000  0.00  0.00    +0.000 A 
BRANCH  15  23
ATOM     22  C   UNL     1      -3.572   1.238   0.000  0.00  0.00    +0.000 C 
ATOM     23  O   UNL     1      -2.858   0.825   0.000  0.00  0.00    +0.000 OA
ENDBRANCH  15  23
ENDBRANCH   1  16
BRANCH   9  24
ATOM     24  C   UNL     1      -2.143   4.537   0.000  0.00  0.00    +0.000 C 
BRANCH  24  25
ATOM     25  S   UNL     1      -2.858   4.950   0.000  0.00  0.00    +0.000 S 
ATOM     26  C   UNL     1      -3.572   5.362   0.000  0.00  0.00    +0.000 C 
ATOM     27  N   UNL     1      -2.445   5.665   0.000  0.00  0.00    +0.000 NA
ATOM     28  O   UNL     1      -3.270   4.236   0.000  0.00  0.00    +0.000 OA
ENDBRANCH  24  25
ENDBRANCH   9  24
TORSDOF 4
