REMARK  Name = 
REMARK  8 active torsions:
REMARK  status: ('A' for Active; 'I' for Inactive)
REMARK    1  A    between atoms: C_5  and  N_9
REMARK    2  A    between atoms: C_8  and  C_10
REMARK    3  A    between atoms: C_10  and  C_11
REMARK    4  A    between atoms: C_11  and  C_12
REMARK    5  A    between atoms: C_12  and  C_13
REMARK    6  A    between atoms: C_13  and  C_14
REMARK    7  A    between atoms: C_14  and  C_15
REMARK    8  A    between atoms: C_15  and  C_16
REMARK                            x       y       z     vdW  Elec       q    Type
REMARK                         _______ _______ _______ _____ _____    ______ ____
ROOT
ATOM      1  C   UNL     1      -1.063   0.403   0.000  0.00  0.00    +0.000 C 
ENDROOT
BRANCH   1   3
ATOM      2  O   UNL     1      -1.769  -0.829   0.000  0.00  0.00    +0.000 OA
ATOM      3  C   UNL     1      -1.769  -0.004   0.000  0.00  0.00    +0.000 C 
ATOM      4  N   UNL     1      -2.483   0.408   0.000  0.00  0.00    +0.000 NA
BRANCH   4   9
ATOM      5  C   UNL     1      -4.627  -0.004   0.000  0.00  0.00    +0.000 A 
ATOM      6  C   UNL     1      -4.627  -0.829   0.000  0.00  0.00    +0.000 A 
ATOM      7  C   UNL     1      -3.913  -1.242   0.000  0.00  0.00    +0.000 A 
ATOM      8  C   UNL     1      -3.198  -0.829   0.000  0.00  0.00    +0.000 A 
ATOM      9  C   UNL     1      -3.198  -0.004   0.000  0.00  0.00    +0.000 A 
ATOM     10  C   UNL     1      -3.913   0.408   0.000  0.00  0.00    +0.000 A 
ENDBRANCH   4   9
ENDBRANCH   1   3
BRANCH   1  11
ATOM     11  C   UNL     1      -0.362  -0.001   0.000  0.00  0.00    +0.000 C 
BRANCH  11  12
ATOM     12  C   UNL     1       0.363   0.422   0.000  0.00  0.00    +0.000 C 
BRANCH  12  13
ATOM     13  C   UNL     1       1.074   0.011   0.000  0.00  0.00    +0.000 C 
BRANCH  13  14
ATOM     14  C   UNL     1       1.784   0.422   0.000  0.00  0.00    +0.000 C 
BRANCH  14  15
ATOM     15  C   UNL     1       2.495   0.011   0.000  0.00  0.00    +0.000 C 
BRANCH  15  16
ATOM     16  C   UNL     1       3.206   0.422   0.000  0.00  0.00    +0.000 C 
ATOM     17  N   UNL     1       3.916   0.011   0.000  0.00  0.00    +0.000 NA
ATOM     18  O   UNL     1       4.627   0.422   0.000  0.00  0.00    +0.000 OA
ATOM     19  O   UNL     1       3.206   1.242   0.000  0.00  0.00    +0.000 OA
ENDBRANCH  15  16
ENDBRANCH  14  15
ENDBRANCH  13  14
ENDBRANCH  12  13
ENDBRANCH  11  12
ENDBRANCH   1  11
TORSDOF 8
