REMARK  Name = 
REMARK  11 active torsions:
REMARK  status: ('A' for Active; 'I' for Inactive)
REMARK    1  A    between atoms: N_1  and  C_5
REMARK    2  A    between atoms: C_2  and  C_6
REMARK    3  A    between atoms: N_3  and  C_4
REMARK    4  A    between atoms: C_4  and  C_7
REMARK    5  A    between atoms: C_4  and  C_14
REMARK    6  A    between atoms: C_7  and  C_12
REMARK    7  A    between atoms: C_9  and  C_23
REMARK    8  A    between atoms: C_10  and  O_16
REMARK    9  A    between atoms: C_10  and  C_24
REMARK   10  A    between atoms: C_14  and  O_16
REMARK   11  A    between atoms: C_23  and  C_24
REMARK                            x       y       z     vdW  Elec       q    Type
REMARK                         _______ _______ _______ _____ _____    ______ ____
ROOT
ATOM      1  C   UNL     1       0.348   0.942   0.000  0.00  0.00    +0.000 C 
ENDROOT
BRANCH   1   3
ATOM      2  C   UNL     1       1.744   0.967   0.000  0.00  0.00    +0.000 C 
ATOM      3  N   UNL     1       1.029   1.367   0.000  0.00  0.00    +0.000 NA
ATOM      4  O   UNL     1       1.778   0.140   0.000  0.00  0.00    +0.000 OA
BRANCH   2   5
ATOM      5  C   UNL     1       2.469   1.392   0.000  0.00  0.00    +0.000 C 
ATOM      6 CL   UNL     1       3.194   1.000   0.000  0.00  0.00    +0.000 Cl
ATOM      7 CL   UNL     1       2.440   2.223   0.000  0.00  0.00    +0.000 Cl
ENDBRANCH   2   5
ENDBRANCH   1   3
BRANCH   1   8
ATOM      8  C   UNL     1      -0.362   1.339   0.000  0.00  0.00    +0.000 C 
ATOM      9  O   UNL     1      -0.362   2.160   0.000  0.00  0.00    +0.000 OA
BRANCH   8  11
ATOM     10  C   UNL     1      -2.522   0.087   0.000  0.00  0.00    +0.000 A 
ATOM     11  C   UNL     1      -1.092   0.933   0.000  0.00  0.00    +0.000 A 
ATOM     12  C   UNL     1      -1.798  -0.299   0.000  0.00  0.00    +0.000 A 
ATOM     13  C   UNL     1      -2.522   0.913   0.000  0.00  0.00    +0.000 A 
ATOM     14  C   UNL     1      -1.802   1.334   0.000  0.00  0.00    +0.000 A 
ATOM     15  C   UNL     1      -1.092   0.130   0.000  0.00  0.00    +0.000 A 
BRANCH  10  16
ATOM     16  N   UNL     1      -3.233  -0.304   0.000  0.00  0.00    +0.000 N 
ATOM     17  O   UNL     1      -3.958   0.077   0.000  0.00  0.00    +0.000 OA
ATOM     18  O   UNL     1      -3.247  -1.131   0.000  0.00  0.00    +0.000 OA
ENDBRANCH  10  16
ENDBRANCH   8  11
ENDBRANCH   1   8
BRANCH   1  19
ATOM     19  C   UNL     1       0.372   0.130   0.000  0.00  0.00    +0.000 C 
BRANCH  19  20
ATOM     20  O   UNL     1       1.087  -0.276   0.000  0.00  0.00    +0.000 OA
BRANCH  20  21
ATOM     21  C   UNL     1       1.107  -1.102   0.000  0.00  0.00    +0.000 C 
ATOM     22  O   UNL     1       0.396  -1.537   0.000  0.00  0.00    +0.000 OA
BRANCH  21  23
ATOM     23  C   UNL     1       1.836  -1.493   0.000  0.00  0.00    +0.000 C 
BRANCH  23  24
ATOM     24  C   UNL     1       2.537  -1.044   0.000  0.00  0.00    +0.000 C 
BRANCH  24  25
ATOM     25  C   UNL     1       3.262  -1.430   0.000  0.00  0.00    +0.000 C 
ATOM     26  O   UNL     1       3.958  -1.000   0.000  0.00  0.00    +0.000 OA
ATOM     27  O   UNL     1       3.281  -2.223   0.000  0.00  0.00    +0.000 OA
ENDBRANCH  24  25
ENDBRANCH  23  24
ENDBRANCH  21  23
ENDBRANCH  20  21
ENDBRANCH  19  20
ENDBRANCH   1  19
TORSDOF 11
