REMARK  Name = 
REMARK  5 active torsions:
REMARK  status: ('A' for Active; 'I' for Inactive)
REMARK    1  A    between atoms: C_6  and  C_8
REMARK    2  A    between atoms: C_17  and  C_18
REMARK    3  A    between atoms: C_17  and  C_25
REMARK    4  A    between atoms: C_19  and  C_23
REMARK    5  A    between atoms: C_21  and  C_23
REMARK                            x       y       z     vdW  Elec       q    Type
REMARK                         _______ _______ _______ _____ _____    ______ ____
ROOT
ATOM      1  C   UNL     1      -1.464   1.729   0.000  0.00  0.00    +0.000 C 
ATOM      2  C   UNL     1      -1.464   0.079   0.000  0.00  0.00    +0.000 C 
ATOM      3  C   UNL     1       0.035   0.236   0.000  0.00  0.00    +0.000 C 
ATOM      4  C   UNL     1       0.520   0.904   0.000  0.00  0.00    +0.000 C 
ATOM      5  C   UNL     1      -2.179   1.316   0.000  0.00  0.00    +0.000 C 
ATOM      6  C   UNL     1      -1.464  -0.746   0.000  0.00  0.00    +0.000 C 
ATOM      7  C   UNL     1      -2.179   0.491   0.000  0.00  0.00    +0.000 C 
ATOM      8  C   UNL     1       0.035   1.571   0.000  0.00  0.00    +0.000 C 
ATOM      9  C   UNL     1      -0.750   0.491   0.000  0.00  0.00    +0.000 C 
ATOM     10  C   UNL     1      -0.750   1.316   0.000  0.00  0.00    +0.000 C 
ATOM     11  C   UNL     1      -0.750   2.141   0.000  0.00  0.00    +0.000 C 
ENDROOT
BRANCH   6  12
ATOM     12  C   UNL     1      -2.179  -1.159   0.000  0.00  0.00    +0.000 C 
ATOM     13  C   UNL     1      -2.179  -1.984   0.000  0.00  0.00    +0.000 C 
ATOM     14  C   UNL     1      -1.464  -2.396   0.000  0.00  0.00    +0.000 C 
ATOM     15  C   UNL     1      -2.893  -2.396   0.000  0.00  0.00    +0.000 C 
ATOM     16  C   UNL     1      -1.464  -3.221   0.000  0.00  0.00    +0.000 C 
ATOM     17  C   UNL     1      -2.893  -3.221   0.000  0.00  0.00    +0.000 C 
ATOM     18  C   UNL     1      -2.179  -3.634   0.000  0.00  0.00    +0.000 C 
ATOM     19  O   UNL     1      -3.608  -3.634   0.000  0.00  0.00    +0.000 OA
ATOM     20  O   UNL     1      -0.750  -3.634   0.000  0.00  0.00    +0.000 OA
ENDBRANCH   6  12
BRANCH   8  22
ATOM     21  C   UNL     1      -0.679   2.809   0.000  0.00  0.00    +0.000 C 
ATOM     22  C   UNL     1       0.035   2.396   0.000  0.00  0.00    +0.000 C 
BRANCH  22  23
ATOM     23  C   UNL     1       0.750   2.809   0.000  0.00  0.00    +0.000 C 
ATOM     24  C   UNL     1       1.464   2.396   0.000  0.00  0.00    +0.000 C 
BRANCH  24  25
ATOM     25  C   UNL     1       2.179   2.809   0.000  0.00  0.00    +0.000 C 
ATOM     26  C   UNL     1       2.179   3.634   0.000  0.00  0.00    +0.000 C 
BRANCH  25  28
ATOM     27  C   UNL     1       3.608   2.809   0.000  0.00  0.00    +0.000 C 
ATOM     28  C   UNL     1       2.893   2.396   0.000  0.00  0.00    +0.000 C 
ATOM     29  C   UNL     1       2.893   1.571   0.000  0.00  0.00    +0.000 C 
ATOM     30  O   UNL     1       3.608   1.984   0.000  0.00  0.00    +0.000 OA
ENDBRANCH  25  28
ENDBRANCH  24  25
ENDBRANCH  22  23
ENDBRANCH   8  22
TORSDOF 5
