REMARK  Name = 
REMARK  7 active torsions:
REMARK  status: ('A' for Active; 'I' for Inactive)
REMARK    1  A    between atoms: C_2  and  C_5
REMARK    2  A    between atoms: N_13  and  C_14
REMARK    3  A    between atoms: C_17  and  C_20
REMARK    4  A    between atoms: C_26  and  O_29
REMARK    5  A    between atoms: O_29  and  C_30
REMARK    6  A    between atoms: C_30  and  C_31
REMARK    7  A    between atoms: C_31  and  N_32
REMARK                            x       y       z     vdW  Elec       q    Type
REMARK                         _______ _______ _______ _____ _____    ______ ____
ROOT
ATOM      1  C   UNL     1      -0.471  -2.057   0.000  0.00  0.00    +0.000 A 
ATOM      2  C   UNL     1       0.206  -2.529   0.000  0.00  0.00    +0.000 A 
ATOM      3  N   UNL     1       0.864  -2.031   0.000  0.00  0.00    +0.000 N 
ATOM      4  C   UNL     1       1.688  -2.015   0.000  0.00  0.00    +0.000 A 
ATOM      5  C   UNL     1       1.928  -1.225   0.000  0.00  0.00    +0.000 A 
ATOM      6  C   UNL     1       2.731  -1.038   0.000  0.00  0.00    +0.000 A 
ATOM      7  C   UNL     1       3.295  -1.640   0.000  0.00  0.00    +0.000 A 
ATOM      8  C   UNL     1       3.056  -2.429   0.000  0.00  0.00    +0.000 A 
ATOM      9  C   UNL     1       2.252  -2.617   0.000  0.00  0.00    +0.000 A 
ATOM     10  S   UNL     1       1.251  -0.753   0.000  0.00  0.00    +0.000 S 
ATOM     11  C   UNL     1       0.593  -1.252   0.000  0.00  0.00    +0.000 A 
ATOM     12  N   UNL     1      -0.232  -1.268   0.000  0.00  0.00    +0.000 NA
ENDROOT
BRANCH   1  16
ATOM     13  C   UNL     1      -2.809  -2.868   0.000  0.00  0.00    +0.000 A 
ATOM     14  C   UNL     1      -2.654  -2.058   0.000  0.00  0.00    +0.000 A 
ATOM     15  C   UNL     1      -1.874  -1.788   0.000  0.00  0.00    +0.000 A 
ATOM     16  C   UNL     1      -1.250  -2.328   0.000  0.00  0.00    +0.000 A 
ATOM     17  C   UNL     1      -1.406  -3.138   0.000  0.00  0.00    +0.000 A 
ATOM     18  C   UNL     1      -2.186  -3.408   0.000  0.00  0.00    +0.000 A 
BRANCH  13  27
ATOM     19  C   UNL     1      -5.324  -6.198   0.000  0.00  0.00    +0.000 A 
ATOM     20  C   UNL     1      -5.426  -5.380   0.000  0.00  0.00    +0.000 A 
ATOM     21  C   UNL     1      -4.679  -5.029   0.000  0.00  0.00    +0.000 A 
ATOM     22  N   UNL     1      -4.115  -5.631   0.000  0.00  0.00    +0.000 NA
ATOM     23  O   UNL     1      -4.514  -6.354   0.000  0.00  0.00    +0.000 OA
ATOM     24  N   UNL     1      -4.524  -4.219   0.000  0.00  0.00    +0.000 NA
ATOM     25  C   UNL     1      -3.744  -3.949   0.000  0.00  0.00    +0.000 C 
ATOM     26  O   UNL     1      -3.120  -4.489   0.000  0.00  0.00    +0.000 OA
ATOM     27  N   UNL     1      -3.589  -3.139   0.000  0.00  0.00    +0.000 NA
BRANCH  19  29
ATOM     28  C   UNL     1      -6.528  -7.326   0.000  0.00  0.00    +0.000 C 
ATOM     29  C   UNL     1      -5.926  -6.762   0.000  0.00  0.00    +0.000 C 
ATOM     30  C   UNL     1      -5.362  -7.364   0.000  0.00  0.00    +0.000 C 
ATOM     31  C   UNL     1      -6.490  -6.160   0.000  0.00  0.00    +0.000 C 
ENDBRANCH  19  29
ENDBRANCH  13  27
ENDBRANCH   1  16
BRANCH   7  32
ATOM     32  O   UNL     1       4.099  -1.452   0.000  0.00  0.00    +0.000 OA
BRANCH  32  33
ATOM     33  C   UNL     1       4.663  -2.054   0.000  0.00  0.00    +0.000 C 
BRANCH  33  34
ATOM     34  C   UNL     1       5.466  -1.867   0.000  0.00  0.00    +0.000 C 
BRANCH  34  35
ATOM     35  N   UNL     1       5.706  -1.078   0.000  0.00  0.00    +0.000 NA
ATOM     36  C   UNL     1       5.142  -0.475   0.000  0.00  0.00    +0.000 C 
ATOM     37  C   UNL     1       5.381   0.314   0.000  0.00  0.00    +0.000 C 
ATOM     38  O   UNL     1       6.184   0.501   0.000  0.00  0.00    +0.000 OA
ATOM     39  C   UNL     1       6.748  -0.101   0.000  0.00  0.00    +0.000 C 
ATOM     40  C   UNL     1       6.509  -0.890   0.000  0.00  0.00    +0.000 C 
ENDBRANCH  34  35
ENDBRANCH  33  34
ENDBRANCH  32  33
ENDBRANCH   7  32
TORSDOF 7
