REMARK  Name = 
REMARK  15 active torsions:
REMARK  status: ('A' for Active; 'I' for Inactive)
REMARK    1  A    between atoms: C_2  and  C_3
REMARK    2  A    between atoms: C_7  and  C_75
REMARK    3  A    between atoms: N_10  and  C_71
REMARK    4  A    between atoms: C_23  and  C_64
REMARK    5  A    between atoms: C_27  and  C_54
REMARK    6  A    between atoms: C_31  and  C_44
REMARK    7  A    between atoms: C_35  and  C_39
REMARK    8  A    between atoms: C_39  and  C_40
REMARK    9  A    between atoms: C_40  and  C_41
REMARK   10  A    between atoms: C_41  and  C_42
REMARK   11  A    between atoms: C_44  and  C_45
REMARK   12  A    between atoms: C_54  and  C_55
REMARK   13  A    between atoms: C_64  and  C_65
REMARK   14  A    between atoms: C_71  and  C_72
REMARK   15  A    between atoms: C_75  and  C_76
REMARK                            x       y       z     vdW  Elec       q    Type
REMARK                         _______ _______ _______ _____ _____    ______ ____
ROOT
ATOM      1  C   UNL     1       6.855 -10.212   0.000  0.00  0.00    +0.000 C 
ATOM      2  C   UNL     1       6.600 -10.996   0.000  0.00  0.00    +0.000 C 
ATOM      3  O   UNL     1       6.686 -11.817   0.000  0.00  0.00    +0.000 OA
ATOM      4  N   UNL     1       5.793 -11.168   0.000  0.00  0.00    +0.000 NA
ATOM      5  C   UNL     1       5.241 -10.555   0.000  0.00  0.00    +0.000 C 
ATOM      6  C   UNL     1       5.496  -9.770   0.000  0.00  0.00    +0.000 C 
ATOM      7  O   UNL     1       6.303  -9.599   0.000  0.00  0.00    +0.000 OA
ATOM      8  N   UNL     1       4.944  -9.157   0.000  0.00  0.00    +0.000 N 
ATOM      9  C   UNL     1       5.199  -8.373   0.000  0.00  0.00    +0.000 C 
ATOM     10  C   UNL     1       4.647  -7.760   0.000  0.00  0.00    +0.000 C 
ATOM     11  C   UNL     1       4.902  -6.975   0.000  0.00  0.00    +0.000 C 
ATOM     12  C   UNL     1       4.350  -6.362   0.000  0.00  0.00    +0.000 C 
ATOM     13  O   UNL     1       3.543  -6.533   0.000  0.00  0.00    +0.000 OA
ATOM     14  N   UNL     1       4.605  -5.577   0.000  0.00  0.00    +0.000 NA
ATOM     15  C   UNL     1       4.053  -4.964   0.000  0.00  0.00    +0.000 C 
ATOM     16  C   UNL     1       4.308  -4.179   0.000  0.00  0.00    +0.000 C 
ATOM     17  C   UNL     1       3.756  -3.566   0.000  0.00  0.00    +0.000 C 
ATOM     18  C   UNL     1       4.011  -2.782   0.000  0.00  0.00    +0.000 C 
ATOM     19  O   UNL     1       3.459  -2.169   0.000  0.00  0.00    +0.000 OA
ATOM     20  N   UNL     1       4.818  -2.610   0.000  0.00  0.00    +0.000 NA
ATOM     21  C   UNL     1       5.370  -3.223   0.000  0.00  0.00    +0.000 C 
ATOM     22  C   UNL     1       6.177  -3.052   0.000  0.00  0.00    +0.000 C 
ATOM     23  O   UNL     1       6.431  -2.267   0.000  0.00  0.00    +0.000 OA
ATOM     24  N   UNL     1       6.729  -3.665   0.000  0.00  0.00    +0.000 NA
ATOM     25  C   UNL     1       6.474  -4.449   0.000  0.00  0.00    +0.000 C 
ATOM     26  C   UNL     1       7.026  -5.063   0.000  0.00  0.00    +0.000 C 
ATOM     27  O   UNL     1       7.578  -4.449   0.000  0.00  0.00    +0.000 OA
ATOM     28  N   UNL     1       6.771  -5.847   0.000  0.00  0.00    +0.000 NA
ATOM     29  C   UNL     1       7.323  -6.460   0.000  0.00  0.00    +0.000 C 
ATOM     30  C   UNL     1       7.068  -7.245   0.000  0.00  0.00    +0.000 C 
ATOM     31  O   UNL     1       6.261  -7.416   0.000  0.00  0.00    +0.000 OA
ATOM     32  N   UNL     1       7.620  -7.858   0.000  0.00  0.00    +0.000 NA
ATOM     33  C   UNL     1       7.365  -8.643   0.000  0.00  0.00    +0.000 C 
ATOM     34  C   UNL     1       7.917  -9.256   0.000  0.00  0.00    +0.000 C 
ATOM     35  O   UNL     1       8.724  -9.084   0.000  0.00  0.00    +0.000 OA
ATOM     36  N   UNL     1       7.662 -10.040   0.000  0.00  0.00    +0.000 NA
ENDROOT
BRANCH   1  38
ATOM     37  C   UNL     1       7.152 -11.610   0.000  0.00  0.00    +0.000 C 
ATOM     38  C   UNL     1       7.407 -10.825   0.000  0.00  0.00    +0.000 C 
ATOM     39  O   UNL     1       8.214 -10.653   0.000  0.00  0.00    +0.000 OA
ENDBRANCH   1  38
BRANCH  21  40
ATOM     40  C   UNL     1       5.625  -2.439   0.000  0.00  0.00    +0.000 C 
BRANCH  40  41
ATOM     41  C   UNL     1       5.072  -1.826   0.000  0.00  0.00    +0.000 A 
ATOM     42  C   UNL     1       4.266  -1.997   0.000  0.00  0.00    +0.000 A 
ATOM     43  C   UNL     1       3.713  -1.384   0.000  0.00  0.00    +0.000 A 
ATOM     44  C   UNL     1       3.969  -0.599   0.000  0.00  0.00    +0.000 A 
ATOM     45  C   UNL     1       4.775  -0.428   0.000  0.00  0.00    +0.000 A 
ATOM     46  C   UNL     1       5.327  -1.041   0.000  0.00  0.00    +0.000 A 
ENDBRANCH  40  41
ENDBRANCH  21  40
BRANCH  33  47
ATOM     47  C   UNL     1       8.172  -8.471   0.000  0.00  0.00    +0.000 C 
BRANCH  47  48
ATOM     48  C   UNL     1       8.427  -7.686   0.000  0.00  0.00    +0.000 C 
BRANCH  48  49
ATOM     49  C   UNL     1       9.234  -7.515   0.000  0.00  0.00    +0.000 C 
BRANCH  49  50
ATOM     50  C   UNL     1       9.489  -6.730   0.000  0.00  0.00    +0.000 C 
ATOM     51  N   UNL     1      10.296  -6.559   0.000  0.00  0.00    +0.000 NA
ENDBRANCH  49  50
ENDBRANCH  48  49
ENDBRANCH  47  48
ENDBRANCH  33  47
BRANCH   8  52
ATOM     52  C   UNL     1       4.137  -9.329   0.000  0.00  0.00    +0.000 C 
BRANCH  52  53
ATOM     53  C   UNL     1       3.585  -8.716   0.000  0.00  0.00    +0.000 C 
ATOM     54  O   UNL     1       2.778  -8.887   0.000  0.00  0.00    +0.000 OA
ATOM     55  N   UNL     1       3.840  -7.931   0.000  0.00  0.00    +0.000 NA
ENDBRANCH  52  53
ENDBRANCH   8  52
BRANCH  29  56
ATOM     56  C   UNL     1       8.130  -6.289   0.000  0.00  0.00    +0.000 C 
BRANCH  56  57
ATOM     57  C   UNL     1       8.385  -5.504   0.000  0.00  0.00    +0.000 A 
ATOM     58  C   UNL     1       7.900  -4.837   0.000  0.00  0.00    +0.000 A 
ATOM     59  N   UNL     1       8.385  -4.169   0.000  0.00  0.00    +0.000 NA
ATOM     60  C   UNL     1       9.169  -4.424   0.000  0.00  0.00    +0.000 A 
ATOM     61  C   UNL     1       9.169  -5.249   0.000  0.00  0.00    +0.000 A 
ATOM     62  C   UNL     1       9.884  -5.662   0.000  0.00  0.00    +0.000 A 
ATOM     63  C   UNL     1      10.598  -5.249   0.000  0.00  0.00    +0.000 A 
ATOM     64  C   UNL     1      10.598  -4.424   0.000  0.00  0.00    +0.000 A 
ATOM     65  C   UNL     1       9.884  -4.012   0.000  0.00  0.00    +0.000 A 
ENDBRANCH  56  57
ENDBRANCH  29  56
BRANCH   5  66
ATOM     66  C   UNL     1       4.434 -10.726   0.000  0.00  0.00    +0.000 C 
BRANCH  66  67
ATOM     67  C   UNL     1       4.179 -11.511   0.000  0.00  0.00    +0.000 A 
ATOM     68  C   UNL     1       4.731 -12.124   0.000  0.00  0.00    +0.000 A 
ATOM     69  C   UNL     1       4.476 -12.909   0.000  0.00  0.00    +0.000 A 
ATOM     70  C   UNL     1       3.669 -13.080   0.000  0.00  0.00    +0.000 A 
ATOM     71  C   UNL     1       3.117 -12.467   0.000  0.00  0.00    +0.000 A 
ATOM     72  C   UNL     1       3.372 -11.683   0.000  0.00  0.00    +0.000 A 
ENDBRANCH  66  67
ENDBRANCH   5  66
BRANCH  25  73
ATOM     73  C   UNL     1       7.281  -4.278   0.000  0.00  0.00    +0.000 C 
BRANCH  73  74
ATOM     74  C   UNL     1       7.536  -3.493   0.000  0.00  0.00    +0.000 A 
ATOM     75  C   UNL     1       7.051  -2.826   0.000  0.00  0.00    +0.000 A 
ATOM     76  N   UNL     1       7.536  -2.159   0.000  0.00  0.00    +0.000 NA
ATOM     77  C   UNL     1       8.320  -2.413   0.000  0.00  0.00    +0.000 A 
ATOM     78  C   UNL     1       8.320  -3.238   0.000  0.00  0.00    +0.000 A 
ATOM     79  C   UNL     1       9.035  -3.651   0.000  0.00  0.00    +0.000 A 
ATOM     80  C   UNL     1       9.749  -3.238   0.000  0.00  0.00    +0.000 A 
ATOM     81  C   UNL     1       9.749  -2.413   0.000  0.00  0.00    +0.000 A 
ATOM     82  C   UNL     1       9.035  -2.001   0.000  0.00  0.00    +0.000 A 
ENDBRANCH  73  74
ENDBRANCH  25  73
TORSDOF 15
