REMARK  Name = 
REMARK  3 active torsions:
REMARK  status: ('A' for Active; 'I' for Inactive)
REMARK    1  A    between atoms: C_4  and  C_7
REMARK    2  A    between atoms: C_7  and  C_8
REMARK    3  A    between atoms: N_10  and  C_11
REMARK                            x       y       z     vdW  Elec       q    Type
REMARK                         _______ _______ _______ _____ _____    ______ ____
ROOT
ATOM      1  C   UNL     1       3.572  -1.238   0.000  0.00  0.00    +0.000 C 
ATOM      2  O   UNL     1       4.287  -1.650   0.000  0.00  0.00    +0.000 OA
ATOM      3  N   UNL     1       3.572  -0.412   0.000  0.00  0.00    +0.000 NA
ENDROOT
BRANCH   3   4
ATOM      4  C   UNL     1       4.287   0.000   0.000  0.00  0.00    +0.000 C 
ATOM      5  C   UNL     1       4.287   0.825   0.000  0.00  0.00    +0.000 C 
ATOM      6  C   UNL     1       5.001   1.238   0.000  0.00  0.00    +0.000 C 
ATOM      7  C   UNL     1       5.716   0.825   0.000  0.00  0.00    +0.000 C 
ATOM      8  O   UNL     1       6.430   1.238   0.000  0.00  0.00    +0.000 OA
ATOM      9  N   UNL     1       5.716   0.000   0.000  0.00  0.00    +0.000 NA
ATOM     10  C   UNL     1       5.001  -0.412   0.000  0.00  0.00    +0.000 C 
ATOM     11  O   UNL     1       5.001  -1.238   0.000  0.00  0.00    +0.000 OA
ENDBRANCH   3   4
BRANCH   1  12
ATOM     12  C   UNL     1       2.858  -1.650   0.000  0.00  0.00    +0.000 C 
BRANCH  12  16
ATOM     13  C   UNL     1       2.858  -4.125   0.000  0.00  0.00    +0.000 A 
ATOM     14  C   UNL     1       2.143  -3.712   0.000  0.00  0.00    +0.000 A 
ATOM     15  C   UNL     1       2.143  -2.888   0.000  0.00  0.00    +0.000 A 
ATOM     16  C   UNL     1       2.858  -2.475   0.000  0.00  0.00    +0.000 A 
ATOM     17  C   UNL     1       3.572  -2.888   0.000  0.00  0.00    +0.000 A 
ATOM     18  C   UNL     1       3.572  -3.712   0.000  0.00  0.00    +0.000 A 
ENDBRANCH  12  16
ENDBRANCH   1  12
TORSDOF 3
