REMARK  Name = 
REMARK  12 active torsions:
REMARK  status: ('A' for Active; 'I' for Inactive)
REMARK    1  A    between atoms: C_5  and  C_17
REMARK    2  A    between atoms: C_6  and  C_8
REMARK    3  A    between atoms: C_8  and  N_9
REMARK    4  A    between atoms: C_8  and  C_10
REMARK    5  A    between atoms: C_13  and  O_15
REMARK    6  A    between atoms: C_20  and  C_22
REMARK    7  A    between atoms: C_29  and  C_32
REMARK    8  A    between atoms: C_39  and  C_41
REMARK    9  A    between atoms: C_46  and  C_48
REMARK   10  A    between atoms: C_48  and  N_49
REMARK   11  A    between atoms: C_48  and  C_50
REMARK   12  A    between atoms: C_53  and  O_55
REMARK                            x       y       z     vdW  Elec       q    Type
REMARK                         _______ _______ _______ _____ _____    ______ ____
ROOT
ATOM      1  C   UNL     1      -1.996   0.579   0.000  0.00  0.00    +0.000 A 
ATOM      2  C   UNL     1      -1.281   0.991   0.000  0.00  0.00    +0.000 A 
ATOM      3  C   UNL     1      -1.996  -0.246   0.000  0.00  0.00    +0.000 A 
ATOM      4  C   UNL     1      -1.281  -0.659   0.000  0.00  0.00    +0.000 A 
ATOM      5  C   UNL     1      -0.567  -0.246   0.000  0.00  0.00    +0.000 A 
ATOM      6  C   UNL     1      -0.567   0.579   0.000  0.00  0.00    +0.000 A 
ATOM      7  C   UNL     1       0.148  -0.659   0.000  0.00  0.00    +0.000 A 
ATOM      8  C   UNL     1       0.862  -0.246   0.000  0.00  0.00    +0.000 A 
ATOM      9  C   UNL     1       0.862   0.579   0.000  0.00  0.00    +0.000 A 
ATOM     10  C   UNL     1       0.148   0.991   0.000  0.00  0.00    +0.000 A 
ENDROOT
BRANCH   8  11
ATOM     11  C   UNL     1       1.577  -0.659   0.000  0.00  0.00    +0.000 A 
ATOM     12  C   UNL     1       2.291  -0.246   0.000  0.00  0.00    +0.000 A 
ATOM     13  C   UNL     1       1.577  -1.484   0.000  0.00  0.00    +0.000 A 
ATOM     14  C   UNL     1       2.291  -1.896   0.000  0.00  0.00    +0.000 A 
ATOM     15  C   UNL     1       3.006  -1.484   0.000  0.00  0.00    +0.000 A 
ATOM     16  C   UNL     1       3.006  -0.659   0.000  0.00  0.00    +0.000 A 
ATOM     17  N   UNL     1       3.790  -1.739   0.000  0.00  0.00    +0.000 NA
ATOM     18  C   UNL     1       4.275  -1.071   0.000  0.00  0.00    +0.000 A 
ATOM     19  N   UNL     1       3.790  -0.404   0.000  0.00  0.00    +0.000 NA
BRANCH  18  20
ATOM     20  C   UNL     1       5.100  -1.071   0.000  0.00  0.00    +0.000 C 
ATOM     21  C   UNL     1       5.619  -0.430   0.000  0.00  0.00    +0.000 C 
ATOM     22  N   UNL     1       5.549  -1.763   0.000  0.00  0.00    +0.000 N 
ATOM     23  C   UNL     1       6.346  -1.550   0.000  0.00  0.00    +0.000 C 
ATOM     24  C   UNL     1       6.389  -0.726   0.000  0.00  0.00    +0.000 C 
ATOM     25  C   UNL     1       5.336  -2.560   0.000  0.00  0.00    +0.000 C 
ATOM     26  O   UNL     1       4.539  -2.774   0.000  0.00  0.00    +0.000 OA
BRANCH  25  27
ATOM     27  C   UNL     1       5.919  -3.143   0.000  0.00  0.00    +0.000 C 
BRANCH  27  28
ATOM     28  C   UNL     1       6.716  -2.930   0.000  0.00  0.00    +0.000 C 
ATOM     29  C   UNL     1       7.300  -3.513   0.000  0.00  0.00    +0.000 C 
ATOM     30  C   UNL     1       6.930  -2.133   0.000  0.00  0.00    +0.000 C 
ENDBRANCH  27  28
BRANCH  27  31
ATOM     31  N   UNL     1       5.706  -3.940   0.000  0.00  0.00    +0.000 NA
ATOM     32  C   UNL     1       6.289  -4.524   0.000  0.00  0.00    +0.000 C 
ATOM     33  O   UNL     1       6.075  -5.321   0.000  0.00  0.00    +0.000 OA
BRANCH  32  34
ATOM     34  O   UNL     1       7.086  -4.310   0.000  0.00  0.00    +0.000 OA
ATOM     35  C   UNL     1       7.669  -4.894   0.000  0.00  0.00    +0.000 C 
ENDBRANCH  32  34
ENDBRANCH  27  31
ENDBRANCH  25  27
ENDBRANCH  18  20
ENDBRANCH   8  11
BRANCH   1  39
ATOM     36  C   UNL     1      -4.016   1.269   0.000  0.00  0.00    +0.000 A 
ATOM     37  N   UNL     1      -3.603   1.983   0.000  0.00  0.00    +0.000 NA
ATOM     38  N   UNL     1      -3.464   0.656   0.000  0.00  0.00    +0.000 NA
ATOM     39  C   UNL     1      -2.710   0.991   0.000  0.00  0.00    +0.000 A 
ATOM     40  C   UNL     1      -2.796   1.812   0.000  0.00  0.00    +0.000 A 
BRANCH  36  45
ATOM     41  N   UNL     1      -5.388   1.796   0.000  0.00  0.00    +0.000 N 
ATOM     42  C   UNL     1      -6.142   1.460   0.000  0.00  0.00    +0.000 C 
ATOM     43  C   UNL     1      -6.056   0.639   0.000  0.00  0.00    +0.000 C 
ATOM     44  C   UNL     1      -5.249   0.468   0.000  0.00  0.00    +0.000 C 
ATOM     45  C   UNL     1      -4.836   1.183   0.000  0.00  0.00    +0.000 C 
ATOM     46  C   UNL     1      -5.217   2.603   0.000  0.00  0.00    +0.000 C 
ATOM     47  O   UNL     1      -4.432   2.857   0.000  0.00  0.00    +0.000 OA
BRANCH  46  48
ATOM     48  C   UNL     1      -5.830   3.155   0.000  0.00  0.00    +0.000 C 
BRANCH  48  49
ATOM     49  C   UNL     1      -6.615   2.900   0.000  0.00  0.00    +0.000 C 
ATOM     50  C   UNL     1      -7.228   3.451   0.000  0.00  0.00    +0.000 C 
ATOM     51  C   UNL     1      -6.786   2.093   0.000  0.00  0.00    +0.000 C 
ENDBRANCH  48  49
BRANCH  48  52
ATOM     52  N   UNL     1      -5.659   3.962   0.000  0.00  0.00    +0.000 NA
ATOM     53  C   UNL     1      -6.272   4.513   0.000  0.00  0.00    +0.000 C 
ATOM     54  O   UNL     1      -6.100   5.321   0.000  0.00  0.00    +0.000 OA
BRANCH  53  55
ATOM     55  O   UNL     1      -7.056   4.258   0.000  0.00  0.00    +0.000 OA
ATOM     56  C   UNL     1      -7.669   4.811   0.000  0.00  0.00    +0.000 C 
ENDBRANCH  53  55
ENDBRANCH  48  52
ENDBRANCH  46  48
ENDBRANCH  36  45
ENDBRANCH   1  39
TORSDOF 12
