REMARK  Name = 
REMARK  4 active torsions:
REMARK  status: ('A' for Active; 'I' for Inactive)
REMARK    1  A    between atoms: N_8  and  C_9
REMARK    2  A    between atoms: C_11  and  C_12
REMARK    3  A    between atoms: C_16  and  O_17
REMARK    4  A    between atoms: O_17  and  P_21
REMARK                            x       y       z     vdW  Elec       q    Type
REMARK                         _______ _______ _______ _____ _____    ______ ____
ROOT
ATOM      1  C   UNL     1       0.151  -0.185   0.000  0.00  0.00    +0.000 C 
ATOM      2  O   UNL     1      -0.334  -0.852   0.000  0.00  0.00    +0.000 OA
ATOM      3  C   UNL     1       0.151  -1.520   0.000  0.00  0.00    +0.000 C 
ATOM      4  C   UNL     1       0.935  -1.265   0.000  0.00  0.00    +0.000 C 
ATOM      5  O   UNL     1       1.603  -1.750   0.000  0.00  0.00    +0.000 OA
ATOM      6  C   UNL     1       0.936  -0.440   0.000  0.00  0.00    +0.000 C 
ENDROOT
BRANCH   1  14
ATOM      7  C   UNL     1      -1.603   2.092   0.000  0.00  0.00    +0.000 A 
ATOM      8  N   UNL     1      -2.317   1.680   0.000  0.00  0.00    +0.000 NA
ATOM      9  N   UNL     1      -1.603   0.442   0.000  0.00  0.00    +0.000 NA
ATOM     10  C   UNL     1      -0.888   0.855   0.000  0.00  0.00    +0.000 A 
ATOM     11  C   UNL     1      -0.888   1.680   0.000  0.00  0.00    +0.000 A 
ATOM     12  N   UNL     1      -0.104   1.935   0.000  0.00  0.00    +0.000 NA
ATOM     13  C   UNL     1       0.381   1.267   0.000  0.00  0.00    +0.000 A 
ATOM     14  N   UNL     1      -0.104   0.600   0.000  0.00  0.00    +0.000 N 
ATOM     15  C   UNL     1      -2.317   0.855   0.000  0.00  0.00    +0.000 A 
ATOM     16  N   UNL     1      -3.032   0.442   0.000  0.00  0.00    +0.000 NA
ATOM     17  O   UNL     1      -1.603   2.917   0.000  0.00  0.00    +0.000 OA
ENDBRANCH   1  14
BRANCH   3  18
ATOM     18  C   UNL     1      -0.104  -2.304   0.000  0.00  0.00    +0.000 C 
ATOM     19  O   UNL     1       0.448  -2.917   0.000  0.00  0.00    +0.000 OA
ENDBRANCH   3  18
BRANCH   6  20
ATOM     20  O   UNL     1       1.603   0.045   0.000  0.00  0.00    +0.000 OA
BRANCH  20  21
ATOM     21  P   UNL     1       2.317  -0.367   0.000  0.00  0.00    +0.000 P 
ATOM     22  O   UNL     1       3.032   0.045   0.000  0.00  0.00    +0.000 OA
ATOM     23  O   UNL     1       2.317  -1.192   0.000  0.00  0.00    +0.000 OA
ATOM     24  O   UNL     1       2.317   0.458   0.000  0.00  0.00    +0.000 OA
ENDBRANCH  20  21
ENDBRANCH   6  20
TORSDOF 4
