REMARK  Name = 
REMARK  0 active torsions:
REMARK  status: ('A' for Active; 'I' for Inactive)
REMARK                            x       y       z     vdW  Elec       q    Type
REMARK                         _______ _______ _______ _____ _____    ______ ____
ROOT
ATOM      1  C   UNL     1       1.318  -0.761   0.000  0.00  0.00    +0.000 C 
ATOM      2  C   UNL     1       0.686  -0.231   0.000  0.00  0.00    +0.000 C 
ATOM      3  C   UNL     1       0.209   0.594   0.000  0.00  0.00    +0.000 C 
ATOM      4  C   UNL     1       0.924   0.181   0.000  0.00  0.00    +0.000 C 
ATOM      5  C   UNL     1       0.924  -0.643   0.000  0.00  0.00    +0.000 C 
ATOM      6  C   UNL     1       0.209  -1.056   0.000  0.00  0.00    +0.000 C 
ATOM      7  C   UNL     1      -0.505  -0.643   0.000  0.00  0.00    +0.000 C 
ATOM      8 BR   UNL     1      -0.787  -1.419   0.000  0.00  0.00    +0.000 Br
ATOM      9 BR   UNL     1      -1.318  -0.500   0.000  0.00  0.00    +0.000 Br
ATOM     10  C   UNL     1      -0.505   0.181   0.000  0.00  0.00    +0.000 C 
ATOM     11  O   UNL     1      -1.220   0.594   0.000  0.00  0.00    +0.000 OA
ATOM     12  C   UNL     1       0.209   1.419   0.000  0.00  0.00    +0.000 C 
ATOM     13  C   UNL     1       1.318   0.299   0.000  0.00  0.00    +0.000 C 
ENDROOT
TORSDOF 0
