REMARK  Name = 
REMARK  4 active torsions:
REMARK  status: ('A' for Active; 'I' for Inactive)
REMARK    1  A    between atoms: P_1  and  O_2
REMARK    2  A    between atoms: P_1  and  O_3
REMARK    3  A    between atoms: O_2  and  C_6
REMARK    4  A    between atoms: O_3  and  C_7
REMARK                            x       y       z     vdW  Elec       q    Type
REMARK                         _______ _______ _______ _____ _____    ______ ____
ROOT
ATOM      1  P   UNL     1       0.682   0.616   0.000  0.00  0.00    +0.000 P 
ATOM      2  O   UNL     1       0.652   1.442   0.000  0.00  0.00    +0.000 OA
ATOM      3  F   UNL     1       1.478   0.612   0.000  0.00  0.00    +0.000 F 
ENDROOT
BRANCH   1   4
ATOM      4  O   UNL     1      -0.174   0.616   0.000  0.00  0.00    +0.000 OA
BRANCH   4   5
ATOM      5  C   UNL     1      -1.054   0.624   0.000  0.00  0.00    +0.000 C 
ATOM      6  C   UNL     1      -1.478   1.332   0.000  0.00  0.00    +0.000 C 
ATOM      7  C   UNL     1      -1.452  -0.097   0.000  0.00  0.00    +0.000 C 
ENDBRANCH   4   5
ENDBRANCH   1   4
BRANCH   1   8
ATOM      8  O   UNL     1       0.682  -0.206   0.000  0.00  0.00    +0.000 OA
BRANCH   8   9
ATOM      9  C   UNL     1       0.682  -1.033   0.000  0.00  0.00    +0.000 C 
ATOM     10  C   UNL     1      -0.034  -1.442   0.000  0.00  0.00    +0.000 C 
ATOM     11  C   UNL     1       1.395  -1.442   0.000  0.00  0.00    +0.000 C 
ENDBRANCH   8   9
ENDBRANCH   1   8
TORSDOF 4
