REMARK  Name = 
REMARK  9 active torsions:
REMARK  status: ('A' for Active; 'I' for Inactive)
REMARK    1  A    between atoms: N_1  and  C_19
REMARK    2  A    between atoms: C_2  and  C_4
REMARK    3  A    between atoms: C_6  and  N_7
REMARK    4  A    between atoms: N_7  and  C_8
REMARK    5  A    between atoms: C_8  and  C_9
REMARK    6  A    between atoms: C_12  and  C_16
REMARK    7  A    between atoms: N_22  and  C_27
REMARK    8  A    between atoms: C_30  and  C_33
REMARK    9  A    between atoms: C_33  and  C_35
REMARK                            x       y       z     vdW  Elec       q    Type
REMARK                         _______ _______ _______ _____ _____    ______ ____
ROOT
ATOM      1  C   UNL     1       0.444   1.275   0.000  0.00  0.00    +0.000 C 
ATOM      2  C   UNL     1      -0.072   0.630   0.000  0.00  0.00    +0.000 C 
ATOM      3  C   UNL     1      -0.897   0.630   0.000  0.00  0.00    +0.000 C 
ATOM      4  N   UNL     1      -0.483   1.484   0.000  0.00  0.00    +0.000 N 
ATOM      5  C   UNL     1      -0.483   2.438   0.000  0.00  0.00    +0.000 C 
ATOM      6  C   UNL     1       0.262   2.080   0.000  0.00  0.00    +0.000 C 
ATOM      7  C   UNL     1      -1.226   2.080   0.000  0.00  0.00    +0.000 C 
ATOM      8  C   UNL     1      -1.413   1.275   0.000  0.00  0.00    +0.000 C 
ENDROOT
BRANCH   4   9
ATOM      9  C   UNL     1      -1.752   1.707   0.000  0.00  0.00    +0.000 A 
ATOM     10  C   UNL     1      -2.465   2.121   0.000  0.00  0.00    +0.000 A 
ATOM     11  C   UNL     1      -3.181   1.707   0.000  0.00  0.00    +0.000 A 
ATOM     12  C   UNL     1      -3.181   0.884   0.000  0.00  0.00    +0.000 A 
ATOM     13  C   UNL     1      -2.465   0.471   0.000  0.00  0.00    +0.000 A 
ATOM     14  N   UNL     1      -1.752   0.884   0.000  0.00  0.00    +0.000 NA
BRANCH  12  15
ATOM     15  C   UNL     1      -3.902   0.483   0.000  0.00  0.00    +0.000 C 
ATOM     16  O   UNL     1      -3.902  -0.342   0.000  0.00  0.00    +0.000 OA
BRANCH  15  17
ATOM     17  C   UNL     1      -4.617   0.897   0.000  0.00  0.00    +0.000 C 
ATOM     18  C   UNL     1      -5.448   0.897   0.000  0.00  0.00    +0.000 C 
ATOM     19  C   UNL     1      -5.032   1.609   0.000  0.00  0.00    +0.000 C 
ENDBRANCH  15  17
ENDBRANCH  12  15
ENDBRANCH   4   9
BRANCH   1  20
ATOM     20  N   UNL     1       1.159   0.862   0.000  0.00  0.00    +0.000 NA
ATOM     21  C   UNL     1       1.873   1.275   0.000  0.00  0.00    +0.000 C 
ATOM     22  O   UNL     1       1.873   2.100   0.000  0.00  0.00    +0.000 OA
BRANCH  21  23
ATOM     23  C   UNL     1       2.588   0.862   0.000  0.00  0.00    +0.000 A 
ATOM     24  C   UNL     1       2.588   0.037   0.000  0.00  0.00    +0.000 A 
ATOM     25  C   UNL     1       3.304  -0.375   0.000  0.00  0.00    +0.000 A 
ATOM     26  C   UNL     1       4.016   0.037   0.000  0.00  0.00    +0.000 A 
ATOM     27  C   UNL     1       4.016   0.862   0.000  0.00  0.00    +0.000 A 
ATOM     28  C   UNL     1       3.304   1.275   0.000  0.00  0.00    +0.000 A 
ATOM     29  C   UNL     1       3.304   2.100   0.000  0.00  0.00    +0.000 C 
BRANCH  26  30
ATOM     30  C   UNL     1       4.731  -0.375   0.000  0.00  0.00    +0.000 C 
ATOM     31  N   UNL     1       5.448   0.037   0.000  0.00  0.00    +0.000 NA
ATOM     32  O   UNL     1       4.731  -1.200   0.000  0.00  0.00    +0.000 OA
ENDBRANCH  26  30
BRANCH  25  33
ATOM     33  N   UNL     1       3.304  -1.200   0.000  0.00  0.00    +0.000 NA
BRANCH  33  34
ATOM     34  C   UNL     1       2.590  -1.613   0.000  0.00  0.00    +0.000 C 
ATOM     35  C   UNL     1       2.590  -2.438   0.000  0.00  0.00    +0.000 C 
BRANCH  34  36
ATOM     36  C   UNL     1       1.875  -1.200   0.000  0.00  0.00    +0.000 C 
ATOM     37  C   UNL     1       1.161  -1.613   0.000  0.00  0.00    +0.000 C 
ENDBRANCH  34  36
ENDBRANCH  33  34
ENDBRANCH  25  33
ENDBRANCH  21  23
ENDBRANCH   1  20
TORSDOF 9
