REMARK  Name = 
REMARK  5 active torsions:
REMARK  status: ('A' for Active; 'I' for Inactive)
REMARK    1  A    between atoms: C_2  and  C_3
REMARK    2  A    between atoms: C_3  and  N_4
REMARK    3  A    between atoms: C_3  and  C_8
REMARK    4  A    between atoms: N_4  and  C_5
REMARK    5  A    between atoms: C_8  and  C_10
REMARK                            x       y       z     vdW  Elec       q    Type
REMARK                         _______ _______ _______ _____ _____    ______ ____
ROOT
ATOM      1  C   UNL     1      -1.062  -0.030   0.000  0.00  0.00    +0.000 A 
ATOM      2  C   UNL     1      -1.792   0.374   0.000  0.00  0.00    +0.000 A 
ATOM      3  C   UNL     1      -1.792   1.178   0.000  0.00  0.00    +0.000 A 
ATOM      4  C   UNL     1      -1.090   1.634   0.000  0.00  0.00    +0.000 A 
ATOM      5  O   UNL     1      -1.090   2.531   0.000  0.00  0.00    +0.000 OA
ATOM      6  C   UNL     1      -0.374   1.243   0.000  0.00  0.00    +0.000 A 
ATOM      7  N   UNL     1       0.337   1.657   0.000  0.00  0.00    +0.000 NA
ATOM      8  C   UNL     1       1.048   1.225   0.000  0.00  0.00    +0.000 A 
ATOM      9  O   UNL     1       1.815   1.666   0.000  0.00  0.00    +0.000 OA
ATOM     10  C   UNL     1       1.048   0.369   0.000  0.00  0.00    +0.000 A 
ATOM     11  C   UNL     1       0.337  -0.030   0.000  0.00  0.00    +0.000 A 
ATOM     12  C   UNL     1      -0.374   0.388   0.000  0.00  0.00    +0.000 A 
ENDROOT
BRANCH   1  13
ATOM     13  C   UNL     1      -1.062  -0.788   0.000  0.00  0.00    +0.000 C 
ATOM     14  O   UNL     1      -1.815  -1.225   0.000  0.00  0.00    +0.000 OA
BRANCH  13  15
ATOM     15  C   UNL     1      -0.374  -1.230   0.000  0.00  0.00    +0.000 C 
BRANCH  15  17
ATOM     16  C   UNL     1      -0.969  -2.531   0.000  0.00  0.00    +0.000 C 
ATOM     17  C   UNL     1      -0.374  -2.057   0.000  0.00  0.00    +0.000 C 
ENDBRANCH  15  17
BRANCH  15  18
ATOM     18  N   UNL     1       0.318  -0.806   0.000  0.00  0.00    +0.000 NA
BRANCH  18  19
ATOM     19  C   UNL     1       1.025  -1.257   0.000  0.00  0.00    +0.000 C 
ATOM     20  C   UNL     1       1.025  -2.103   0.000  0.00  0.00    +0.000 C 
ATOM     21  C   UNL     1       1.806  -0.834   0.000  0.00  0.00    +0.000 C 
ENDBRANCH  18  19
ENDBRANCH  15  18
ENDBRANCH  13  15
ENDBRANCH   1  13
TORSDOF 5
