REMARK  Name = 
REMARK  4 active torsions:
REMARK  status: ('A' for Active; 'I' for Inactive)
REMARK    1  A    between atoms: O_2  and  C_19
REMARK    2  A    between atoms: O_2  and  C_20
REMARK    3  A    between atoms: C_23  and  C_28
REMARK    4  A    between atoms: C_24  and  C_29
REMARK                            x       y       z     vdW  Elec       q    Type
REMARK                         _______ _______ _______ _____ _____    ______ ____
ROOT
ATOM      1  O   UNL     1       0.066  -0.412   0.000  0.00  0.00    +0.000 OA
ATOM      2  O   UNL     1       1.518  -2.091   0.000  0.00  0.00    +0.000 OA
ATOM      3  O   UNL     1       2.266  -0.808   0.000  0.00  0.00    +0.000 OA
ATOM      4  O   UNL     1       0.066  -2.888   0.000  0.00  0.00    +0.000 OA
ATOM      5  O   UNL     1      -1.363  -2.062   0.000  0.00  0.00    +0.000 OA
ATOM      6  C   UNL     1       0.781  -1.650   0.000  0.00  0.00    +0.000 C 
ATOM      7  C   UNL     1       0.781  -0.825   0.000  0.00  0.00    +0.000 C 
ATOM      8  C   UNL     1       0.066  -2.062   0.000  0.00  0.00    +0.000 C 
ATOM      9  C   UNL     1      -0.648  -1.650   0.000  0.00  0.00    +0.000 C 
ATOM     10  C   UNL     1      -0.648  -0.825   0.000  0.00  0.00    +0.000 C 
ATOM     11  C   UNL     1       1.518  -0.384   0.000  0.00  0.00    +0.000 C 
ATOM     12  C   UNL     1       2.266  -1.667   0.000  0.00  0.00    +0.000 C 
ATOM     13  C   UNL     1       2.676  -2.383   0.000  0.00  0.00    +0.000 C 
ENDROOT
BRANCH  12  16
ATOM     14  O   UNL     1       3.506  -0.958   0.000  0.00  0.00    +0.000 OA
ATOM     15  O   UNL     1       3.501  -2.386   0.000  0.00  0.00    +0.000 OA
ATOM     16  C   UNL     1       3.091  -1.670   0.000  0.00  0.00    +0.000 C 
ENDBRANCH  12  16
BRANCH  10  17
ATOM     17  O   UNL     1      -1.363  -0.412   0.000  0.00  0.00    +0.000 OA
BRANCH  17  22
ATOM     18  O   UNL     1      -2.077   1.650   0.000  0.00  0.00    +0.000 OA
ATOM     19  O   UNL     1       0.066   0.412   0.000  0.00  0.00    +0.000 OA
ATOM     20  O   UNL     1       0.066   2.062   0.000  0.00  0.00    +0.000 OA
ATOM     21  O   UNL     1      -1.363   2.888   0.000  0.00  0.00    +0.000 OA
ATOM     22  C   UNL     1      -1.363   0.412   0.000  0.00  0.00    +0.000 C 
ATOM     23  C   UNL     1      -0.648   0.825   0.000  0.00  0.00    +0.000 C 
ATOM     24  C   UNL     1      -2.077   0.825   0.000  0.00  0.00    +0.000 C 
ATOM     25  C   UNL     1      -0.648   1.650   0.000  0.00  0.00    +0.000 C 
ATOM     26  C   UNL     1      -1.363   2.062   0.000  0.00  0.00    +0.000 C 
BRANCH  24  29
ATOM     27  O   UNL     1      -3.506   0.825   0.000  0.00  0.00    +0.000 OA
ATOM     28  O   UNL     1      -2.792  -0.412   0.000  0.00  0.00    +0.000 OA
ATOM     29  C   UNL     1      -2.792   0.412   0.000  0.00  0.00    +0.000 C 
ENDBRANCH  24  29
ENDBRANCH  17  22
ENDBRANCH  10  17
TORSDOF 4
