REMARK  Name = 
REMARK  8 active torsions:
REMARK  status: ('A' for Active; 'I' for Inactive)
REMARK    1  A    between atoms: C_1  and  C_19
REMARK    2  A    between atoms: C_2  and  C_15
REMARK    3  A    between atoms: C_3  and  C_13
REMARK    4  A    between atoms: C_4  and  C_9
REMARK    5  A    between atoms: C_6  and  C_10
REMARK    6  A    between atoms: C_7  and  C_21
REMARK    7  A    between atoms: C_11  and  C_12
REMARK    8  A    between atoms: C_16  and  C_17
REMARK                            x       y       z     vdW  Elec       q    Type
REMARK                         _______ _______ _______ _____ _____    ______ ____
ROOT
ATOM      1  C   UNL     1       0.412   0.000   0.000  0.00  0.00    +0.000 C 
ATOM      2  C   UNL     1      -0.412   0.000   0.000  0.00  0.00    +0.000 C 
ENDROOT
BRANCH   2   4
ATOM      3  C   UNL     1      -1.650  -0.715   0.000  0.00  0.00    +0.000 C 
ATOM      4  C   UNL     1      -0.825  -0.715   0.000  0.00  0.00    +0.000 C 
ATOM      5  C   UNL     1      -2.062   0.000   0.000  0.00  0.00    +0.000 C 
BRANCH   3   6
ATOM      6  C   UNL     1      -2.062  -1.429   0.000  0.00  0.00    +0.000 C 
ATOM      7  C   UNL     1      -2.888  -1.429   0.000  0.00  0.00    +0.000 C 
BRANCH   7   9
ATOM      8  C   UNL     1      -4.125  -2.143   0.000  0.00  0.00    +0.000 C 
ATOM      9  C   UNL     1      -3.300  -2.143   0.000  0.00  0.00    +0.000 C 
ATOM     10  C   UNL     1      -4.537  -1.429   0.000  0.00  0.00    +0.000 C 
BRANCH   8  11
ATOM     11  C   UNL     1      -4.537  -2.858   0.000  0.00  0.00    +0.000 C 
ATOM     12  O   UNL     1      -5.362  -2.858   0.000  0.00  0.00    +0.000 OA
ATOM     13  O   UNL     1      -4.125  -3.572   0.000  0.00  0.00    +0.000 OA
ENDBRANCH   8  11
ENDBRANCH   7   9
ENDBRANCH   3   6
ENDBRANCH   2   4
BRANCH   1  16
ATOM     14  C   UNL     1       1.650   0.715   0.000  0.00  0.00    +0.000 C 
ATOM     15  C   UNL     1       2.062   0.000   0.000  0.00  0.00    +0.000 C 
ATOM     16  C   UNL     1       0.825   0.715   0.000  0.00  0.00    +0.000 C 
BRANCH  14  17
ATOM     17  C   UNL     1       2.062   1.429   0.000  0.00  0.00    +0.000 C 
ATOM     18  C   UNL     1       2.888   1.429   0.000  0.00  0.00    +0.000 C 
BRANCH  18  19
ATOM     19  C   UNL     1       3.300   2.143   0.000  0.00  0.00    +0.000 C 
ATOM     20  C   UNL     1       4.125   2.143   0.000  0.00  0.00    +0.000 C 
ATOM     21  C   UNL     1       4.537   1.429   0.000  0.00  0.00    +0.000 C 
BRANCH  20  22
ATOM     22  C   UNL     1       4.537   2.858   0.000  0.00  0.00    +0.000 C 
ATOM     23  O   UNL     1       4.125   3.572   0.000  0.00  0.00    +0.000 OA
ATOM     24  O   UNL     1       5.362   2.858   0.000  0.00  0.00    +0.000 OA
ENDBRANCH  20  22
ENDBRANCH  18  19
ENDBRANCH  14  17
ENDBRANCH   1  16
TORSDOF 8
