REMARK  Name = 
REMARK  9 active torsions:
REMARK  status: ('A' for Active; 'I' for Inactive)
REMARK    1  A    between atoms: O_7  and  C_23
REMARK    2  A    between atoms: N_9  and  C_15
REMARK    3  A    between atoms: N_10  and  C_22
REMARK    4  A    between atoms: C_14  and  C_16
REMARK    5  A    between atoms: C_17  and  C_18
REMARK    6  A    between atoms: C_18  and  C_19
REMARK    7  A    between atoms: C_19  and  C_20
REMARK    8  A    between atoms: C_20  and  C_21
REMARK    9  A    between atoms: C_21  and  C_22
REMARK                            x       y       z     vdW  Elec       q    Type
REMARK                         _______ _______ _______ _____ _____    ______ ____
ROOT
ATOM      1  O   UNL     1      -1.072  -0.619   0.000  0.00  0.00    +0.000 OA
ATOM      2  N   UNL     1      -0.357  -1.856   0.000  0.00  0.00    +0.000 N 
ATOM      3  C   UNL     1      -0.357  -1.031   0.000  0.00  0.00    +0.000 C 
ATOM      4  H   UNL     1       0.086  -2.112   0.000  0.00  0.00    +0.000 HD
ENDROOT
BRANCH   2  13
ATOM      5  O   UNL     1      -1.786  -1.856   0.000  0.00  0.00    +0.000 OA
ATOM      6  O   UNL     1      -1.786  -4.331   0.000  0.00  0.00    +0.000 OA
ATOM      7  O   UNL     1      -3.215  -3.506   0.000  0.00  0.00    +0.000 OA
ATOM      8  O   UNL     1      -0.357  -3.506   0.000  0.00  0.00    +0.000 OA
ATOM      9  C   UNL     1      -1.786  -3.506   0.000  0.00  0.00    +0.000 C 
ATOM     10  C   UNL     1      -2.501  -3.094   0.000  0.00  0.00    +0.000 C 
ATOM     11  C   UNL     1      -1.072  -3.094   0.000  0.00  0.00    +0.000 C 
ATOM     12  C   UNL     1      -2.501  -2.269   0.000  0.00  0.00    +0.000 C 
ATOM     13  C   UNL     1      -1.072  -2.269   0.000  0.00  0.00    +0.000 C 
BRANCH  12  15
ATOM     14  O   UNL     1      -3.215  -1.031   0.000  0.00  0.00    +0.000 OA
ATOM     15  C   UNL     1      -3.215  -1.856   0.000  0.00  0.00    +0.000 C 
ENDBRANCH  12  15
ENDBRANCH   2  13
BRANCH   3  16
ATOM     16  C   UNL     1       0.357  -0.619   0.000  0.00  0.00    +0.000 C 
BRANCH  16  17
ATOM     17  C   UNL     1       0.357   0.206   0.000  0.00  0.00    +0.000 C 
BRANCH  17  18
ATOM     18  C   UNL     1       1.072   0.619   0.000  0.00  0.00    +0.000 C 
BRANCH  18  19
ATOM     19  C   UNL     1       1.072   1.444   0.000  0.00  0.00    +0.000 C 
BRANCH  19  20
ATOM     20  C   UNL     1       1.786   1.856   0.000  0.00  0.00    +0.000 C 
BRANCH  20  22
ATOM     21  O   UNL     1       3.215   2.681   0.000  0.00  0.00    +0.000 OA
ATOM     22  N   UNL     1       1.786   2.681   0.000  0.00  0.00    +0.000 N 
ATOM     23  C   UNL     1       2.501   3.094   0.000  0.00  0.00    +0.000 C 
ATOM     24  H   UNL     1       1.343   2.937   0.000  0.00  0.00    +0.000 HD
BRANCH  23  25
ATOM     25  O   UNL     1       2.501   3.919   0.000  0.00  0.00    +0.000 OA
ATOM     26  C   UNL     1       3.215   4.331   0.000  0.00  0.00    +0.000 C 
ENDBRANCH  23  25
ENDBRANCH  20  22
ENDBRANCH  19  20
ENDBRANCH  18  19
ENDBRANCH  17  18
ENDBRANCH  16  17
ENDBRANCH   3  16
TORSDOF 9
