REMARK  Name = 
REMARK  8 active torsions:
REMARK  status: ('A' for Active; 'I' for Inactive)
REMARK    1  A    between atoms: C_5  and  N_6
REMARK    2  A    between atoms: C_7  and  C_9
REMARK    3  A    between atoms: C_9  and  C_12
REMARK    4  A    between atoms: N_14  and  C_15
REMARK    5  A    between atoms: C_19  and  O_20
REMARK    6  A    between atoms: O_20  and  C_21
REMARK    7  A    between atoms: C_25  and  N_26
REMARK    8  A    between atoms: C_27  and  C_29
REMARK                            x       y       z     vdW  Elec       q    Type
REMARK                         _______ _______ _______ _____ _____    ______ ____
ROOT
ATOM      1  C   UNL     1      -1.820  -2.245   0.000  0.00  0.00    +0.000 A 
ATOM      2  C   UNL     1      -1.963  -1.432   0.000  0.00  0.00    +0.000 A 
ATOM      3  F   UNL     1      -2.738  -1.150   0.000  0.00  0.00    +0.000 F 
ATOM      4  C   UNL     1      -1.331  -0.902   0.000  0.00  0.00    +0.000 A 
ATOM      5  C   UNL     1      -0.556  -1.184   0.000  0.00  0.00    +0.000 A 
ATOM      6  C   UNL     1      -0.413  -1.997   0.000  0.00  0.00    +0.000 A 
ATOM      7  F   UNL     1       0.363  -2.279   0.000  0.00  0.00    +0.000 F 
ATOM      8  C   UNL     1      -1.045  -2.527   0.000  0.00  0.00    +0.000 A 
ENDROOT
BRANCH   1  11
ATOM      9  C   UNL     1      -2.309  -3.587   0.000  0.00  0.00    +0.000 C 
ATOM     10  O   UNL     1      -1.533  -3.870   0.000  0.00  0.00    +0.000 OA
ATOM     11  N   UNL     1      -2.452  -2.775   0.000  0.00  0.00    +0.000 NA
BRANCH   9  12
ATOM     12  C   UNL     1      -2.941  -4.118   0.000  0.00  0.00    +0.000 C 
ATOM     13  C   UNL     1      -2.528  -4.832   0.000  0.00  0.00    +0.000 C 
ATOM     14  C   UNL     1      -3.353  -4.832   0.000  0.00  0.00    +0.000 C 
BRANCH  12  16
ATOM     15  N   UNL     1      -4.348  -3.870   0.000  0.00  0.00    +0.000 NA
ATOM     16  C   UNL     1      -3.573  -3.587   0.000  0.00  0.00    +0.000 C 
ATOM     17  O   UNL     1      -3.429  -2.775   0.000  0.00  0.00    +0.000 OA
BRANCH  15  22
ATOM     18  F   UNL     1      -6.876  -1.748   0.000  0.00  0.00    +0.000 F 
ATOM     19  C   UNL     1      -6.244  -2.279   0.000  0.00  0.00    +0.000 A 
ATOM     20  C   UNL     1      -5.468  -1.997   0.000  0.00  0.00    +0.000 A 
ATOM     21  C   UNL     1      -4.837  -2.527   0.000  0.00  0.00    +0.000 A 
ATOM     22  C   UNL     1      -4.980  -3.339   0.000  0.00  0.00    +0.000 A 
ATOM     23  C   UNL     1      -5.755  -3.622   0.000  0.00  0.00    +0.000 A 
ATOM     24  C   UNL     1      -6.387  -3.091   0.000  0.00  0.00    +0.000 A 
ENDBRANCH  15  22
ENDBRANCH  12  16
ENDBRANCH   9  12
ENDBRANCH   1  11
BRANCH   5  25
ATOM     25  O   UNL     1       0.076  -0.654   0.000  0.00  0.00    +0.000 OA
BRANCH  25  26
ATOM     26  C   UNL     1      -0.067   0.159   0.000  0.00  0.00    +0.000 A 
ATOM     27  C   UNL     1      -0.842   0.441   0.000  0.00  0.00    +0.000 A 
ATOM     28  C   UNL     1      -0.986   1.253   0.000  0.00  0.00    +0.000 A 
ATOM     29  N   UNL     1      -0.354   1.784   0.000  0.00  0.00    +0.000 NA
ATOM     30  C   UNL     1       0.421   1.501   0.000  0.00  0.00    +0.000 A 
ATOM     31  C   UNL     1       0.565   0.689   0.000  0.00  0.00    +0.000 A 
BRANCH  30  32
ATOM     32  N   UNL     1       1.054   2.032   0.000  0.00  0.00    +0.000 NA
ATOM     33  C   UNL     1       0.910   2.844   0.000  0.00  0.00    +0.000 C 
ATOM     34  O   UNL     1       0.135   3.126   0.000  0.00  0.00    +0.000 OA
BRANCH  33  35
ATOM     35  C   UNL     1       1.542   3.374   0.000  0.00  0.00    +0.000 C 
ATOM     36  C   UNL     1       1.824   4.150   0.000  0.00  0.00    +0.000 C 
ATOM     37  C   UNL     1       2.355   3.518   0.000  0.00  0.00    +0.000 C 
ENDBRANCH  33  35
ENDBRANCH  30  32
ENDBRANCH  25  26
ENDBRANCH   5  25
TORSDOF 8
