REMARK  Name = 
REMARK  3 active torsions:
REMARK  status: ('A' for Active; 'I' for Inactive)
REMARK    1  A    between atoms: C_6  and  C_7
REMARK    2  A    between atoms: C_7  and  C_8
REMARK    3  A    between atoms: C_10  and  C_22
REMARK                            x       y       z     vdW  Elec       q    Type
REMARK                         _______ _______ _______ _____ _____    ______ ____
ROOT
ATOM      1  C   UNL     1      -1.841  -0.111   0.000  0.00  0.00    +0.000 A 
ATOM      2  C   UNL     1      -2.254  -0.825   0.000  0.00  0.00    +0.000 A 
ATOM      3  C   UNL     1      -1.841  -1.540   0.000  0.00  0.00    +0.000 A 
ATOM      4  C   UNL     1      -1.016  -1.540   0.000  0.00  0.00    +0.000 A 
ATOM      5  C   UNL     1      -0.604  -2.254   0.000  0.00  0.00    +0.000 A 
ATOM      6  C   UNL     1       0.221  -2.254   0.000  0.00  0.00    +0.000 A 
ATOM      7  C   UNL     1       0.634  -1.540   0.000  0.00  0.00    +0.000 A 
ATOM      8  C   UNL     1       0.221  -0.825   0.000  0.00  0.00    +0.000 A 
ATOM      9  C   UNL     1      -0.604  -0.825   0.000  0.00  0.00    +0.000 A 
ATOM     10  N   UNL     1      -1.016  -0.111   0.000  0.00  0.00    +0.000 NA
ATOM     11  C   UNL     1       0.634  -0.111   0.000  0.00  0.00    +0.000 C 
ATOM     12  C   UNL     1       1.459  -0.111   0.000  0.00  0.00    +0.000 C 
ATOM     13  C   UNL     1       1.871  -0.825   0.000  0.00  0.00    +0.000 C 
ATOM     14  C   UNL     1       1.459  -1.540   0.000  0.00  0.00    +0.000 C 
ATOM     15  O   UNL     1      -3.079  -0.825   0.000  0.00  0.00    +0.000 OA
ENDROOT
BRANCH   3  16
ATOM     16  C   UNL     1      -2.254  -2.254   0.000  0.00  0.00    +0.000 C 
ATOM     17  O   UNL     1      -1.841  -2.968   0.000  0.00  0.00    +0.000 OA
ATOM     18  O   UNL     1      -3.079  -2.254   0.000  0.00  0.00    +0.000 OA
ENDBRANCH   3  16
BRANCH   1  19
ATOM     19  C   UNL     1      -2.254   0.604   0.000  0.00  0.00    +0.000 C 
BRANCH  19  25
ATOM     20  C   UNL     1      -2.254   2.033   0.000  0.00  0.00    +0.000 A 
ATOM     21  C   UNL     1      -1.841   2.747   0.000  0.00  0.00    +0.000 A 
ATOM     22  C   UNL     1      -1.016   2.747   0.000  0.00  0.00    +0.000 A 
ATOM     23  C   UNL     1      -0.604   2.033   0.000  0.00  0.00    +0.000 A 
ATOM     24  C   UNL     1      -1.016   1.318   0.000  0.00  0.00    +0.000 A 
ATOM     25  C   UNL     1      -1.841   1.318   0.000  0.00  0.00    +0.000 A 
ATOM     26 CL   UNL     1      -0.604   3.462   0.000  0.00  0.00    +0.000 Cl
ENDBRANCH  19  25
ENDBRANCH   1  19
TORSDOF 3
