REMARK  Name = 
REMARK  3 active torsions:
REMARK  status: ('A' for Active; 'I' for Inactive)
REMARK    1  A    between atoms: C_5  and  C_6
REMARK    2  A    between atoms: N_8  and  C_9
REMARK    3  A    between atoms: C_9  and  C_10
REMARK                            x       y       z     vdW  Elec       q    Type
REMARK                         _______ _______ _______ _____ _____    ______ ____
ROOT
ATOM      1  C   UNL     1       3.683   0.217   0.000  0.00  0.00    +0.000 C 
ATOM      2  C   UNL     1       4.334  -0.289   0.000  0.00  0.00    +0.000 C 
ATOM      3  C   UNL     1       5.017   0.174   0.000  0.00  0.00    +0.000 C 
ATOM      4  C   UNL     1       4.787   0.967   0.000  0.00  0.00    +0.000 C 
ATOM      5  C   UNL     1       3.963   0.993   0.000  0.00  0.00    +0.000 C 
ATOM      6  C   UNL     1       4.323   1.736   0.000  0.00  0.00    +0.000 C 
ATOM      7  C   UNL     1       3.431   1.624   0.000  0.00  0.00    +0.000 C 
ATOM      8  C   UNL     1       2.619   1.479   0.000  0.00  0.00    +0.000 C 
ATOM      9  C   UNL     1       2.339   0.703   0.000  0.00  0.00    +0.000 C 
ATOM     10  C   UNL     1       2.870   0.072   0.000  0.00  0.00    +0.000 C 
ATOM     11  C   UNL     1       2.590  -0.704   0.000  0.00  0.00    +0.000 C 
ATOM     12  C   UNL     1       1.778  -0.849   0.000  0.00  0.00    +0.000 C 
ATOM     13  C   UNL     1       1.246  -0.218   0.000  0.00  0.00    +0.000 C 
ATOM     14  N   UNL     1       0.434  -0.363   0.000  0.00  0.00    +0.000 N 
ATOM     15  C   UNL     1       0.154  -1.139   0.000  0.00  0.00    +0.000 C 
ATOM     16  C   UNL     1      -0.098   0.267   0.000  0.00  0.00    +0.000 C 
ATOM     17  O   UNL     1      -0.910   0.122   0.000  0.00  0.00    +0.000 OA
ATOM     18  C   UNL     1       0.183   1.043   0.000  0.00  0.00    +0.000 C 
ATOM     19  F   UNL     1      -0.349   1.674   0.000  0.00  0.00    +0.000 F 
ATOM     20  C   UNL     1       0.995   1.188   0.000  0.00  0.00    +0.000 C 
ATOM     21  C   UNL     1       1.527   0.558   0.000  0.00  0.00    +0.000 C 
ATOM     22  C   UNL     1       1.807   1.334   0.000  0.00  0.00    +0.000 C 
ENDROOT
BRANCH   4  23
ATOM     23  C   UNL     1       5.294   1.618   0.000  0.00  0.00    +0.000 C 
ATOM     24  O   UNL     1       4.983   2.382   0.000  0.00  0.00    +0.000 OA
ATOM     25  N   UNL     1       6.111   1.505   0.000  0.00  0.00    +0.000 NA
BRANCH  25  26
ATOM     26  C   UNL     1       6.617   2.156   0.000  0.00  0.00    +0.000 C 
BRANCH  26  27
ATOM     27  C   UNL     1       7.435   2.043   0.000  0.00  0.00    +0.000 A 
ATOM     28  N   UNL     1       7.824   1.316   0.000  0.00  0.00    +0.000 NA
ATOM     29  C   UNL     1       8.636   1.461   0.000  0.00  0.00    +0.000 A 
ATOM     30  C   UNL     1       8.749   2.279   0.000  0.00  0.00    +0.000 A 
ATOM     31  N   UNL     1       8.006   2.638   0.000  0.00  0.00    +0.000 NA
ATOM     32  C   UNL     1       9.513   2.589   0.000  0.00  0.00    +0.000 A 
ATOM     33  C   UNL     1      10.164   2.083   0.000  0.00  0.00    +0.000 A 
ATOM     34  C   UNL     1      10.051   1.266   0.000  0.00  0.00    +0.000 A 
ATOM     35  N   UNL     1       9.287   0.955   0.000  0.00  0.00    +0.000 NA
ENDBRANCH  26  27
ENDBRANCH  25  26
ENDBRANCH   4  23
TORSDOF 3
