REMARK  Name = 
REMARK  19 active torsions:
REMARK  status: ('A' for Active; 'I' for Inactive)
REMARK    1  A    between atoms: O_1  and  C_21
REMARK    2  A    between atoms: O_1  and  C_27
REMARK    3  A    between atoms: O_3  and  C_24
REMARK    4  A    between atoms: O_3  and  C_31
REMARK    5  A    between atoms: O_5  and  C_28
REMARK    6  A    between atoms: O_5  and  C_37
REMARK    7  A    between atoms: O_9  and  C_36
REMARK    8  A    between atoms: O_9  and  C_57
REMARK    9  A    between atoms: O_10  and  C_43
REMARK   10  A    between atoms: O_10  and  C_56
REMARK   11  A    between atoms: O_11  and  C_41
REMARK   12  A    between atoms: O_12  and  C_42
REMARK   13  A    between atoms: N_20  and  C_22
REMARK   14  A    between atoms: C_33  and  C_46
REMARK   15  A    between atoms: C_37  and  C_51
REMARK   16  A    between atoms: C_46  and  C_58
REMARK   17  A    between atoms: C_51  and  C_59
REMARK   18  A    between atoms: C_53  and  C_56
REMARK   19  A    between atoms: C_54  and  C_65
REMARK                            x       y       z     vdW  Elec       q    Type
REMARK                         _______ _______ _______ _____ _____    ______ ____
ROOT
ATOM      1  O   UNL     1      -3.355  -0.990   0.000  0.00  0.00    +0.000 OA
ATOM      2  O   UNL     1      -2.658   0.257   0.000  0.00  0.00    +0.000 OA
ATOM      3  O   UNL     1      -1.962   3.978   0.000  0.00  0.00    +0.000 OA
ATOM      4  C   UNL     1      -0.495   0.660   0.000  0.00  0.00    +0.000 C 
ATOM      5  C   UNL     1      -1.210   0.257   0.000  0.00  0.00    +0.000 C 
ATOM      6  C   UNL     1      -0.495   1.485   0.000  0.00  0.00    +0.000 C 
ATOM      7  C   UNL     1      -1.210  -0.587   0.000  0.00  0.00    +0.000 C 
ATOM      8  C   UNL     1      -1.210   1.907   0.000  0.00  0.00    +0.000 C 
ATOM      9  C   UNL     1      -1.962  -0.990   0.000  0.00  0.00    +0.000 C 
ATOM     10  C   UNL     1      -1.907   0.660   0.000  0.00  0.00    +0.000 C 
ATOM     11  C   UNL     1      -1.210   2.732   0.000  0.00  0.00    +0.000 C 
ATOM     12  C   UNL     1      -2.658  -0.587   0.000  0.00  0.00    +0.000 C 
ATOM     13  C   UNL     1      -4.143   0.257   0.000  0.00  0.00    +0.000 C 
ATOM     14  C   UNL     1      -4.143  -0.587   0.000  0.00  0.00    +0.000 C 
ATOM     15  C   UNL     1      -1.962   3.153   0.000  0.00  0.00    +0.000 C 
ATOM     16  C   UNL     1      -3.355   0.660   0.000  0.00  0.00    +0.000 C 
ATOM     17  C   UNL     1      -2.658   2.732   0.000  0.00  0.00    +0.000 C 
ATOM     18  C   UNL     1      -0.495   3.153   0.000  0.00  0.00    +0.000 C 
ATOM     19  C   UNL     1      -3.355   1.485   0.000  0.00  0.00    +0.000 C 
ATOM     20  C   UNL     1      -2.658   1.907   0.000  0.00  0.00    +0.000 C 
ATOM     21  C   UNL     1      -4.106   1.907   0.000  0.00  0.00    +0.000 C 
ENDROOT
BRANCH  14  22
ATOM     22  C   UNL     1      -4.858  -0.990   0.000  0.00  0.00    +0.000 C 
ATOM     23  C   UNL     1      -5.555  -0.587   0.000  0.00  0.00    +0.000 C 
ENDBRANCH  14  22
BRANCH   7  24
ATOM     24  O   UNL     1      -0.495  -1.008   0.000  0.00  0.00    +0.000 OA
BRANCH  24  26
ATOM     25  O   UNL     1       0.220  -2.236   0.000  0.00  0.00    +0.000 OA
ATOM     26  C   UNL     1      -0.495  -1.833   0.000  0.00  0.00    +0.000 C 
ATOM     27  C   UNL     1      -1.210  -2.255   0.000  0.00  0.00    +0.000 C 
ENDBRANCH  24  26
ENDBRANCH   7  24
BRANCH   4  28
ATOM     28  O   UNL     1       0.623   0.037   0.000  0.00  0.00    +0.000 OA
BRANCH  28  34
ATOM     29  O   UNL     1       2.035   0.037   0.000  0.00  0.00    +0.000 OA
ATOM     30  O   UNL     1       0.623  -1.650   0.000  0.00  0.00    +0.000 OA
ATOM     31  C   UNL     1       2.768  -1.192   0.000  0.00  0.00    +0.000 C 
ATOM     32  C   UNL     1       2.035  -1.650   0.000  0.00  0.00    +0.000 C 
ATOM     33  C   UNL     1       1.320  -1.192   0.000  0.00  0.00    +0.000 C 
ATOM     34  C   UNL     1       1.320  -0.367   0.000  0.00  0.00    +0.000 C 
ATOM     35  C   UNL     1       2.768  -0.367   0.000  0.00  0.00    +0.000 C 
ATOM     36  C   UNL     1       3.483   0.037   0.000  0.00  0.00    +0.000 C 
BRANCH  32  37
ATOM     37  N   UNL     1       2.035  -2.493   0.000  0.00  0.00    +0.000 NA
ATOM     38  C   UNL     1       1.320  -2.897   0.000  0.00  0.00    +0.000 C 
ATOM     39  C   UNL     1       2.732  -2.897   0.000  0.00  0.00    +0.000 C 
ENDBRANCH  32  37
BRANCH  31  40
ATOM     40  O   UNL     1       3.483  -1.650   0.000  0.00  0.00    +0.000 OA
BRANCH  40  44
ATOM     41  O   UNL     1       4.931  -1.650   0.000  0.00  0.00    +0.000 OA
ATOM     42  O   UNL     1       4.436  -3.978   0.000  0.00  0.00    +0.000 OA
ATOM     43  C   UNL     1       4.931  -3.318   0.000  0.00  0.00    +0.000 C 
ATOM     44  C   UNL     1       4.216  -2.072   0.000  0.00  0.00    +0.000 C 
ATOM     45  C   UNL     1       5.628  -2.897   0.000  0.00  0.00    +0.000 C 
ATOM     46  C   UNL     1       4.216  -2.897   0.000  0.00  0.00    +0.000 C 
ATOM     47  C   UNL     1       5.628  -2.072   0.000  0.00  0.00    +0.000 C 
ATOM     48  C   UNL     1       5.500  -3.887   0.000  0.00  0.00    +0.000 C 
ATOM     49  C   UNL     1       6.343  -1.650   0.000  0.00  0.00    +0.000 C 
BRANCH  45  50
ATOM     50  O   UNL     1       6.343  -3.318   0.000  0.00  0.00    +0.000 OA
BRANCH  50  52
ATOM     51  O   UNL     1       7.058  -2.072   0.000  0.00  0.00    +0.000 OA
ATOM     52  C   UNL     1       7.058  -2.915   0.000  0.00  0.00    +0.000 C 
BRANCH  52  53
ATOM     53  C   UNL     1       7.755  -3.318   0.000  0.00  0.00    +0.000 C 
BRANCH  53  54
ATOM     54  C   UNL     1       8.470  -2.915   0.000  0.00  0.00    +0.000 C 
ATOM     55  C   UNL     1       9.166  -3.318   0.000  0.00  0.00    +0.000 C 
ATOM     56  C   UNL     1       8.433  -2.072   0.000  0.00  0.00    +0.000 C 
ENDBRANCH  53  54
ENDBRANCH  52  53
ENDBRANCH  50  52
ENDBRANCH  45  50
ENDBRANCH  40  44
ENDBRANCH  31  40
ENDBRANCH  28  34
ENDBRANCH   4  28
BRANCH   6  57
ATOM     57  C   UNL     1       0.202   1.907   0.000  0.00  0.00    +0.000 C 
BRANCH  57  59
ATOM     58  O   UNL     1       1.613   1.907   0.000  0.00  0.00    +0.000 OA
ATOM     59  C   UNL     1       0.898   1.485   0.000  0.00  0.00    +0.000 C 
ENDBRANCH  57  59
ENDBRANCH   6  57
BRANCH  13  60
ATOM     60  C   UNL     1      -4.858   0.660   0.000  0.00  0.00    +0.000 C 
BRANCH  60  61
ATOM     61  O   UNL     1      -5.610   0.257   0.000  0.00  0.00    +0.000 OA
BRANCH  61  66
ATOM     62  O   UNL     1      -6.306   1.540   0.000  0.00  0.00    +0.000 OA
ATOM     63  O   UNL     1      -8.470   1.943   0.000  0.00  0.00    +0.000 OA
ATOM     64  C   UNL     1      -7.003   0.293   0.000  0.00  0.00    +0.000 C 
ATOM     65  C   UNL     1      -7.755   0.715   0.000  0.00  0.00    +0.000 C 
ATOM     66  C   UNL     1      -6.306   0.715   0.000  0.00  0.00    +0.000 C 
ATOM     67  C   UNL     1      -7.755   1.540   0.000  0.00  0.00    +0.000 C 
ATOM     68  C   UNL     1      -7.003   1.943   0.000  0.00  0.00    +0.000 C 
ATOM     69  C   UNL     1      -7.003   2.787   0.000  0.00  0.00    +0.000 C 
BRANCH  64  70
ATOM     70  O   UNL     1      -7.003  -0.532   0.000  0.00  0.00    +0.000 OA
ATOM     71  C   UNL     1      -7.718  -0.953   0.000  0.00  0.00    +0.000 C 
ENDBRANCH  64  70
BRANCH  65  72
ATOM     72  O   UNL     1      -8.470   0.293   0.000  0.00  0.00    +0.000 OA
ATOM     73  C   UNL     1      -9.166   0.715   0.000  0.00  0.00    +0.000 C 
ENDBRANCH  65  72
ENDBRANCH  61  66
ENDBRANCH  60  61
ENDBRANCH  13  60
TORSDOF 19
