REMARK  Name = 
REMARK  12 active torsions:
REMARK  status: ('A' for Active; 'I' for Inactive)
REMARK    1  A    between atoms: C_6  and  C_10
REMARK    2  A    between atoms: C_13  and  N_14
REMARK    3  A    between atoms: C_15  and  C_17
REMARK    4  A    between atoms: C_17  and  C_18
REMARK    5  A    between atoms: C_17  and  C_34
REMARK    6  A    between atoms: C_18  and  C_19
REMARK    7  A    between atoms: C_22  and  C_25
REMARK    8  A    between atoms: N_27  and  C_28
REMARK    9  A    between atoms: C_28  and  C_29
REMARK   10  A    between atoms: C_29  and  S_30
REMARK   11  A    between atoms: C_37  and  C_40
REMARK   12  A    between atoms: C_43  and  C_46
REMARK                            x       y       z     vdW  Elec       q    Type
REMARK                         _______ _______ _______ _____ _____    ______ ____
ROOT
ATOM      1  C   UNL     1       6.430 -11.137   0.000  0.00  0.00    +0.000 C 
ENDROOT
BRANCH   1   2
ATOM      2  C   UNL     1       5.716 -11.550   0.000  0.00  0.00    +0.000 A 
ATOM      3  C   UNL     1       5.716 -12.375   0.000  0.00  0.00    +0.000 A 
ATOM      4  C   UNL     1       5.001 -12.787   0.000  0.00  0.00    +0.000 A 
ATOM      5  C   UNL     1       4.287 -12.375   0.000  0.00  0.00    +0.000 A 
ATOM      6  C   UNL     1       4.287 -11.550   0.000  0.00  0.00    +0.000 A 
ATOM      7  C   UNL     1       5.001 -11.137   0.000  0.00  0.00    +0.000 A 
BRANCH   5   8
ATOM      8  C   UNL     1       3.572 -12.787   0.000  0.00  0.00    +0.000 A 
ATOM      9  C   UNL     1       3.572 -13.613   0.000  0.00  0.00    +0.000 A 
ATOM     10  C   UNL     1       2.858 -14.025   0.000  0.00  0.00    +0.000 A 
ATOM     11  C   UNL     1       2.143 -13.613   0.000  0.00  0.00    +0.000 A 
ATOM     12  C   UNL     1       2.143 -12.787   0.000  0.00  0.00    +0.000 A 
ATOM     13  C   UNL     1       2.858 -12.375   0.000  0.00  0.00    +0.000 A 
BRANCH  11  14
ATOM     14  C   UNL     1       1.429 -14.025   0.000  0.00  0.00    +0.000 C 
ATOM     15  C   UNL     1       0.715 -14.438   0.000  0.00  0.00    +0.000 C 
ATOM     16  C   UNL     1       1.016 -13.310   0.000  0.00  0.00    +0.000 C 
ATOM     17  C   UNL     1       1.841 -14.739   0.000  0.00  0.00    +0.000 C 
ENDBRANCH  11  14
ENDBRANCH   5   8
ENDBRANCH   1   2
BRANCH   1  19
ATOM     18  N   UNL     1       5.716  -9.900   0.000  0.00  0.00    +0.000 NA
ATOM     19  C   UNL     1       6.430 -10.312   0.000  0.00  0.00    +0.000 C 
ATOM     20  O   UNL     1       7.145  -9.900   0.000  0.00  0.00    +0.000 OA
BRANCH  18  24
ATOM     21  C   UNL     1       5.716  -7.425   0.000  0.00  0.00    +0.000 A 
ATOM     22  C   UNL     1       6.430  -7.838   0.000  0.00  0.00    +0.000 A 
ATOM     23  C   UNL     1       6.430  -8.662   0.000  0.00  0.00    +0.000 A 
ATOM     24  C   UNL     1       5.716  -9.075   0.000  0.00  0.00    +0.000 A 
ATOM     25  C   UNL     1       5.001  -8.662   0.000  0.00  0.00    +0.000 A 
ATOM     26  C   UNL     1       5.001  -7.838   0.000  0.00  0.00    +0.000 A 
BRANCH  21  32
ATOM     27  C   UNL     1       5.716  -4.125   0.000  0.00  0.00    +0.000 C 
ATOM     28  C   UNL     1       5.716  -4.950   0.000  0.00  0.00    +0.000 A 
ATOM     29  C   UNL     1       6.430  -5.362   0.000  0.00  0.00    +0.000 A 
ATOM     30  C   UNL     1       6.430  -6.188   0.000  0.00  0.00    +0.000 A 
ATOM     31  C   UNL     1       7.145  -6.600   0.000  0.00  0.00    +0.000 C 
ATOM     32  C   UNL     1       5.716  -6.600   0.000  0.00  0.00    +0.000 A 
ATOM     33  C   UNL     1       5.001  -6.188   0.000  0.00  0.00    +0.000 A 
ATOM     34  C   UNL     1       4.287  -6.600   0.000  0.00  0.00    +0.000 C 
ATOM     35  C   UNL     1       5.001  -5.362   0.000  0.00  0.00    +0.000 A 
ENDBRANCH  21  32
ENDBRANCH  18  24
ENDBRANCH   1  19
BRANCH   1  36
ATOM     36  C   UNL     1       7.145 -11.550   0.000  0.00  0.00    +0.000 C 
BRANCH  36  37
ATOM     37  C   UNL     1       7.145 -12.375   0.000  0.00  0.00    +0.000 A 
ATOM     38  C   UNL     1       7.859 -12.787   0.000  0.00  0.00    +0.000 A 
ATOM     39  C   UNL     1       7.859 -13.613   0.000  0.00  0.00    +0.000 A 
ATOM     40  C   UNL     1       7.145 -14.025   0.000  0.00  0.00    +0.000 A 
ATOM     41  C   UNL     1       6.430 -13.613   0.000  0.00  0.00    +0.000 A 
ATOM     42  C   UNL     1       6.430 -12.787   0.000  0.00  0.00    +0.000 A 
BRANCH  40  43
ATOM     43  C   UNL     1       7.145 -14.850   0.000  0.00  0.00    +0.000 C 
ATOM     44  O   UNL     1       7.859 -15.262   0.000  0.00  0.00    +0.000 OA
ATOM     45  N   UNL     1       6.430 -15.262   0.000  0.00  0.00    +0.000 NA
BRANCH  45  46
ATOM     46  C   UNL     1       6.430 -16.087   0.000  0.00  0.00    +0.000 C 
BRANCH  46  47
ATOM     47  C   UNL     1       5.716 -16.500   0.000  0.00  0.00    +0.000 C 
BRANCH  47  48
ATOM     48  S   UNL     1       5.716 -17.325   0.000  0.00  0.00    +0.000 S 
ATOM     49  O   UNL     1       5.716 -18.150   0.000  0.00  0.00    +0.000 OA
ATOM     50  O   UNL     1       4.891 -17.325   0.000  0.00  0.00    +0.000 OA
ATOM     51  O   UNL     1       6.541 -17.325   0.000  0.00  0.00    +0.000 OA
ENDBRANCH  47  48
ENDBRANCH  46  47
ENDBRANCH  45  46
ENDBRANCH  40  43
ENDBRANCH  36  37
ENDBRANCH   1  36
TORSDOF 12
