REMARK  Name = 
REMARK  5 active torsions:
REMARK  status: ('A' for Active; 'I' for Inactive)
REMARK    1  A    between atoms: N_5  and  C_8
REMARK    2  A    between atoms: C_11  and  N_12
REMARK    3  A    between atoms: N_12  and  C_13
REMARK    4  A    between atoms: C_27  and  C_28
REMARK    5  A    between atoms: C_28  and  C_29
REMARK                            x       y       z     vdW  Elec       q    Type
REMARK                         _______ _______ _______ _____ _____    ______ ____
ROOT
ATOM      1  C   UNL     1       1.429   0.000   0.000  0.00  0.00    +0.000 A 
ATOM      2  C   UNL     1       2.143  -0.412   0.000  0.00  0.00    +0.000 A 
ATOM      3  C   UNL     1       2.858   0.000   0.000  0.00  0.00    +0.000 A 
ATOM      4  O   UNL     1       2.858   0.825   0.000  0.00  0.00    +0.000 OA
ATOM      5  N   UNL     1       3.572  -0.412   0.000  0.00  0.00    +0.000 NA
ATOM      6  N   UNL     1       3.572  -1.238   0.000  0.00  0.00    +0.000 NA
ATOM      7  C   UNL     1       2.858  -1.650   0.000  0.00  0.00    +0.000 A 
ATOM      8  C   UNL     1       2.143  -1.238   0.000  0.00  0.00    +0.000 A 
ATOM      9  N   UNL     1       1.429  -1.650   0.000  0.00  0.00    +0.000 NA
ATOM     10  C   UNL     1       0.715  -1.238   0.000  0.00  0.00    +0.000 A 
ATOM     11  N   UNL     1       0.715  -0.412   0.000  0.00  0.00    +0.000 NA
ATOM     12  N   UNL     1       0.000  -1.650   0.000  0.00  0.00    +0.000 N 
ATOM     13  C   UNL     1       0.000  -2.475   0.000  0.00  0.00    +0.000 C 
ATOM     14  C   UNL     1      -0.715  -2.888   0.000  0.00  0.00    +0.000 C 
ATOM     15  C   UNL     1      -1.429  -2.475   0.000  0.00  0.00    +0.000 C 
ATOM     16  C   UNL     1      -1.429  -1.650   0.000  0.00  0.00    +0.000 C 
ATOM     17  C   UNL     1      -0.715  -1.238   0.000  0.00  0.00    +0.000 C 
ENDROOT
BRANCH   1  18
ATOM     18  N   UNL     1       1.429   0.825   0.000  0.00  0.00    +0.000 NA
BRANCH  18  22
ATOM     19  C   UNL     1      -0.715   2.062   0.000  0.00  0.00    +0.000 A 
ATOM     20  C   UNL     1       0.000   2.475   0.000  0.00  0.00    +0.000 A 
ATOM     21  C   UNL     1       0.715   2.062   0.000  0.00  0.00    +0.000 A 
ATOM     22  C   UNL     1       0.715   1.238   0.000  0.00  0.00    +0.000 A 
ATOM     23  C   UNL     1       0.000   0.825   0.000  0.00  0.00    +0.000 A 
ATOM     24  C   UNL     1      -0.715   1.238   0.000  0.00  0.00    +0.000 A 
BRANCH  19  29
ATOM     25  O   UNL     1      -3.572   3.712   0.000  0.00  0.00    +0.000 OA
ATOM     26  C   UNL     1      -2.858   3.300   0.000  0.00  0.00    +0.000 C 
ATOM     27  C   UNL     1      -2.143   3.712   0.000  0.00  0.00    +0.000 C 
ATOM     28  C   UNL     1      -1.429   3.300   0.000  0.00  0.00    +0.000 C 
ATOM     29  N   UNL     1      -1.429   2.475   0.000  0.00  0.00    +0.000 N 
ATOM     30  C   UNL     1      -2.143   2.062   0.000  0.00  0.00    +0.000 C 
ATOM     31  C   UNL     1      -2.858   2.475   0.000  0.00  0.00    +0.000 C 
ENDBRANCH  19  29
ENDBRANCH  18  22
ENDBRANCH   1  18
BRANCH  15  32
ATOM     32  C   UNL     1      -2.143  -2.888   0.000  0.00  0.00    +0.000 C 
BRANCH  32  33
ATOM     33  C   UNL     1      -2.858  -2.475   0.000  0.00  0.00    +0.000 C 
ATOM     34  N   UNL     1      -3.572  -2.062   0.000  0.00  0.00    +0.000 NA
ENDBRANCH  32  33
ENDBRANCH  15  32
TORSDOF 5
