REMARK  Name = 
REMARK  3 active torsions:
REMARK  status: ('A' for Active; 'I' for Inactive)
REMARK    1  A    between atoms: C_16  and  N_28
REMARK    2  A    between atoms: C_17  and  N_31
REMARK    3  A    between atoms: C_18  and  C_21
REMARK                            x       y       z     vdW  Elec       q    Type
REMARK                         _______ _______ _______ _____ _____    ______ ____
ROOT
ATOM      1  C   UNL     1      -2.143  -1.856   0.000  0.00  0.00    +0.000 C 
ATOM      2  C   UNL     1      -2.143   0.619   0.000  0.00  0.00    +0.000 A 
ATOM      3  C   UNL     1      -0.714   0.619   0.000  0.00  0.00    +0.000 A 
ATOM      4  C   UNL     1      -1.429   0.206   0.000  0.00  0.00    +0.000 A 
ATOM      5  C   UNL     1      -2.858   0.206   0.000  0.00  0.00    +0.000 A 
ATOM      6  C   UNL     1      -1.429  -0.619   0.000  0.00  0.00    +0.000 A 
ATOM      7  C   UNL     1      -2.858  -0.619   0.000  0.00  0.00    +0.000 A 
ATOM      8  C   UNL     1       0.000  -0.619   0.000  0.00  0.00    +0.000 A 
ATOM      9  N   UNL     1       0.000   0.206   0.000  0.00  0.00    +0.000 NA
ATOM     10  N   UNL     1       0.714  -1.031   0.000  0.00  0.00    +0.000 NA
ATOM     11  N   UNL     1      -0.714  -1.031   0.000  0.00  0.00    +0.000 NA
ATOM     12  N   UNL     1      -2.143  -1.031   0.000  0.00  0.00    +0.000 N 
ATOM     13  O   UNL     1      -3.572  -1.031   0.000  0.00  0.00    +0.000 OA
ENDROOT
BRANCH   5  19
ATOM     14  C   UNL     1      -5.001   1.444   0.000  0.00  0.00    +0.000 A 
ATOM     15  C   UNL     1      -5.001   0.619   0.000  0.00  0.00    +0.000 A 
ATOM     16  C   UNL     1      -4.287   1.856   0.000  0.00  0.00    +0.000 A 
ATOM     17  C   UNL     1      -4.287   0.206   0.000  0.00  0.00    +0.000 A 
ATOM     18  C   UNL     1      -3.572   1.444   0.000  0.00  0.00    +0.000 A 
ATOM     19  C   UNL     1      -3.572   0.619   0.000  0.00  0.00    +0.000 A 
ATOM     20 CL   UNL     1      -4.287  -0.619   0.000  0.00  0.00    +0.000 Cl
ATOM     21 CL   UNL     1      -2.858   1.856   0.000  0.00  0.00    +0.000 Cl
ENDBRANCH   5  19
BRANCH  10  26
ATOM     22  C   UNL     1       2.143  -1.031   0.000  0.00  0.00    +0.000 A 
ATOM     23  C   UNL     1       1.429   0.206   0.000  0.00  0.00    +0.000 A 
ATOM     24  C   UNL     1       2.858  -0.619   0.000  0.00  0.00    +0.000 A 
ATOM     25  C   UNL     1       2.143   0.619   0.000  0.00  0.00    +0.000 A 
ATOM     26  C   UNL     1       1.429  -0.619   0.000  0.00  0.00    +0.000 A 
ATOM     27  C   UNL     1       2.858   0.206   0.000  0.00  0.00    +0.000 A 
BRANCH  27  32
ATOM     28  C   UNL     1       4.287   0.206   0.000  0.00  0.00    +0.000 C 
ATOM     29  C   UNL     1       3.572   1.444   0.000  0.00  0.00    +0.000 C 
ATOM     30  C   UNL     1       5.001   0.619   0.000  0.00  0.00    +0.000 C 
ATOM     31  C   UNL     1       4.287   1.856   0.000  0.00  0.00    +0.000 C 
ATOM     32  N   UNL     1       3.572   0.619   0.000  0.00  0.00    +0.000 N 
ATOM     33  O   UNL     1       5.001   1.444   0.000  0.00  0.00    +0.000 OA
ENDBRANCH  27  32
ENDBRANCH  10  26
TORSDOF 3
