REMARK  Name = 
REMARK  2 active torsions:
REMARK  status: ('A' for Active; 'I' for Inactive)
REMARK    1  A    between atoms: C_1  and  C_7
REMARK    2  A    between atoms: C_10  and  C_12
REMARK                            x       y       z     vdW  Elec       q    Type
REMARK                         _______ _______ _______ _____ _____    ______ ____
ROOT
ATOM      1  C   UNL     1      -1.072  -0.414   0.000  0.00  0.00    +0.000 C 
ATOM      2  C   UNL     1      -1.063  -1.239   0.000  0.00  0.00    +0.000 C 
ATOM      3  C   UNL     1      -1.787  -0.002   0.000  0.00  0.00    +0.000 C 
ATOM      4  C   UNL     1      -1.778  -1.661   0.000  0.00  0.00    +0.000 C 
ATOM      5  C   UNL     1      -2.497  -0.424   0.000  0.00  0.00    +0.000 A 
ATOM      6  C   UNL     1      -2.497  -1.248   0.000  0.00  0.00    +0.000 A 
ATOM      7  O   UNL     1      -1.791   0.822   0.000  0.00  0.00    +0.000 OA
ATOM      8  O   UNL     1      -1.778  -2.485   0.000  0.00  0.00    +0.000 OA
ATOM      9  O   UNL     1      -0.348  -1.651   0.000  0.00  0.00    +0.000 OA
ATOM     10  C   UNL     1      -3.211  -0.011   0.000  0.00  0.00    +0.000 A 
ATOM     11  C   UNL     1      -3.211  -1.665   0.000  0.00  0.00    +0.000 A 
ATOM     12  C   UNL     1      -3.921  -0.424   0.000  0.00  0.00    +0.000 A 
ATOM     13  C   UNL     1      -3.921  -1.253   0.000  0.00  0.00    +0.000 A 
ENDROOT
BRANCH   1  14
ATOM     14  C   UNL     1      -0.362  -0.002   0.000  0.00  0.00    +0.000 C 
ATOM     15  C   UNL     1       1.063   0.827   0.000  0.00  0.00    +0.000 C 
ATOM     16  C   UNL     1      -0.362   0.822   0.000  0.00  0.00    +0.000 C 
ATOM     17  C   UNL     1       0.357  -0.410   0.000  0.00  0.00    +0.000 C 
ATOM     18  C   UNL     1       1.072   0.002   0.000  0.00  0.00    +0.000 C 
ATOM     19  C   UNL     1       0.353   1.239   0.000  0.00  0.00    +0.000 C 
BRANCH  15  20
ATOM     20  C   UNL     1       1.782   1.239   0.000  0.00  0.00    +0.000 A 
ATOM     21  C   UNL     1       2.497   0.827   0.000  0.00  0.00    +0.000 A 
ATOM     22  C   UNL     1       1.778   2.059   0.000  0.00  0.00    +0.000 A 
ATOM     23  C   UNL     1       3.207   2.064   0.000  0.00  0.00    +0.000 A 
ATOM     24  C   UNL     1       2.488   2.476   0.000  0.00  0.00    +0.000 A 
ATOM     25  C   UNL     1       3.207   1.239   0.000  0.00  0.00    +0.000 A 
ATOM     26 CL   UNL     1       3.921   2.485   0.000  0.00  0.00    +0.000 Cl
ENDBRANCH  15  20
ENDBRANCH   1  14
TORSDOF 2
