REMARK  Name = 
REMARK  17 active torsions:
REMARK  status: ('A' for Active; 'I' for Inactive)
REMARK    1  A    between atoms: C_2  and  C_3
REMARK    2  A    between atoms: C_3  and  C_4
REMARK    3  A    between atoms: C_4  and  C_5
REMARK    4  A    between atoms: C_5  and  C_6
REMARK    5  A    between atoms: C_6  and  C_7
REMARK    6  A    between atoms: C_7  and  C_8
REMARK    7  A    between atoms: C_8  and  O_9
REMARK    8  A    between atoms: O_9  and  C_10
REMARK    9  A    between atoms: C_15  and  C_16
REMARK   10  A    between atoms: N_18  and  C_19
REMARK   11  A    between atoms: C_22  and  C_25
REMARK   12  A    between atoms: C_25  and  O_27
REMARK   13  A    between atoms: O_27  and  C_28
REMARK   14  A    between atoms: C_28  and  C_29
REMARK   15  A    between atoms: C_29  and  N_30
REMARK   16  A    between atoms: N_30  and  C_32
REMARK   17  A    between atoms: N_30  and  C_34
REMARK                            x       y       z     vdW  Elec       q    Type
REMARK                         _______ _______ _______ _____ _____    ______ ____
ROOT
ATOM      1  C   UNL     1       6.464  -4.628   0.000  0.00  0.00    +0.000 C 
ATOM      2  O   UNL     1       7.004  -5.252   0.000  0.00  0.00    +0.000 OA
ATOM      3  N   UNL     1       6.734  -3.849   0.000  0.00  0.00    +0.000 NA
ENDROOT
BRANCH   3   4
ATOM      4  C   UNL     1       7.544  -3.693   0.000  0.00  0.00    +0.000 A 
ATOM      5  C   UNL     1       7.814  -2.913   0.000  0.00  0.00    +0.000 A 
ATOM      6  C   UNL     1       8.624  -2.757   0.000  0.00  0.00    +0.000 A 
ATOM      7  C   UNL     1       9.165  -3.381   0.000  0.00  0.00    +0.000 A 
ATOM      8  C   UNL     1       8.895  -4.161   0.000  0.00  0.00    +0.000 A 
ATOM      9  C   UNL     1       8.084  -4.317   0.000  0.00  0.00    +0.000 A 
BRANCH   7  10
ATOM     10  C   UNL     1       9.975  -3.225   0.000  0.00  0.00    +0.000 C 
ATOM     11  O   UNL     1      10.515  -3.849   0.000  0.00  0.00    +0.000 OA
BRANCH  10  12
ATOM     12  O   UNL     1      10.245  -2.446   0.000  0.00  0.00    +0.000 OA
BRANCH  12  13
ATOM     13  C   UNL     1      11.055  -2.290   0.000  0.00  0.00    +0.000 C 
BRANCH  13  14
ATOM     14  C   UNL     1      11.325  -1.510   0.000  0.00  0.00    +0.000 C 
BRANCH  14  15
ATOM     15  N   UNL     1      12.135  -1.354   0.000  0.00  0.00    +0.000 N 
ATOM     16  C   UNL     1      12.291  -2.164   0.000  0.00  0.00    +0.000 C 
BRANCH  15  17
ATOM     17  C   UNL     1      12.945  -1.198   0.000  0.00  0.00    +0.000 C 
ATOM     18  C   UNL     1      13.215  -0.419   0.000  0.00  0.00    +0.000 C 
ENDBRANCH  15  17
BRANCH  15  19
ATOM     19  C   UNL     1      11.979  -0.544   0.000  0.00  0.00    +0.000 C 
ATOM     20  C   UNL     1      12.603  -0.004   0.000  0.00  0.00    +0.000 C 
ENDBRANCH  15  19
ENDBRANCH  14  15
ENDBRANCH  13  14
ENDBRANCH  12  13
ENDBRANCH  10  12
ENDBRANCH   7  10
ENDBRANCH   3   4
BRANCH   1  26
ATOM     21  C   UNL     1       5.384  -5.564   0.000  0.00  0.00    +0.000 A 
ATOM     22  C   UNL     1       4.574  -5.720   0.000  0.00  0.00    +0.000 A 
ATOM     23  C   UNL     1       4.034  -5.096   0.000  0.00  0.00    +0.000 A 
ATOM     24  C   UNL     1       4.304  -4.317   0.000  0.00  0.00    +0.000 A 
ATOM     25  C   UNL     1       5.114  -4.161   0.000  0.00  0.00    +0.000 A 
ATOM     26  C   UNL     1       5.654  -4.784   0.000  0.00  0.00    +0.000 A 
BRANCH  21  27
ATOM     27  O   UNL     1       5.924  -6.188   0.000  0.00  0.00    +0.000 OA
BRANCH  27  28
ATOM     28  C   UNL     1       5.654  -6.967   0.000  0.00  0.00    +0.000 C 
BRANCH  28  29
ATOM     29  C   UNL     1       4.844  -7.123   0.000  0.00  0.00    +0.000 C 
BRANCH  29  30
ATOM     30  C   UNL     1       4.304  -6.499   0.000  0.00  0.00    +0.000 C 
BRANCH  30  31
ATOM     31  C   UNL     1       3.494  -6.655   0.000  0.00  0.00    +0.000 C 
BRANCH  31  32
ATOM     32  C   UNL     1       2.954  -6.032   0.000  0.00  0.00    +0.000 C 
BRANCH  32  33
ATOM     33  C   UNL     1       2.143  -6.188   0.000  0.00  0.00    +0.000 C 
BRANCH  33  35
ATOM     34  C   UNL     1       0.793  -5.720   0.000  0.00  0.00    +0.000 C 
ATOM     35  C   UNL     1       1.603  -5.564   0.000  0.00  0.00    +0.000 C 
ENDBRANCH  33  35
ENDBRANCH  32  33
ENDBRANCH  31  32
ENDBRANCH  30  31
ENDBRANCH  29  30
ENDBRANCH  28  29
ENDBRANCH  27  28
ENDBRANCH  21  27
ENDBRANCH   1  26
TORSDOF 17
