REMARK  Name = 
REMARK  3 active torsions:
REMARK  status: ('A' for Active; 'I' for Inactive)
REMARK    1  A    between atoms: C_3  and  C_24
REMARK    2  A    between atoms: C_6  and  C_7
REMARK    3  A    between atoms: N_9  and  N_10
REMARK                            x       y       z     vdW  Elec       q    Type
REMARK                         _______ _______ _______ _____ _____    ______ ____
ROOT
ATOM      1  N   UNL     1       4.127   1.238   0.000  0.00  0.00    +0.000 N 
ATOM      2  C   UNL     1       3.643   0.570   0.000  0.00  0.00    +0.000 C 
ATOM      3  O   UNL     1       3.897  -0.215   0.000  0.00  0.00    +0.000 OA
ATOM      4  C   UNL     1       2.858   0.825   0.000  0.00  0.00    +0.000 C 
ATOM      5  C   UNL     1       2.143   0.412   0.000  0.00  0.00    +0.000 C 
ATOM      6  C   UNL     1       2.006   0.963   0.000  0.00  0.00    +0.000 C 
ATOM      7  C   UNL     1       2.006   1.512   0.000  0.00  0.00    +0.000 C 
ATOM      8  C   UNL     1       2.143   2.062   0.000  0.00  0.00    +0.000 C 
ATOM      9  C   UNL     1       2.858   1.650   0.000  0.00  0.00    +0.000 C 
ATOM     10  C   UNL     1       3.643   1.905   0.000  0.00  0.00    +0.000 C 
ATOM     11  O   UNL     1       3.897   2.690   0.000  0.00  0.00    +0.000 OA
ATOM     12  C   UNL     1       1.429   1.650   0.000  0.00  0.00    +0.000 C 
ATOM     13  C   UNL     1       1.429   0.825   0.000  0.00  0.00    +0.000 C 
ATOM     14  C   UNL     1       0.715   1.238   0.000  0.00  0.00    +0.000 C 
ENDROOT
BRANCH   1  17
ATOM     15  C   UNL     1       5.365   1.952   0.000  0.00  0.00    +0.000 C 
ATOM     16  O   UNL     1       4.952   2.666   0.000  0.00  0.00    +0.000 OA
ATOM     17  N   UNL     1       4.952   1.238   0.000  0.00  0.00    +0.000 NA
BRANCH  15  23
ATOM     18  C   UNL     1       6.602   2.666   0.000  0.00  0.00    +0.000 A 
ATOM     19  C   UNL     1       7.427   2.666   0.000  0.00  0.00    +0.000 A 
ATOM     20  C   UNL     1       7.840   1.952   0.000  0.00  0.00    +0.000 A 
ATOM     21  C   UNL     1       7.427   1.238   0.000  0.00  0.00    +0.000 A 
ATOM     22  C   UNL     1       6.602   1.238   0.000  0.00  0.00    +0.000 A 
ATOM     23  C   UNL     1       6.190   1.952   0.000  0.00  0.00    +0.000 A 
BRANCH  20  24
ATOM     24  C   UNL     1       8.665   1.952   0.000  0.00  0.00    +0.000 C 
ATOM     25  F   UNL     1       9.490   1.952   0.000  0.00  0.00    +0.000 F 
ATOM     26  F   UNL     1       8.665   1.127   0.000  0.00  0.00    +0.000 F 
ATOM     27  F   UNL     1       8.665   2.777   0.000  0.00  0.00    +0.000 F 
ENDBRANCH  20  24
ENDBRANCH  15  23
ENDBRANCH   1  17
TORSDOF 3
