REMARK  Name = 
REMARK  9 active torsions:
REMARK  status: ('A' for Active; 'I' for Inactive)
REMARK    1  A    between atoms: C_2  and  C_21
REMARK    2  A    between atoms: C_9  and  C_14
REMARK    3  A    between atoms: C_11  and  N_19
REMARK    4  A    between atoms: C_14  and  O_18
REMARK    5  A    between atoms: O_18  and  C_42
REMARK    6  A    between atoms: C_20  and  C_21
REMARK    7  A    between atoms: C_28  and  C_33
REMARK    8  A    between atoms: C_33  and  O_37
REMARK    9  A    between atoms: O_37  and  C_42
REMARK                            x       y       z     vdW  Elec       q    Type
REMARK                         _______ _______ _______ _____ _____    ______ ____
ROOT
ATOM      1  N   UNL     1      -0.709   1.132   0.000  0.00  0.00    +0.000 N 
ATOM      2  C   UNL     1      -0.709   1.957   0.000  0.00  0.00    +0.000 C 
ATOM      3  C   UNL     1       0.075   0.877   0.000  0.00  0.00    +0.000 C 
ATOM      4  C   UNL     1      -1.534   1.132   0.000  0.00  0.00    +0.000 C 
ATOM      5  C   UNL     1      -1.534   1.957   0.000  0.00  0.00    +0.000 C 
ATOM      6  S   UNL     1       0.075   2.212   0.000  0.00  0.00    +0.000 S 
ATOM      7  C   UNL     1       0.560   1.545   0.000  0.00  0.00    +0.000 C 
ATOM      8  C   UNL     1       1.279   1.140   0.000  0.00  0.00    +0.000 C 
ATOM      9  C   UNL     1       1.279   1.950   0.000  0.00  0.00    +0.000 C 
ATOM     10  O   UNL     1      -2.118   0.549   0.000  0.00  0.00    +0.000 OA
ENDROOT
BRANCH   5  11
ATOM     11  N   UNL     1      -2.249   2.370   0.000  0.00  0.00    +0.000 NA
ATOM     12  C   UNL     1      -2.963   1.957   0.000  0.00  0.00    +0.000 C 
ATOM     13  O   UNL     1      -2.963   1.132   0.000  0.00  0.00    +0.000 OA
BRANCH  12  14
ATOM     14  C   UNL     1      -3.678   2.370   0.000  0.00  0.00    +0.000 C 
ATOM     15  N   UNL     1      -3.678   3.195   0.000  0.00  0.00    +0.000 NA
BRANCH  14  17
ATOM     16  C   UNL     1      -5.107   2.370   0.000  0.00  0.00    +0.000 A 
ATOM     17  C   UNL     1      -4.392   1.957   0.000  0.00  0.00    +0.000 A 
ATOM     18  C   UNL     1      -4.392   1.132   0.000  0.00  0.00    +0.000 A 
ATOM     19  C   UNL     1      -5.107   0.720   0.000  0.00  0.00    +0.000 A 
ATOM     20  C   UNL     1      -5.821   1.132   0.000  0.00  0.00    +0.000 A 
ATOM     21  C   UNL     1      -5.821   1.957   0.000  0.00  0.00    +0.000 A 
ENDBRANCH  14  17
ENDBRANCH  12  14
ENDBRANCH   5  11
BRANCH   3  22
ATOM     22  C   UNL     1       0.330   0.093   0.000  0.00  0.00    +0.000 C 
ATOM     23  O   UNL     1      -0.222  -0.520   0.000  0.00  0.00    +0.000 OA
BRANCH  22  24
ATOM     24  O   UNL     1       1.137  -0.079   0.000  0.00  0.00    +0.000 OA
BRANCH  24  25
ATOM     25  C   UNL     1       1.852  -0.491   0.000  0.00  0.00    +0.000 C 
BRANCH  25  26
ATOM     26  O   UNL     1       2.566  -0.079   0.000  0.00  0.00    +0.000 OA
BRANCH  26  27
ATOM     27  C   UNL     1       3.373  -0.250   0.000  0.00  0.00    +0.000 C 
ATOM     28  O   UNL     1       3.925   0.363   0.000  0.00  0.00    +0.000 OA
BRANCH  27  31
ATOM     29  N   UNL     1       4.413  -1.290   0.000  0.00  0.00    +0.000 N 
ATOM     30  C   UNL     1       4.413  -2.115   0.000  0.00  0.00    +0.000 C 
ATOM     31  C   UNL     1       3.628  -1.035   0.000  0.00  0.00    +0.000 C 
ATOM     32  C   UNL     1       5.238  -1.290   0.000  0.00  0.00    +0.000 C 
ATOM     33  C   UNL     1       5.238  -2.115   0.000  0.00  0.00    +0.000 C 
ATOM     34  S   UNL     1       3.628  -2.370   0.000  0.00  0.00    +0.000 S 
ATOM     35  C   UNL     1       3.143  -1.702   0.000  0.00  0.00    +0.000 C 
ATOM     36  C   UNL     1       2.425  -1.297   0.000  0.00  0.00    +0.000 C 
ATOM     37  C   UNL     1       2.425  -2.107   0.000  0.00  0.00    +0.000 C 
ATOM     38  O   UNL     1       5.821  -0.706   0.000  0.00  0.00    +0.000 OA
ATOM     39  O   UNL     1       3.628  -3.195   0.000  0.00  0.00    +0.000 OA
ATOM     40  O   UNL     1       2.914  -2.782   0.000  0.00  0.00    +0.000 OA
ENDBRANCH  27  31
ENDBRANCH  26  27
ENDBRANCH  25  26
ENDBRANCH  24  25
ENDBRANCH  22  24
ENDBRANCH   3  22
TORSDOF 9
