REMARK  Name = 
REMARK  12 active torsions:
REMARK  status: ('A' for Active; 'I' for Inactive)
REMARK    1  A    between atoms: P_1  and  C_24
REMARK    2  A    between atoms: N_11  and  C_19
REMARK    3  A    between atoms: N_11  and  C_23
REMARK    4  A    between atoms: C_14  and  C_15
REMARK    5  A    between atoms: C_14  and  C_19
REMARK    6  A    between atoms: C_15  and  C_21
REMARK    7  A    between atoms: C_16  and  C_17
REMARK    8  A    between atoms: C_16  and  C_18
REMARK    9  A    between atoms: C_17  and  C_20
REMARK   10  A    between atoms: C_18  and  C_22
REMARK   11  A    between atoms: C_21  and  C_25
REMARK   12  A    between atoms: C_22  and  C_24
REMARK                            x       y       z     vdW  Elec       q    Type
REMARK                         _______ _______ _______ _____ _____    ______ ____
ROOT
ATOM      1  O   UNL     1       1.127   1.444   0.000  0.00  0.00    +0.000 OA
ATOM      2  O   UNL     1       2.556  -1.031   0.000  0.00  0.00    +0.000 OA
ATOM      3  N   UNL     1       1.127  -1.031   0.000  0.00  0.00    +0.000 N 
ATOM      4  N   UNL     1       1.841   0.206   0.000  0.00  0.00    +0.000 N 
ATOM      5  C   UNL     1       0.412   0.206   0.000  0.00  0.00    +0.000 A 
ATOM      6  C   UNL     1       0.412  -0.619   0.000  0.00  0.00    +0.000 A 
ATOM      7  C   UNL     1       1.127   0.619   0.000  0.00  0.00    +0.000 A 
ATOM      8  C   UNL     1       1.841  -0.619   0.000  0.00  0.00    +0.000 A 
ATOM      9  H   UNL     1       1.127  -1.543   0.000  0.00  0.00    +0.000 HD
ATOM     10  H   UNL     1       2.284   0.462   0.000  0.00  0.00    +0.000 HD
ENDROOT
BRANCH   6  11
ATOM     11  N   UNL     1      -0.302  -1.031   0.000  0.00  0.00    +0.000 N 
ATOM     12  H   UNL     1      -0.745  -0.775   0.000  0.00  0.00    +0.000 HD
BRANCH  11  13
ATOM     13  C   UNL     1      -0.302  -1.856   0.000  0.00  0.00    +0.000 C 
BRANCH  13  15
ATOM     14  O   UNL     1      -1.731  -1.856   0.000  0.00  0.00    +0.000 OA
ATOM     15  C   UNL     1      -1.016  -2.269   0.000  0.00  0.00    +0.000 C 
BRANCH  15  17
ATOM     16  O   UNL     1      -0.302  -3.506   0.000  0.00  0.00    +0.000 OA
ATOM     17  C   UNL     1      -1.016  -3.094   0.000  0.00  0.00    +0.000 C 
BRANCH  17  19
ATOM     18  O   UNL     1      -2.445  -3.094   0.000  0.00  0.00    +0.000 OA
ATOM     19  C   UNL     1      -1.731  -3.506   0.000  0.00  0.00    +0.000 C 
BRANCH  19  21
ATOM     20  O   UNL     1      -2.445  -4.744   0.000  0.00  0.00    +0.000 OA
ATOM     21  C   UNL     1      -1.731  -4.331   0.000  0.00  0.00    +0.000 C 
ENDBRANCH  19  21
ENDBRANCH  17  19
ENDBRANCH  15  17
ENDBRANCH  13  15
ENDBRANCH  11  13
ENDBRANCH   6  11
BRANCH   5  22
ATOM     22  C   UNL     1      -0.302   0.619   0.000  0.00  0.00    +0.000 C 
BRANCH  22  23
ATOM     23  C   UNL     1      -0.302   1.444   0.000  0.00  0.00    +0.000 C 
BRANCH  23  24
ATOM     24  C   UNL     1      -1.016   1.856   0.000  0.00  0.00    +0.000 C 
BRANCH  24  25
ATOM     25  C   UNL     1      -1.016   2.681   0.000  0.00  0.00    +0.000 C 
BRANCH  25  26
ATOM     26  C   UNL     1      -1.731   3.094   0.000  0.00  0.00    +0.000 C 
BRANCH  26  27
ATOM     27  P   UNL     1      -1.731   3.919   0.000  0.00  0.00    +0.000 P 
ATOM     28  O   UNL     1      -1.731   4.744   0.000  0.00  0.00    +0.000 OA
ATOM     29  O   UNL     1      -2.556   3.919   0.000  0.00  0.00    +0.000 OA
ATOM     30  O   UNL     1      -0.906   3.919   0.000  0.00  0.00    +0.000 OA
ENDBRANCH  26  27
ENDBRANCH  25  26
ENDBRANCH  24  25
ENDBRANCH  23  24
ENDBRANCH  22  23
ENDBRANCH   5  22
TORSDOF 12
