REMARK  Name = 
REMARK  6 active torsions:
REMARK  status: ('A' for Active; 'I' for Inactive)
REMARK    1  A    between atoms: C_2  and  O_22
REMARK    2  A    between atoms: C_12  and  C_19
REMARK    3  A    between atoms: C_12  and  O_23
REMARK    4  A    between atoms: C_13  and  C_17
REMARK    5  A    between atoms: C_14  and  O_23
REMARK    6  A    between atoms: C_19  and  O_22
REMARK                            x       y       z     vdW  Elec       q    Type
REMARK                         _______ _______ _______ _____ _____    ______ ____
ROOT
ATOM      1  C   UNL     1      10.003   2.475   0.000  0.00  0.00    +0.000 A 
ATOM      2  C   UNL     1      10.717   2.888   0.000  0.00  0.00    +0.000 A 
ATOM      3  C   UNL     1      10.717   1.238   0.000  0.00  0.00    +0.000 A 
ATOM      4  C   UNL     1      12.861   2.475   0.000  0.00  0.00    +0.000 A 
ATOM      5  C   UNL     1      10.003   1.650   0.000  0.00  0.00    +0.000 A 
ATOM      6  C   UNL     1      11.431   2.475   0.000  0.00  0.00    +0.000 A 
ATOM      7  C   UNL     1      12.146   2.888   0.000  0.00  0.00    +0.000 A 
ATOM      8  C   UNL     1      12.861   1.650   0.000  0.00  0.00    +0.000 A 
ATOM      9  C   UNL     1      11.431   1.650   0.000  0.00  0.00    +0.000 A 
ATOM     10  O   UNL     1      12.146   3.712   0.000  0.00  0.00    +0.000 OA
ATOM     11  O   UNL     1      12.146   1.238   0.000  0.00  0.00    +0.000 OA
ENDROOT
BRANCH   8  17
ATOM     12  C   UNL     1      15.004   0.412   0.000  0.00  0.00    +0.000 A 
ATOM     13  C   UNL     1      15.004   1.238   0.000  0.00  0.00    +0.000 A 
ATOM     14  C   UNL     1      14.289   0.000   0.000  0.00  0.00    +0.000 A 
ATOM     15  C   UNL     1      14.289   1.650   0.000  0.00  0.00    +0.000 A 
ATOM     16  C   UNL     1      13.575   0.412   0.000  0.00  0.00    +0.000 A 
ATOM     17  C   UNL     1      13.575   1.238   0.000  0.00  0.00    +0.000 A 
ENDBRANCH   8  17
BRANCH   5  18
ATOM     18  O   UNL     1       9.288   1.238   0.000  0.00  0.00    +0.000 OA
BRANCH  18  19
ATOM     19  C   UNL     1       8.574   1.650   0.000  0.00  0.00    +0.000 C 
BRANCH  19  20
ATOM     20  C   UNL     1       7.859   1.238   0.000  0.00  0.00    +0.000 C 
ATOM     21  O   UNL     1       7.859   0.412   0.000  0.00  0.00    +0.000 OA
BRANCH  20  22
ATOM     22  O   UNL     1       7.145   1.650   0.000  0.00  0.00    +0.000 OA
BRANCH  22  24
ATOM     23  C   UNL     1       5.716   1.650   0.000  0.00  0.00    +0.000 C 
ATOM     24  C   UNL     1       6.430   1.238   0.000  0.00  0.00    +0.000 C 
ENDBRANCH  22  24
ENDBRANCH  20  22
ENDBRANCH  19  20
ENDBRANCH  18  19
ENDBRANCH   5  18
TORSDOF 6
