REMARK  Name = 
REMARK  4 active torsions:
REMARK  status: ('A' for Active; 'I' for Inactive)
REMARK    1  A    between atoms: C_2  and  N_4
REMARK    2  A    between atoms: C_8  and  N_9
REMARK    3  A    between atoms: N_9  and  C_10
REMARK    4  A    between atoms: C_10  and  C_12
REMARK                            x       y       z     vdW  Elec       q    Type
REMARK                         _______ _______ _______ _____ _____    ______ ____
ROOT
ATOM      1  N   UNL     1       1.429  -2.475   0.000  0.00  0.00    +0.000 N 
ATOM      2  C   UNL     1       2.143  -2.888   0.000  0.00  0.00    +0.000 A 
ATOM      3  O   UNL     1       2.858  -2.475   0.000  0.00  0.00    +0.000 OA
ATOM      4  N   UNL     1       2.143  -3.712   0.000  0.00  0.00    +0.000 NA
ATOM      5  C   UNL     1       1.429  -4.125   0.000  0.00  0.00    +0.000 A 
ATOM      6  C   UNL     1       0.715  -3.712   0.000  0.00  0.00    +0.000 A 
ATOM      7  C   UNL     1       0.715  -2.888   0.000  0.00  0.00    +0.000 A 
ATOM      8  O   UNL     1       0.000  -2.475   0.000  0.00  0.00    +0.000 OA
ENDROOT
BRANCH   1  10
ATOM      9  C   UNL     1       0.715  -1.238   0.000  0.00  0.00    +0.000 C 
ATOM     10  C   UNL     1       1.429  -1.650   0.000  0.00  0.00    +0.000 C 
ATOM     11  C   UNL     1       2.143  -1.238   0.000  0.00  0.00    +0.000 C 
ENDBRANCH   1  10
BRANCH   5  12
ATOM     12  N   UNL     1       1.429  -4.950   0.000  0.00  0.00    +0.000 NA
BRANCH  12  13
ATOM     13  C   UNL     1       2.143  -5.362   0.000  0.00  0.00    +0.000 C 
ATOM     14  C   UNL     1       2.858  -4.950   0.000  0.00  0.00    +0.000 C 
BRANCH  13  15
ATOM     15  C   UNL     1       2.143  -6.188   0.000  0.00  0.00    +0.000 A 
ATOM     16  C   UNL     1       2.858  -6.600   0.000  0.00  0.00    +0.000 A 
ATOM     17  C   UNL     1       2.858  -7.425   0.000  0.00  0.00    +0.000 A 
ATOM     18  C   UNL     1       2.143  -7.838   0.000  0.00  0.00    +0.000 A 
ATOM     19  C   UNL     1       1.429  -7.425   0.000  0.00  0.00    +0.000 A 
ATOM     20  C   UNL     1       1.429  -6.600   0.000  0.00  0.00    +0.000 A 
ENDBRANCH  13  15
ENDBRANCH  12  13
ENDBRANCH   5  12
TORSDOF 4
