REMARK  Name = 
REMARK  7 active torsions:
REMARK  status: ('A' for Active; 'I' for Inactive)
REMARK    1  A    between atoms: C_2  and  O_3
REMARK    2  A    between atoms: O_3  and  C_4
REMARK    3  A    between atoms: N_7  and  C_8
REMARK    4  A    between atoms: C_8  and  C_9
REMARK    5  A    between atoms: C_10  and  O_11
REMARK    6  A    between atoms: C_21  and  C_23
REMARK    7  A    between atoms: C_26  and  C_29
REMARK                            x       y       z     vdW  Elec       q    Type
REMARK                         _______ _______ _______ _____ _____    ______ ____
ROOT
ATOM      1  C   UNL     1       5.422   3.300   0.000  0.00  0.00    +0.000 C 
ATOM      2  C   UNL     1       5.422   2.475   0.000  0.00  0.00    +0.000 C 
ATOM      3  C   UNL     1       4.708   2.062   0.000  0.00  0.00    +0.000 C 
ATOM      4  N   UNL     1       3.993   2.475   0.000  0.00  0.00    +0.000 NA
ATOM      5  C   UNL     1       3.993   3.300   0.000  0.00  0.00    +0.000 C 
ATOM      6  C   UNL     1       4.708   3.712   0.000  0.00  0.00    +0.000 C 
ENDROOT
BRANCH   5   7
ATOM      7  C   UNL     1       3.279   3.712   0.000  0.00  0.00    +0.000 A 
ATOM      8  C   UNL     1       2.564   3.300   0.000  0.00  0.00    +0.000 A 
ATOM      9  C   UNL     1       1.850   3.712   0.000  0.00  0.00    +0.000 A 
ATOM     10  C   UNL     1       1.850   4.537   0.000  0.00  0.00    +0.000 A 
ATOM     11  C   UNL     1       2.564   4.950   0.000  0.00  0.00    +0.000 A 
ATOM     12  C   UNL     1       3.279   4.537   0.000  0.00  0.00    +0.000 A 
BRANCH  10  13
ATOM     13  C   UNL     1       1.135   4.950   0.000  0.00  0.00    +0.000 C 
ATOM     14  O   UNL     1       0.421   4.537   0.000  0.00  0.00    +0.000 OA
ATOM     15  O   UNL     1       1.135   5.775   0.000  0.00  0.00    +0.000 OA
ENDBRANCH  10  13
ENDBRANCH   5   7
BRANCH   4  16
ATOM     16  C   UNL     1       3.279   2.062   0.000  0.00  0.00    +0.000 C 
BRANCH  16  17
ATOM     17  C   UNL     1       3.279   1.238   0.000  0.00  0.00    +0.000 A 
ATOM     18  C   UNL     1       3.993   0.825   0.000  0.00  0.00    +0.000 A 
ATOM     19  C   UNL     1       3.993   0.000   0.000  0.00  0.00    +0.000 A 
ATOM     20  C   UNL     1       3.279  -0.412   0.000  0.00  0.00    +0.000 A 
ATOM     21  C   UNL     1       3.279  -1.238   0.000  0.00  0.00    +0.000 C 
ATOM     22  C   UNL     1       2.564   0.000   0.000  0.00  0.00    +0.000 A 
ATOM     23  C   UNL     1       2.564   0.825   0.000  0.00  0.00    +0.000 A 
ATOM     24  C   UNL     1       1.780   1.080   0.000  0.00  0.00    +0.000 A 
ATOM     25  C   UNL     1       1.295   0.412   0.000  0.00  0.00    +0.000 A 
ATOM     26  N   UNL     1       1.780  -0.255   0.000  0.00  0.00    +0.000 NA
BRANCH  18  27
ATOM     27  O   UNL     1       4.708   1.238   0.000  0.00  0.00    +0.000 OA
ATOM     28  C   UNL     1       5.422   0.825   0.000  0.00  0.00    +0.000 C 
ENDBRANCH  18  27
ENDBRANCH  16  17
ENDBRANCH   4  16
BRANCH   1  29
ATOM     29  O   UNL     1       6.137   3.712   0.000  0.00  0.00    +0.000 OA
BRANCH  29  31
ATOM     30  C   UNL     1       6.851   4.950   0.000  0.00  0.00    +0.000 C 
ATOM     31  C   UNL     1       6.137   4.537   0.000  0.00  0.00    +0.000 C 
ENDBRANCH  29  31
ENDBRANCH   1  29
TORSDOF 7
