REMARK  Name = 
REMARK  6 active torsions:
REMARK  status: ('A' for Active; 'I' for Inactive)
REMARK    1  A    between atoms: O_2  and  C_3
REMARK    2  A    between atoms: C_8  and  O_13
REMARK    3  A    between atoms: O_13  and  C_14
REMARK    4  A    between atoms: C_14  and  C_15
REMARK    5  A    between atoms: C_15  and  C_28
REMARK    6  A    between atoms: C_19  and  C_21
REMARK                            x       y       z     vdW  Elec       q    Type
REMARK                         _______ _______ _______ _____ _____    ______ ____
ROOT
ATOM      1  C   UNL     1       5.716   0.000   0.000  0.00  0.00    +0.000 C 
ATOM      2  C   UNL     1       6.430   0.412   0.000  0.00  0.00    +0.000 C 
ATOM      3  N   UNL     1       6.843  -0.302   0.000  0.00  0.00    +0.000 N 
ATOM      4  C   UNL     1       6.128  -0.715   0.000  0.00  0.00    +0.000 C 
ATOM      5  C   UNL     1       7.640  -0.515   0.000  0.00  0.00    +0.000 C 
ATOM      6  O   UNL     1       8.223   0.068   0.000  0.00  0.00    +0.000 OA
ENDROOT
BRANCH   5   7
ATOM      7  C   UNL     1       7.853  -1.312   0.000  0.00  0.00    +0.000 A 
ATOM      8  C   UNL     1       8.650  -1.526   0.000  0.00  0.00    +0.000 A 
ATOM      9  C   UNL     1       8.864  -2.323   0.000  0.00  0.00    +0.000 A 
ATOM     10  C   UNL     1       8.280  -2.906   0.000  0.00  0.00    +0.000 A 
ATOM     11  C   UNL     1       7.483  -2.693   0.000  0.00  0.00    +0.000 A 
ATOM     12  C   UNL     1       7.270  -1.896   0.000  0.00  0.00    +0.000 A 
ATOM     13  F   UNL     1       8.494  -3.703   0.000  0.00  0.00    +0.000 F 
ENDBRANCH   5   7
BRANCH   1  14
ATOM     14  C   UNL     1       5.303   0.715   0.000  0.00  0.00    +0.000 C 
ATOM     15  O   UNL     1       5.716   1.429   0.000  0.00  0.00    +0.000 OA
ATOM     16  O   UNL     1       4.478   0.715   0.000  0.00  0.00    +0.000 OA
ENDBRANCH   1  14
BRANCH   1  17
ATOM     17  C   UNL     1       5.001  -0.412   0.000  0.00  0.00    +0.000 C 
BRANCH  17  18
ATOM     18  O   UNL     1       4.287   0.000   0.000  0.00  0.00    +0.000 OA
BRANCH  18  24
ATOM     19  C   UNL     1       0.715  -1.238   0.000  0.00  0.00    +0.000 A 
ATOM     20  C   UNL     1       0.715  -0.412   0.000  0.00  0.00    +0.000 A 
ATOM     21  C   UNL     1       1.429   0.000   0.000  0.00  0.00    +0.000 A 
ATOM     22  C   UNL     1       2.143  -0.412   0.000  0.00  0.00    +0.000 A 
ATOM     23  C   UNL     1       2.858   0.000   0.000  0.00  0.00    +0.000 A 
ATOM     24  C   UNL     1       3.572  -0.412   0.000  0.00  0.00    +0.000 A 
ATOM     25  C   UNL     1       3.572  -1.238   0.000  0.00  0.00    +0.000 A 
ATOM     26  C   UNL     1       2.858  -1.650   0.000  0.00  0.00    +0.000 A 
ATOM     27  C   UNL     1       2.143  -1.238   0.000  0.00  0.00    +0.000 A 
ATOM     28  C   UNL     1       1.429  -1.650   0.000  0.00  0.00    +0.000 A 
BRANCH  19  30
ATOM     29  C   UNL     1       0.000  -2.475   0.000  0.00  0.00    +0.000 C 
ATOM     30  O   UNL     1       0.000  -1.650   0.000  0.00  0.00    +0.000 OA
ENDBRANCH  19  30
ENDBRANCH  18  24
ENDBRANCH  17  18
ENDBRANCH   1  17
TORSDOF 6
