REMARK  Name = 
REMARK  9 active torsions:
REMARK  status: ('A' for Active; 'I' for Inactive)
REMARK    1  A    between atoms: C_2  and  N_3
REMARK    2  A    between atoms: N_3  and  C_4
REMARK    3  A    between atoms: N_3  and  C_6
REMARK    4  A    between atoms: C_6  and  C_7
REMARK    5  A    between atoms: C_12  and  C_17
REMARK    6  A    between atoms: C_17  and  O_18
REMARK    7  A    between atoms: O_18  and  C_19
REMARK    8  A    between atoms: N_21  and  C_22
REMARK    9  A    between atoms: C_25  and  C_28
REMARK                            x       y       z     vdW  Elec       q    Type
REMARK                         _______ _______ _______ _____ _____    ______ ____
ROOT
ATOM      1  C   UNL     1      -5.001   2.888   0.000  0.00  0.00    +0.000 A 
ATOM      2  C   UNL     1      -4.287   3.300   0.000  0.00  0.00    +0.000 A 
ATOM      3  C   UNL     1      -3.572   2.888   0.000  0.00  0.00    +0.000 A 
ATOM      4  C   UNL     1      -3.572   2.062   0.000  0.00  0.00    +0.000 A 
ATOM      5  C   UNL     1      -2.858   1.650   0.000  0.00  0.00    +0.000 A 
ATOM      6  C   UNL     1      -2.858   0.825   0.000  0.00  0.00    +0.000 A 
ATOM      7  C   UNL     1      -3.572   0.412   0.000  0.00  0.00    +0.000 A 
ATOM      8  C   UNL     1      -4.287   0.825   0.000  0.00  0.00    +0.000 A 
ATOM      9  C   UNL     1      -4.287   1.650   0.000  0.00  0.00    +0.000 A 
ATOM     10  C   UNL     1      -5.001   2.062   0.000  0.00  0.00    +0.000 A 
ENDROOT
BRANCH   1  11
ATOM     11  C   UNL     1      -5.716   3.300   0.000  0.00  0.00    +0.000 C 
BRANCH  11  12
ATOM     12  N   UNL     1      -6.430   2.888   0.000  0.00  0.00    +0.000 NA
BRANCH  12  14
ATOM     13  C   UNL     1      -7.859   2.888   0.000  0.00  0.00    +0.000 C 
ATOM     14  C   UNL     1      -7.145   3.300   0.000  0.00  0.00    +0.000 C 
ENDBRANCH  12  14
BRANCH  12  15
ATOM     15  C   UNL     1      -6.430   2.062   0.000  0.00  0.00    +0.000 C 
ATOM     16  C   UNL     1      -5.716   1.650   0.000  0.00  0.00    +0.000 C 
ENDBRANCH  12  15
ENDBRANCH  11  12
ENDBRANCH   1  11
BRANCH   6  17
ATOM     17  C   UNL     1      -2.143   0.412   0.000  0.00  0.00    +0.000 C 
BRANCH  17  18
ATOM     18  O   UNL     1      -1.429   0.825   0.000  0.00  0.00    +0.000 OA
BRANCH  18  19
ATOM     19  C   UNL     1      -0.715   0.412   0.000  0.00  0.00    +0.000 C 
ATOM     20  O   UNL     1      -0.715  -0.412   0.000  0.00  0.00    +0.000 OA
ATOM     21  N   UNL     1       0.000   0.825   0.000  0.00  0.00    +0.000 NA
BRANCH  21  22
ATOM     22  C   UNL     1       0.715   0.412   0.000  0.00  0.00    +0.000 A 
ATOM     23  C   UNL     1       1.429   0.825   0.000  0.00  0.00    +0.000 A 
ATOM     24  C   UNL     1       2.143   0.412   0.000  0.00  0.00    +0.000 A 
ATOM     25  C   UNL     1       2.143  -0.412   0.000  0.00  0.00    +0.000 A 
ATOM     26  C   UNL     1       1.429  -0.825   0.000  0.00  0.00    +0.000 A 
ATOM     27  C   UNL     1       0.715  -0.412   0.000  0.00  0.00    +0.000 A 
BRANCH  25  28
ATOM     28  C   UNL     1       2.858  -0.825   0.000  0.00  0.00    +0.000 C 
ATOM     29  O   UNL     1       3.572  -0.412   0.000  0.00  0.00    +0.000 OA
ATOM     30  N   UNL     1       2.858  -1.650   0.000  0.00  0.00    +0.000 NA
ATOM     31  O   UNL     1       3.572  -2.062   0.000  0.00  0.00    +0.000 OA
ENDBRANCH  25  28
ENDBRANCH  21  22
ENDBRANCH  18  19
ENDBRANCH  17  18
ENDBRANCH   6  17
TORSDOF 9
