REMARK  Name = 
REMARK  3 active torsions:
REMARK  status: ('A' for Active; 'I' for Inactive)
REMARK    1  A    between atoms: C_15  and  RE_18
REMARK    2  A    between atoms: RE_18  and  C_20
REMARK    3  A    between atoms: RE_18  and  C_21
REMARK                            x       y       z     vdW  Elec       q    Type
REMARK                         _______ _______ _______ _____ _____    ______ ____
ROOT
ATOM      1  C   UNL     1       0.237   1.650   0.000  0.00  0.00    +0.000 C 
ATOM      2  C   UNL     1       0.951   2.062   0.000  0.00  0.00    +0.000 C 
ATOM      3  C   UNL     1       1.666   1.650   0.000  0.00  0.00    +0.000 C 
ATOM      4  C   UNL     1       1.666   0.825   0.000  0.00  0.00    +0.000 A 
ATOM      5  C   UNL     1       2.380   0.412   0.000  0.00  0.00    +0.000 A 
ATOM      6  C   UNL     1       2.380  -0.412   0.000  0.00  0.00    +0.000 A 
ATOM      7  C   UNL     1       1.666  -0.825   0.000  0.00  0.00    +0.000 A 
ATOM      8  C   UNL     1       1.666  -1.650   0.000  0.00  0.00    +0.000 C 
ATOM      9  C   UNL     1       0.951  -2.062   0.000  0.00  0.00    +0.000 C 
ATOM     10  C   UNL     1       0.237  -1.650   0.000  0.00  0.00    +0.000 C 
ATOM     11  C   UNL     1       0.951  -0.412   0.000  0.00  0.00    +0.000 A 
ATOM     12  C   UNL     1       0.951   0.412   0.000  0.00  0.00    +0.000 A 
ATOM     13  N   UNL     1       0.237  -0.825   0.000  0.00  0.00    +0.000 N 
ATOM     14  N   UNL     1       0.237   0.825   0.000  0.00  0.00    +0.000 N 
ATOM     15 RE   UNL     1      -0.730   0.000   0.000  0.00  0.00    +0.000 Re
ENDROOT
BRANCH  15  16
ATOM     16  C   UNL     1      -1.555   0.000   0.000  0.00  0.00    +0.000 C 
ATOM     17  O   UNL     1      -2.380   0.000   0.000  0.00  0.00    +0.000 OA
ENDBRANCH  15  16
BRANCH  15  19
ATOM     18  O   UNL     1      -0.730   1.650   0.000  0.00  0.00    +0.000 OA
ATOM     19  C   UNL     1      -0.730   0.825   0.000  0.00  0.00    +0.000 C 
ENDBRANCH  15  19
BRANCH  15  21
ATOM     20  O   UNL     1      -0.730  -1.650   0.000  0.00  0.00    +0.000 OA
ATOM     21  C   UNL     1      -0.730  -0.825   0.000  0.00  0.00    +0.000 C 
ENDBRANCH  15  21
TORSDOF 3
