REMARK  Name = 
REMARK  3 active torsions:
REMARK  status: ('A' for Active; 'I' for Inactive)
REMARK    1  A    between atoms: C_3  and  C_5
REMARK    2  A    between atoms: N_19  and  C_20
REMARK    3  A    between atoms: C_23  and  N_26
REMARK                            x       y       z     vdW  Elec       q    Type
REMARK                         _______ _______ _______ _____ _____    ______ ____
ROOT
ATOM      1  C   UNL     1       3.599   0.866   0.000  0.00  0.00    +0.000 A 
ATOM      2  N   UNL     1       3.660   0.043   0.000  0.00  0.00    +0.000 NA
ATOM      3  N   UNL     1       2.896  -0.269   0.000  0.00  0.00    +0.000 N 
ATOM      4  C   UNL     1       2.700  -1.070   0.000  0.00  0.00    +0.000 C 
ATOM      5  C   UNL     1       2.364   0.361   0.000  0.00  0.00    +0.000 A 
ATOM      6  C   UNL     1       2.798   1.062   0.000  0.00  0.00    +0.000 A 
ATOM      7  C   UNL     1       2.408   1.789   0.000  0.00  0.00    +0.000 C 
ATOM      8  C   UNL     1       3.192   2.047   0.000  0.00  0.00    +0.000 C 
ATOM      9  C   UNL     1       2.291   2.606   0.000  0.00  0.00    +0.000 C 
ATOM     10  C   UNL     1       1.584   1.815   0.000  0.00  0.00    +0.000 C 
ATOM     11  C   UNL     1       1.149   1.114   0.000  0.00  0.00    +0.000 A 
ATOM     12  C   UNL     1       1.539   0.387   0.000  0.00  0.00    +0.000 A 
ATOM     13  N   UNL     1       1.105  -0.315   0.000  0.00  0.00    +0.000 NA
ATOM     14  C   UNL     1       0.280  -0.289   0.000  0.00  0.00    +0.000 A 
ATOM     15  N   UNL     1      -0.155  -0.990   0.000  0.00  0.00    +0.000 NA
ATOM     16  N   UNL     1      -0.110   0.438   0.000  0.00  0.00    +0.000 NA
ATOM     17  C   UNL     1       0.325   1.139   0.000  0.00  0.00    +0.000 A 
ENDROOT
BRANCH  15  18
ATOM     18  C   UNL     1      -0.979  -0.964   0.000  0.00  0.00    +0.000 A 
ATOM     19  C   UNL     1      -1.414  -1.665   0.000  0.00  0.00    +0.000 A 
ATOM     20  C   UNL     1      -2.239  -1.640   0.000  0.00  0.00    +0.000 A 
ATOM     21  C   UNL     1      -2.628  -0.913   0.000  0.00  0.00    +0.000 A 
ATOM     22  C   UNL     1      -2.194  -0.211   0.000  0.00  0.00    +0.000 A 
ATOM     23  C   UNL     1      -1.369  -0.237   0.000  0.00  0.00    +0.000 A 
BRANCH  21  24
ATOM     24  N   UNL     1      -3.453  -0.887   0.000  0.00  0.00    +0.000 N 
ATOM     25  C   UNL     1      -3.888  -1.588   0.000  0.00  0.00    +0.000 C 
ATOM     26  C   UNL     1      -4.712  -1.562   0.000  0.00  0.00    +0.000 C 
ATOM     27  N   UNL     1      -5.102  -0.835   0.000  0.00  0.00    +0.000 NA
ATOM     28  C   UNL     1      -5.927  -0.810   0.000  0.00  0.00    +0.000 C 
ATOM     29  C   UNL     1      -4.668  -0.134   0.000  0.00  0.00    +0.000 C 
ATOM     30  C   UNL     1      -3.843  -0.160   0.000  0.00  0.00    +0.000 C 
ENDBRANCH  21  24
ENDBRANCH  15  18
BRANCH   1  33
ATOM     31  C   UNL     1       5.636   1.651   0.000  0.00  0.00    +0.000 C 
ATOM     32  N   UNL     1       5.006   1.119   0.000  0.00  0.00    +0.000 NA
ATOM     33  C   UNL     1       4.229   1.398   0.000  0.00  0.00    +0.000 C 
ATOM     34  O   UNL     1       4.083   2.210   0.000  0.00  0.00    +0.000 OA
ENDBRANCH   1  33
TORSDOF 3
