REMARK  Name = 
REMARK  6 active torsions:
REMARK  status: ('A' for Active; 'I' for Inactive)
REMARK    1  A    between atoms: C_4  and  O_5
REMARK    2  A    between atoms: O_5  and  C_6
REMARK    3  A    between atoms: C_7  and  C_8
REMARK    4  A    between atoms: N_14  and  C_15
REMARK    5  A    between atoms: C_15  and  C_16
REMARK    6  A    between atoms: C_26  and  C_27
REMARK                            x       y       z     vdW  Elec       q    Type
REMARK                         _______ _______ _______ _____ _____    ______ ____
ROOT
ATOM      1  C   UNL     1      -0.007  -0.708   0.000  0.00  0.00    +0.000 A 
ATOM      2  C   UNL     1      -0.725  -1.120   0.000  0.00  0.00    +0.000 A 
ATOM      3  C   UNL     1      -1.437  -0.708   0.000  0.00  0.00    +0.000 A 
ATOM      4  C   UNL     1      -1.437   0.117   0.000  0.00  0.00    +0.000 A 
ATOM      5  N   UNL     1      -0.725   0.537   0.000  0.00  0.00    +0.000 N 
ATOM      6  C   UNL     1      -0.007   0.117   0.000  0.00  0.00    +0.000 A 
ATOM      7  O   UNL     1       0.704   0.530   0.000  0.00  0.00    +0.000 OA
ENDROOT
BRANCH   2   8
ATOM      8  C   UNL     1      -0.725  -1.938   0.000  0.00  0.00    +0.000 C 
ATOM      9  F   UNL     1       0.100  -1.938   0.000  0.00  0.00    +0.000 F 
ATOM     10  F   UNL     1      -1.543  -1.938   0.000  0.00  0.00    +0.000 F 
ATOM     11  F   UNL     1      -0.725  -2.763   0.000  0.00  0.00    +0.000 F 
ENDBRANCH   2   8
BRANCH   5  12
ATOM     12  C   UNL     1      -0.725   1.362   0.000  0.00  0.00    +0.000 C 
BRANCH  12  13
ATOM     13  C   UNL     1      -1.437   1.775   0.000  0.00  0.00    +0.000 A 
ATOM     14  N   UNL     1      -1.522   2.592   0.000  0.00  0.00    +0.000 NA
ATOM     15  N   UNL     1      -2.333   2.763   0.000  0.00  0.00    +0.000 NA
ATOM     16  C   UNL     1      -2.738   2.052   0.000  0.00  0.00    +0.000 A 
ATOM     17  N   UNL     1      -2.191   1.433   0.000  0.00  0.00    +0.000 N 
ATOM     18  C   UNL     1      -2.361   0.629   0.000  0.00  0.00    +0.000 C 
ATOM     19  O   UNL     1      -3.556   1.960   0.000  0.00  0.00    +0.000 OA
ENDBRANCH  12  13
ENDBRANCH   5  12
BRANCH   1  20
ATOM     20  O   UNL     1       0.704  -1.120   0.000  0.00  0.00    +0.000 OA
BRANCH  20  24
ATOM     21 CL   UNL     1       3.556  -1.127   0.000  0.00  0.00    +0.000 Cl
ATOM     22  C   UNL     1       2.845  -0.715   0.000  0.00  0.00    +0.000 A 
ATOM     23  C   UNL     1       2.127  -1.127   0.000  0.00  0.00    +0.000 A 
ATOM     24  C   UNL     1       1.415  -0.708   0.000  0.00  0.00    +0.000 A 
ATOM     25  C   UNL     1       1.415   0.110   0.000  0.00  0.00    +0.000 A 
ATOM     26  C   UNL     1       2.134   0.523   0.000  0.00  0.00    +0.000 A 
ATOM     27  C   UNL     1       2.845   0.117   0.000  0.00  0.00    +0.000 A 
BRANCH  26  28
ATOM     28  C   UNL     1       2.134   1.348   0.000  0.00  0.00    +0.000 C 
ATOM     29  N   UNL     1       2.134   2.173   0.000  0.00  0.00    +0.000 NA
ENDBRANCH  26  28
ENDBRANCH  20  24
ENDBRANCH   1  20
TORSDOF 6
