REMARK  Name = 
REMARK  8 active torsions:
REMARK  status: ('A' for Active; 'I' for Inactive)
REMARK    1  A    between atoms: C_2  and  N_3
REMARK    2  A    between atoms: N_3  and  C_4
REMARK    3  A    between atoms: N_3  and  C_6
REMARK    4  A    between atoms: C_6  and  C_7
REMARK    5  A    between atoms: C_7  and  O_8
REMARK    6  A    between atoms: O_8  and  C_9
REMARK    7  A    between atoms: C_9  and  C_11
REMARK    8  A    between atoms: C_15  and  C_18
REMARK                            x       y       z     vdW  Elec       q    Type
REMARK                         _______ _______ _______ _____ _____    ______ ____
ROOT
ATOM      1  C   UNL     1       7.145  -4.950   0.000  0.00  0.00    +0.000 A 
ATOM      2  C   UNL     1       7.145  -4.125   0.000  0.00  0.00    +0.000 A 
ATOM      3  C   UNL     1       7.859  -3.712   0.000  0.00  0.00    +0.000 A 
ATOM      4  C   UNL     1       8.574  -4.125   0.000  0.00  0.00    +0.000 A 
ATOM      5  C   UNL     1       8.574  -4.950   0.000  0.00  0.00    +0.000 A 
ATOM      6  C   UNL     1       7.859  -5.362   0.000  0.00  0.00    +0.000 A 
ATOM      7  O   UNL     1       7.859  -6.188   0.000  0.00  0.00    +0.000 OA
ENDROOT
BRANCH   5   8
ATOM      8  C   UNL     1       9.288  -5.362   0.000  0.00  0.00    +0.000 A 
ATOM      9  C   UNL     1      10.003  -4.950   0.000  0.00  0.00    +0.000 A 
ATOM     10  C   UNL     1      10.717  -5.362   0.000  0.00  0.00    +0.000 A 
ATOM     11  C   UNL     1      10.717  -6.188   0.000  0.00  0.00    +0.000 A 
ATOM     12  C   UNL     1      10.003  -6.600   0.000  0.00  0.00    +0.000 A 
ATOM     13  C   UNL     1       9.288  -6.188   0.000  0.00  0.00    +0.000 A 
ENDBRANCH   5   8
BRANCH   1  14
ATOM     14  C   UNL     1       6.430  -5.362   0.000  0.00  0.00    +0.000 C 
ATOM     15  O   UNL     1       6.430  -6.188   0.000  0.00  0.00    +0.000 OA
BRANCH  14  16
ATOM     16  O   UNL     1       5.716  -4.950   0.000  0.00  0.00    +0.000 OA
BRANCH  16  17
ATOM     17  C   UNL     1       5.001  -5.362   0.000  0.00  0.00    +0.000 C 
BRANCH  17  18
ATOM     18  C   UNL     1       4.287  -4.950   0.000  0.00  0.00    +0.000 C 
BRANCH  18  19
ATOM     19  N   UNL     1       3.572  -5.362   0.000  0.00  0.00    +0.000 NA
BRANCH  19  20
ATOM     20  C   UNL     1       3.572  -6.188   0.000  0.00  0.00    +0.000 C 
ATOM     21  C   UNL     1       2.858  -6.600   0.000  0.00  0.00    +0.000 C 
ENDBRANCH  19  20
BRANCH  19  23
ATOM     22  C   UNL     1       2.143  -5.362   0.000  0.00  0.00    +0.000 C 
ATOM     23  C   UNL     1       2.858  -4.950   0.000  0.00  0.00    +0.000 C 
ENDBRANCH  19  23
ENDBRANCH  18  19
ENDBRANCH  17  18
ENDBRANCH  16  17
ENDBRANCH  14  16
ENDBRANCH   1  14
TORSDOF 8
