REMARK  Name = 
REMARK  11 active torsions:
REMARK  status: ('A' for Active; 'I' for Inactive)
REMARK    1  A    between atoms: C_4  and  C_22
REMARK    2  A    between atoms: C_5  and  C_8
REMARK    3  A    between atoms: C_8  and  O_9
REMARK    4  A    between atoms: O_9  and  C_10
REMARK    5  A    between atoms: C_10  and  C_12
REMARK    6  A    between atoms: C_12  and  C_13
REMARK    7  A    between atoms: C_13  and  C_14
REMARK    8  A    between atoms: C_14  and  O_16
REMARK    9  A    between atoms: O_16  and  C_17
REMARK   10  A    between atoms: C_17  and  C_18
REMARK   11  A    between atoms: C_18  and  N_19
REMARK                            x       y       z     vdW  Elec       q    Type
REMARK                         _______ _______ _______ _____ _____    ______ ____
ROOT
ATOM      1  O   UNL     1       1.429   2.475   0.000  0.00  0.00    +0.000 OA
ENDROOT
BRANCH   1   2
ATOM      2  C   UNL     1       2.143   2.888   0.000  0.00  0.00    +0.000 C 
ATOM      3  O   UNL     1       2.143   3.712   0.000  0.00  0.00    +0.000 OA
BRANCH   2   4
ATOM      4  C   UNL     1       2.858   2.475   0.000  0.00  0.00    +0.000 C 
BRANCH   4   5
ATOM      5  C   UNL     1       3.572   2.888   0.000  0.00  0.00    +0.000 C 
BRANCH   5   6
ATOM      6  C   UNL     1       4.287   2.475   0.000  0.00  0.00    +0.000 C 
ATOM      7  O   UNL     1       4.287   1.650   0.000  0.00  0.00    +0.000 OA
BRANCH   6   8
ATOM      8  O   UNL     1       5.001   2.888   0.000  0.00  0.00    +0.000 OA
BRANCH   8   9
ATOM      9  C   UNL     1       5.716   2.475   0.000  0.00  0.00    +0.000 C 
BRANCH   9  10
ATOM     10  C   UNL     1       6.430   2.888   0.000  0.00  0.00    +0.000 C 
BRANCH  10  11
ATOM     11  N   UNL     1       7.145   2.475   0.000  0.00  0.00    +0.000 NA
ATOM     12  C   UNL     1       7.859   2.888   0.000  0.00  0.00    +0.000 C 
ATOM     13  C   UNL     1       7.145   1.650   0.000  0.00  0.00    +0.000 C 
ENDBRANCH  10  11
ENDBRANCH   9  10
ENDBRANCH   8   9
ENDBRANCH   6   8
ENDBRANCH   5   6
ENDBRANCH   4   5
ENDBRANCH   2   4
ENDBRANCH   1   2
BRANCH   1  14
ATOM     14  C   UNL     1       0.715   2.888   0.000  0.00  0.00    +0.000 C 
BRANCH  14  19
ATOM     15  C   UNL     1      -2.143   1.238   0.000  0.00  0.00    +0.000 C 
ATOM     16  C   UNL     1      -1.429   1.650   0.000  0.00  0.00    +0.000 A 
ATOM     17  C   UNL     1      -1.429   2.475   0.000  0.00  0.00    +0.000 A 
ATOM     18  C   UNL     1      -0.715   2.888   0.000  0.00  0.00    +0.000 A 
ATOM     19  C   UNL     1       0.000   2.475   0.000  0.00  0.00    +0.000 A 
ATOM     20  C   UNL     1       0.000   1.650   0.000  0.00  0.00    +0.000 A 
ATOM     21  N   UNL     1      -0.715   1.238   0.000  0.00  0.00    +0.000 NA
ATOM     22  O   UNL     1      -2.143   2.888   0.000  0.00  0.00    +0.000 OA
BRANCH  18  23
ATOM     23  C   UNL     1      -0.715   3.712   0.000  0.00  0.00    +0.000 C 
ATOM     24  O   UNL     1       0.000   4.125   0.000  0.00  0.00    +0.000 OA
ENDBRANCH  18  23
ENDBRANCH  14  19
ENDBRANCH   1  14
TORSDOF 11
