REMARK  Name = 
REMARK  11 active torsions:
REMARK  status: ('A' for Active; 'I' for Inactive)
REMARK    1  A    between atoms: CA_4  and  N_8
REMARK    2  A    between atoms: CA_5  and  C_9
REMARK    3  A    between atoms: C_10  and  C_17
REMARK    4  A    between atoms: C_11  and  C_13
REMARK    5  A    between atoms: C_11  and  O_20
REMARK    6  A    between atoms: C_17  and  C_29
REMARK    7  A    between atoms: O_20  and  C_30
REMARK    8  A    between atoms: N_25  and  C_31
REMARK    9  A    between atoms: N_25  and  C_32
REMARK   10  A    between atoms: N_25  and  C_33
REMARK   11  A    between atoms: C_30  and  C_31
REMARK                            x       y       z     vdW  Elec       q    Type
REMARK                         _______ _______ _______ _____ _____    ______ ____
ROOT
ATOM      1  N   UNL     1      -2.345  -0.073   0.000  0.00  0.00    +0.000 N 
ATOM      2  C   UNL     1      -2.349   0.746   0.000  0.00  0.00    +0.000 C 
ATOM      3  C   UNL     1      -3.173  -0.082   0.000  0.00  0.00    +0.000 C 
ATOM      4  CA  UNL     1      -3.173   0.746   0.000  0.00  0.00    +0.000 C 
ATOM      5  CA  UNL     1      -1.560  -0.329   0.000  0.00  0.00    +0.000 C 
ATOM      6  S   UNL     1      -1.565   1.003   0.000  0.00  0.00    +0.000 S 
ATOM      7  C   UNL     1      -1.080   0.339   0.000  0.00  0.00    +0.000 C 
ATOM      8  O   UNL     1      -3.754  -0.664   0.000  0.00  0.00    +0.000 OA
ATOM      9  C   UNL     1      -0.368  -0.073   0.000  0.00  0.00    +0.000 C 
ATOM     10  C   UNL     1      -0.368   0.756   0.000  0.00  0.00    +0.000 C 
ENDROOT
BRANCH   4  11
ATOM     11  N   UNL     1      -3.890   1.163   0.000  0.00  0.00    +0.000 NA
ATOM     12  C   UNL     1      -4.612   0.746   0.000  0.00  0.00    +0.000 C 
ATOM     13  O   UNL     1      -4.612  -0.073   0.000  0.00  0.00    +0.000 OA
BRANCH  12  14
ATOM     14  C   UNL     1      -5.324   1.163   0.000  0.00  0.00    +0.000 C 
BRANCH  14  15
ATOM     15  C   UNL     1      -6.036   0.746   0.000  0.00  0.00    +0.000 A 
ATOM     16  C   UNL     1      -6.036  -0.068   0.000  0.00  0.00    +0.000 A 
ATOM     17  C   UNL     1      -6.748   1.163   0.000  0.00  0.00    +0.000 A 
ATOM     18  C   UNL     1      -7.460   0.756   0.000  0.00  0.00    +0.000 A 
ATOM     19  C   UNL     1      -6.739  -0.479   0.000  0.00  0.00    +0.000 A 
ATOM     20  C   UNL     1      -7.460  -0.073   0.000  0.00  0.00    +0.000 A 
ENDBRANCH  14  15
ENDBRANCH  12  14
ENDBRANCH   4  11
BRANCH   5  21
ATOM     21  C   UNL     1      -1.565  -1.148   0.000  0.00  0.00    +0.000 C 
ATOM     22  O   UNL     1      -2.287  -1.555   0.000  0.00  0.00    +0.000 OA
ATOM     23  OXT UNL     1      -0.862  -1.569   0.000  0.00  0.00    +0.000 OA
ENDBRANCH   5  21
TORSDOF 4
REMARK  Name = 
REMARK  11 active torsions:
REMARK  status: ('A' for Active; 'I' for Inactive)
REMARK    1  A    between atoms: CA_4  and  N_8
REMARK    2  A    between atoms: CA_5  and  C_9
REMARK    3  A    between atoms: C_10  and  C_17
REMARK    4  A    between atoms: C_11  and  C_13
REMARK    5  A    between atoms: C_11  and  O_20
REMARK    6  A    between atoms: C_17  and  C_29
REMARK    7  A    between atoms: O_20  and  C_30
REMARK    8  A    between atoms: N_25  and  C_31
REMARK    9  A    between atoms: N_25  and  C_32
REMARK   10  A    between atoms: N_25  and  C_33
REMARK   11  A    between atoms: C_30  and  C_31
REMARK                            x       y       z     vdW  Elec       q    Type
REMARK                         _______ _______ _______ _____ _____    ______ ____
ROOT
ATOM      1  C   UNL     1       3.265   0.276   0.000  0.00  0.00    +0.000 C 
ATOM      2  O   UNL     1       3.236   1.061   0.000  0.00  0.00    +0.000 OA
ENDROOT
BRANCH   1   3
ATOM      3  C   UNL     1       2.567  -0.131   0.000  0.00  0.00    +0.000 A 
ATOM      4  C   UNL     1       2.553  -1.017   0.000  0.00  0.00    +0.000 A 
ATOM      5  C   UNL     1       1.797   0.305   0.000  0.00  0.00    +0.000 A 
ATOM      6  C   UNL     1       1.056  -0.988   0.000  0.00  0.00    +0.000 A 
ATOM      7  N   UNL     1       0.344  -1.395   0.000  0.00  0.00    +0.000 NA
ATOM      8  C   UNL     1       1.807  -1.434   0.000  0.00  0.00    +0.000 A 
ATOM      9  C   UNL     1       1.056  -0.116   0.000  0.00  0.00    +0.000 A 
ENDBRANCH   1   3
BRANCH   1  10
ATOM     10  O   UNL     1       3.963  -0.140   0.000  0.00  0.00    +0.000 OA
BRANCH  10  11
ATOM     11  C   UNL     1       4.670   0.262   0.000  0.00  0.00    +0.000 C 
BRANCH  11  12
ATOM     12  C   UNL     1       5.358  -0.131   0.000  0.00  0.00    +0.000 C 
BRANCH  12  13
ATOM     13  N   UNL     1       6.065   0.267   0.000  0.00  0.00    +0.000 NA
BRANCH  13  14
ATOM     14  C   UNL     1       6.743  -0.145   0.000  0.00  0.00    +0.000 C 
ATOM     15  C   UNL     1       7.460   0.247   0.000  0.00  0.00    +0.000 C 
ENDBRANCH  13  14
BRANCH  13  16
ATOM     16  C   UNL     1       6.041   1.075   0.000  0.00  0.00    +0.000 C 
ATOM     17  C   UNL     1       6.739   1.487   0.000  0.00  0.00    +0.000 C 
ENDBRANCH  13  16
ENDBRANCH  12  13
ENDBRANCH  11  12
ENDBRANCH  10  11
ENDBRANCH   1  10
TORSDOF 7
