REMARK  Name = 
REMARK  7 active torsions:
REMARK  status: ('A' for Active; 'I' for Inactive)
REMARK    1  A    between atoms: C_2  and  O_4
REMARK    2  A    between atoms: C_3  and  N_11
REMARK    3  A    between atoms: O_4  and  C_14
REMARK    4  A    between atoms: C_7  and  C_10
REMARK    5  A    between atoms: C_16  and  O_18
REMARK    6  A    between atoms: C_17  and  C_21
REMARK    7  A    between atoms: O_18  and  C_24
REMARK                            x       y       z     vdW  Elec       q    Type
REMARK                         _______ _______ _______ _____ _____    ______ ____
ROOT
ATOM      1  C   UNL     1      -1.429   0.000   0.000  0.00  0.00    +0.000 C 
ATOM      2  C   UNL     1      -0.714  -0.412   0.000  0.00  0.00    +0.000 C 
ATOM      3  C   UNL     1       0.000   0.825   0.000  0.00  0.00    +0.000 C 
ATOM      4  O   UNL     1      -0.714   1.237   0.000  0.00  0.00    +0.000 OA
ATOM      5  C   UNL     1       0.000   0.000   0.000  0.00  0.00    +0.000 C 
ATOM      6  C   UNL     1      -1.429   0.825   0.000  0.00  0.00    +0.000 C 
ATOM      7  O   UNL     1      -0.714  -1.237   0.000  0.00  0.00    +0.000 OA
ATOM      8  O   UNL     1      -2.143  -0.412   0.000  0.00  0.00    +0.000 OA
ENDROOT
BRANCH   6   9
ATOM      9  C   UNL     1      -2.143   1.237   0.000  0.00  0.00    +0.000 C 
ATOM     10  O   UNL     1      -2.858   0.825   0.000  0.00  0.00    +0.000 OA
ENDBRANCH   6   9
BRANCH   3  11
ATOM     11  O   UNL     1       0.714   1.238   0.000  0.00  0.00    +0.000 OA
BRANCH  11  13
ATOM     12  O   UNL     1      -0.714   2.062   0.000  0.00  0.00    +0.000 OA
ATOM     13  C   UNL     1       0.714   2.062   0.000  0.00  0.00    +0.000 C 
ATOM     14  C   UNL     1       1.429   2.475   0.000  0.00  0.00    +0.000 C 
ATOM     15  C   UNL     1       0.000   2.475   0.000  0.00  0.00    +0.000 C 
ATOM     16  C   UNL     1       1.429   3.300   0.000  0.00  0.00    +0.000 C 
ATOM     17  C   UNL     1       0.000   3.300   0.000  0.00  0.00    +0.000 C 
ATOM     18  O   UNL     1       0.714   3.712   0.000  0.00  0.00    +0.000 OA
ATOM     19  O   UNL     1       2.143   3.712   0.000  0.00  0.00    +0.000 OA
BRANCH  14  20
ATOM     20  N   UNL     1       2.143   2.062   0.000  0.00  0.00    +0.000 NA
ATOM     21  C   UNL     1       2.143   1.237   0.000  0.00  0.00    +0.000 C 
ATOM     22  C   UNL     1       2.858   0.825   0.000  0.00  0.00    +0.000 C 
ATOM     23  O   UNL     1       1.429   0.825   0.000  0.00  0.00    +0.000 OA
ENDBRANCH  14  20
BRANCH  17  24
ATOM     24  C   UNL     1      -0.714   3.712   0.000  0.00  0.00    +0.000 C 
ATOM     25  O   UNL     1      -1.429   3.300   0.000  0.00  0.00    +0.000 OA
ENDBRANCH  17  24
ENDBRANCH  11  13
ENDBRANCH   3  11
BRANCH   5  26
ATOM     26  O   UNL     1       0.714  -0.412   0.000  0.00  0.00    +0.000 OA
BRANCH  26  29
ATOM     27  O   UNL     1       0.000  -1.650   0.000  0.00  0.00    +0.000 OA
ATOM     28  C   UNL     1       0.000  -2.475   0.000  0.00  0.00    +0.000 C 
ATOM     29  C   UNL     1       0.714  -1.238   0.000  0.00  0.00    +0.000 C 
ATOM     30  C   UNL     1       1.429  -1.650   0.000  0.00  0.00    +0.000 C 
ATOM     31  C   UNL     1       1.429  -2.475   0.000  0.00  0.00    +0.000 C 
ATOM     32  C   UNL     1       0.714  -2.888   0.000  0.00  0.00    +0.000 C 
ATOM     33  O   UNL     1       2.143  -1.238   0.000  0.00  0.00    +0.000 OA
ATOM     34  O   UNL     1       2.143  -2.887   0.000  0.00  0.00    +0.000 OA
ATOM     35  O   UNL     1       0.714  -3.712   0.000  0.00  0.00    +0.000 OA
ATOM     36  C   UNL     1      -0.715  -2.888   0.000  0.00  0.00    +0.000 C 
ENDBRANCH  26  29
ENDBRANCH   5  26
TORSDOF 7
