REMARK  Name = 
REMARK  2 active torsions:
REMARK  status: ('A' for Active; 'I' for Inactive)
REMARK    1  A    between atoms: C_1  and  C_5
REMARK    2  A    between atoms: C_11  and  C_16
REMARK                            x       y       z     vdW  Elec       q    Type
REMARK                         _______ _______ _______ _____ _____    ______ ____
ROOT
ATOM      1  C   UNL     1       0.670   0.755   0.000  0.00  0.00    +0.000 C 
ATOM      2  C   UNL     1      -0.114   0.500   0.000  0.00  0.00    +0.000 C 
ATOM      3  C   UNL     1       1.155   0.088   0.000  0.00  0.00    +0.000 C 
ATOM      4  O   UNL     1       1.155   1.423   0.000  0.00  0.00    +0.000 OA
ATOM      5  C   UNL     1      -0.114  -0.325   0.000  0.00  0.00    +0.000 C 
ATOM      6  C   UNL     1      -0.829   0.913   0.000  0.00  0.00    +0.000 C 
ATOM      7  C   UNL     1      -0.169   1.307   0.000  0.00  0.00    +0.000 C 
ATOM      8  C   UNL     1       0.670  -0.580   0.000  0.00  0.00    +0.000 C 
ATOM      9  O   UNL     1       1.940   0.343   0.000  0.00  0.00    +0.000 OA
ATOM     10  C   UNL     1       1.940   1.168   0.000  0.00  0.00    +0.000 C 
ATOM     11  C   UNL     1      -0.829  -0.737   0.000  0.00  0.00    +0.000 C 
ATOM     12  C   UNL     1      -1.543   0.500   0.000  0.00  0.00    +0.000 C 
ATOM     13  C   UNL     1       2.111   1.975   0.000  0.00  0.00    +0.000 C 
ATOM     14  C   UNL     1      -1.543  -0.325   0.000  0.00  0.00    +0.000 C 
ATOM     15  C   UNL     1      -0.829  -1.562   0.000  0.00  0.00    +0.000 C 
ATOM     16  C   UNL     1      -2.258  -0.737   0.000  0.00  0.00    +0.000 C 
ATOM     17  C   UNL     1      -1.543  -1.975   0.000  0.00  0.00    +0.000 C 
ATOM     18  C   UNL     1      -2.258  -1.562   0.000  0.00  0.00    +0.000 C 
ATOM     19  C   UNL     1      -2.972  -0.325   0.000  0.00  0.00    +0.000 C 
ATOM     20  C   UNL     1      -2.258   0.088   0.000  0.00  0.00    +0.000 C 
ATOM     21  C   UNL     1      -2.972  -1.975   0.000  0.00  0.00    +0.000 C 
ATOM     22  C   UNL     1      -3.675  -0.732   0.000  0.00  0.00    +0.000 C 
ATOM     23  C   UNL     1      -3.675  -1.557   0.000  0.00  0.00    +0.000 C 
ATOM     24  O   UNL     1      -4.401  -1.975   0.000  0.00  0.00    +0.000 OA
ENDROOT
BRANCH  10  25
ATOM     25  C   UNL     1       2.760   1.081   0.000  0.00  0.00    +0.000 A 
ATOM     26  C   UNL     1       3.245   1.749   0.000  0.00  0.00    +0.000 A 
ATOM     27  C   UNL     1       3.096   0.328   0.000  0.00  0.00    +0.000 A 
ATOM     28  C   UNL     1       4.066   1.663   0.000  0.00  0.00    +0.000 A 
ATOM     29  C   UNL     1       3.916   0.241   0.000  0.00  0.00    +0.000 A 
ATOM     30  C   UNL     1       4.401   0.909   0.000  0.00  0.00    +0.000 A 
ENDBRANCH  10  25
BRANCH   1  31
ATOM     31  C   UNL     1       0.433   1.475   0.000  0.00  0.00    +0.000 C 
ATOM     32  C   UNL     1       0.956   1.972   0.000  0.00  0.00    +0.000 C 
ATOM     33  O   UNL     1      -0.144   1.772   0.000  0.00  0.00    +0.000 OA
ENDBRANCH   1  31
TORSDOF 2
