REMARK  Name = 
REMARK  8 active torsions:
REMARK  status: ('A' for Active; 'I' for Inactive)
REMARK    1  A    between atoms: C_1  and  C_2
REMARK    2  A    between atoms: C_1  and  O_8
REMARK    3  A    between atoms: C_2  and  C_3
REMARK    4  A    between atoms: C_3  and  C_4
REMARK    5  A    between atoms: O_8  and  C_9
REMARK    6  A    between atoms: C_9  and  C_10
REMARK    7  A    between atoms: C_9  and  C_14
REMARK    8  A    between atoms: C_10  and  N_12
REMARK                            x       y       z     vdW  Elec       q    Type
REMARK                         _______ _______ _______ _____ _____    ______ ____
ROOT
ATOM      1  C   UNL     1       1.070  -0.616   0.000  0.00  0.00    +0.000 C 
ENDROOT
BRANCH   1   2
ATOM      2  C   UNL     1       1.070   0.208   0.000  0.00  0.00    +0.000 A 
ATOM      3  C   UNL     1       0.360   0.620   0.000  0.00  0.00    +0.000 A 
ATOM      4  C   UNL     1       0.360   1.444   0.000  0.00  0.00    +0.000 A 
ATOM      5  C   UNL     1       1.070   1.856   0.000  0.00  0.00    +0.000 A 
ATOM      6  C   UNL     1       1.785   1.444   0.000  0.00  0.00    +0.000 A 
ATOM      7  C   UNL     1       1.785   0.620   0.000  0.00  0.00    +0.000 A 
ENDBRANCH   1   2
BRANCH   1   8
ATOM      8  C   UNL     1       1.785  -1.028   0.000  0.00  0.00    +0.000 C 
ATOM      9  C   UNL     1       1.785  -1.856   0.000  0.00  0.00    +0.000 C 
BRANCH   8  10
ATOM     10  N   UNL     1       2.500  -0.616   0.000  0.00  0.00    +0.000 NA
ATOM     11  C   UNL     1       3.215  -1.028   0.000  0.00  0.00    +0.000 C 
ENDBRANCH   8  10
ENDBRANCH   1   8
BRANCH   1  12
ATOM     12  O   UNL     1       0.360  -1.028   0.000  0.00  0.00    +0.000 OA
BRANCH  12  13
ATOM     13  C   UNL     1      -0.355  -0.616   0.000  0.00  0.00    +0.000 C 
ATOM     14  O   UNL     1      -0.355   0.208   0.000  0.00  0.00    +0.000 OA
BRANCH  13  15
ATOM     15  C   UNL     1      -1.070  -1.028   0.000  0.00  0.00    +0.000 C 
BRANCH  15  16
ATOM     16  C   UNL     1      -1.785  -0.616   0.000  0.00  0.00    +0.000 C 
BRANCH  16  17
ATOM     17  C   UNL     1      -2.500  -1.028   0.000  0.00  0.00    +0.000 C 
ATOM     18  C   UNL     1      -3.215  -0.616   0.000  0.00  0.00    +0.000 C 
ATOM     19  O   UNL     1      -2.500  -1.856   0.000  0.00  0.00    +0.000 OA
ENDBRANCH  16  17
ENDBRANCH  15  16
ENDBRANCH  13  15
ENDBRANCH  12  13
ENDBRANCH   1  12
TORSDOF 8
