REMARK  Name = 
REMARK  10 active torsions:
REMARK  status: ('A' for Active; 'I' for Inactive)
REMARK    1  A    between atoms: C_1  and  C_2
REMARK    2  A    between atoms: C_3  and  C_5
REMARK    3  A    between atoms: C_3  and  C_17
REMARK    4  A    between atoms: N_4  and  O_13
REMARK    5  A    between atoms: O_13  and  C_15
REMARK    6  A    between atoms: C_15  and  C_18
REMARK    7  A    between atoms: O_16  and  C_19
REMARK    8  A    between atoms: C_17  and  C_21
REMARK    9  A    between atoms: C_19  and  C_22
REMARK   10  A    between atoms: C_21  and  C_22
REMARK                            x       y       z     vdW  Elec       q    Type
REMARK                         _______ _______ _______ _____ _____    ______ ____
ROOT
ATOM      1  C   UNL     1      -0.357   0.564   0.000  0.00  0.00    +0.000 C 
ATOM      2  N   UNL     1      -0.362   1.389   0.000  0.00  0.00    +0.000 NA
ENDROOT
BRANCH   1   4
ATOM      3  C   UNL     1      -2.499  -0.685   0.000  0.00  0.00    +0.000 A 
ATOM      4  C   UNL     1      -1.071   0.146   0.000  0.00  0.00    +0.000 A 
ATOM      5  C   UNL     1      -2.499   0.146   0.000  0.00  0.00    +0.000 A 
ATOM      6  C   UNL     1      -1.785  -1.098   0.000  0.00  0.00    +0.000 A 
ATOM      7  C   UNL     1      -1.071  -0.685   0.000  0.00  0.00    +0.000 A 
ATOM      8  C   UNL     1      -1.785   0.559   0.000  0.00  0.00    +0.000 A 
BRANCH   3   9
ATOM      9  C   UNL     1      -3.214  -1.098   0.000  0.00  0.00    +0.000 C 
ATOM     10  F   UNL     1      -3.631  -1.807   0.000  0.00  0.00    +0.000 F 
ATOM     11  F   UNL     1      -3.933  -0.685   0.000  0.00  0.00    +0.000 F 
ATOM     12  F   UNL     1      -2.806  -1.807   0.000  0.00  0.00    +0.000 F 
ENDBRANCH   3   9
ENDBRANCH   1   4
BRANCH   2  13
ATOM     13  O   UNL     1       0.352   1.802   0.000  0.00  0.00    +0.000 OA
BRANCH  13  14
ATOM     14  C   UNL     1       1.071   1.394   0.000  0.00  0.00    +0.000 C 
BRANCH  14  16
ATOM     15  N   UNL     1       2.499   1.399   0.000  0.00  0.00    +0.000 NA
ATOM     16  C   UNL     1       1.780   1.807   0.000  0.00  0.00    +0.000 C 
ENDBRANCH  14  16
ENDBRANCH  13  14
ENDBRANCH   2  13
BRANCH   1  17
ATOM     17  C   UNL     1       0.357   0.151   0.000  0.00  0.00    +0.000 C 
BRANCH  17  18
ATOM     18  C   UNL     1       1.071   0.568   0.000  0.00  0.00    +0.000 C 
BRANCH  18  19
ATOM     19  C   UNL     1       1.790   0.155   0.000  0.00  0.00    +0.000 C 
BRANCH  19  20
ATOM     20  C   UNL     1       2.504   0.573   0.000  0.00  0.00    +0.000 C 
BRANCH  20  21
ATOM     21  O   UNL     1       3.219   0.160   0.000  0.00  0.00    +0.000 OA
ATOM     22  C   UNL     1       3.933   0.578   0.000  0.00  0.00    +0.000 C 
ENDBRANCH  20  21
ENDBRANCH  19  20
ENDBRANCH  18  19
ENDBRANCH  17  18
ENDBRANCH   1  17
TORSDOF 10
