REMARK  Name = 
REMARK  9 active torsions:
REMARK  status: ('A' for Active; 'I' for Inactive)
REMARK    1  A    between atoms: C_2  and  C_3
REMARK    2  A    between atoms: C_5  and  C_16
REMARK    3  A    between atoms: C_8  and  O_9
REMARK    4  A    between atoms: O_9  and  C_10
REMARK    5  A    between atoms: C_10  and  C_11
REMARK    6  A    between atoms: C_11  and  C_12
REMARK    7  A    between atoms: C_18  and  C_21
REMARK    8  A    between atoms: C_23  and  C_29
REMARK    9  A    between atoms: C_25  and  O_27
REMARK                            x       y       z     vdW  Elec       q    Type
REMARK                         _______ _______ _______ _____ _____    ______ ____
ROOT
ATOM      1  C   UNL     1       0.715  -1.238   0.000  0.00  0.00    +0.000 A 
ATOM      2  N   UNL     1       1.382  -1.722   0.000  0.00  0.00    +0.000 NA
ATOM      3  C   UNL     1       1.127  -2.507   0.000  0.00  0.00    +0.000 A 
ATOM      4  O   UNL     1       0.302  -2.507   0.000  0.00  0.00    +0.000 OA
ATOM      5  N   UNL     1       0.047  -1.722   0.000  0.00  0.00    +0.000 NA
ENDROOT
BRANCH   1   8
ATOM      6  C   UNL     1       1.429   0.825   0.000  0.00  0.00    +0.000 A 
ATOM      7  C   UNL     1       1.429   0.000   0.000  0.00  0.00    +0.000 A 
ATOM      8  C   UNL     1       0.715  -0.412   0.000  0.00  0.00    +0.000 A 
ATOM      9  C   UNL     1       0.000   0.000   0.000  0.00  0.00    +0.000 A 
ATOM     10  C   UNL     1       0.000   0.825   0.000  0.00  0.00    +0.000 A 
ATOM     11  C   UNL     1       0.715   1.238   0.000  0.00  0.00    +0.000 A 
ATOM     12  C   UNL     1      -0.715   1.238   0.000  0.00  0.00    +0.000 C 
BRANCH   6  14
ATOM     13  C   UNL     1       2.143   2.062   0.000  0.00  0.00    +0.000 C 
ATOM     14  C   UNL     1       2.143   1.238   0.000  0.00  0.00    +0.000 C 
ENDBRANCH   6  14
BRANCH  11  15
ATOM     15  O   UNL     1       0.715   2.062   0.000  0.00  0.00    +0.000 OA
BRANCH  15  16
ATOM     16  C   UNL     1       0.000   2.475   0.000  0.00  0.00    +0.000 C 
BRANCH  16  17
ATOM     17  C   UNL     1       0.000   3.300   0.000  0.00  0.00    +0.000 C 
ATOM     18  O   UNL     1       0.715   3.712   0.000  0.00  0.00    +0.000 OA
BRANCH  17  19
ATOM     19  C   UNL     1      -0.715   3.712   0.000  0.00  0.00    +0.000 C 
ATOM     20  O   UNL     1      -0.715   4.537   0.000  0.00  0.00    +0.000 OA
ENDBRANCH  17  19
ENDBRANCH  16  17
ENDBRANCH  15  16
ENDBRANCH  11  15
ENDBRANCH   1   8
BRANCH   3  21
ATOM     21  C   UNL     1       1.612  -3.175   0.000  0.00  0.00    +0.000 A 
ATOM     22  C   UNL     1       2.432  -3.088   0.000  0.00  0.00    +0.000 A 
ATOM     23  C   UNL     1       2.917  -3.756   0.000  0.00  0.00    +0.000 A 
ATOM     24  N   UNL     1       2.582  -4.509   0.000  0.00  0.00    +0.000 NA
ATOM     25  C   UNL     1       1.761  -4.596   0.000  0.00  0.00    +0.000 A 
ATOM     26  C   UNL     1       1.276  -3.928   0.000  0.00  0.00    +0.000 A 
BRANCH  23  27
ATOM     27  C   UNL     1       3.738  -3.670   0.000  0.00  0.00    +0.000 C 
ATOM     28  C   UNL     1       4.150  -2.955   0.000  0.00  0.00    +0.000 C 
ATOM     29  C   UNL     1       4.957  -3.127   0.000  0.00  0.00    +0.000 C 
ATOM     30  C   UNL     1       5.043  -3.947   0.000  0.00  0.00    +0.000 C 
ATOM     31  C   UNL     1       4.290  -4.282   0.000  0.00  0.00    +0.000 C 
ENDBRANCH  23  27
BRANCH  25  32
ATOM     32  O   UNL     1       1.426  -5.349   0.000  0.00  0.00    +0.000 OA
ATOM     33  C   UNL     1       0.605  -5.436   0.000  0.00  0.00    +0.000 C 
ENDBRANCH  25  32
ENDBRANCH   3  21
TORSDOF 9
