REMARK  Name = 
REMARK  8 active torsions:
REMARK  status: ('A' for Active; 'I' for Inactive)
REMARK    1  A    between atoms: P_1  and  O_7
REMARK    2  A    between atoms: P_1  and  C_30
REMARK    3  A    between atoms: P_2  and  O_10
REMARK    4  A    between atoms: P_2  and  C_30
REMARK    5  A    between atoms: P_3  and  O_10
REMARK    6  A    between atoms: O_7  and  C_26
REMARK    7  A    between atoms: N_17  and  C_25
REMARK    8  A    between atoms: C_24  and  C_26
REMARK                            x       y       z     vdW  Elec       q    Type
REMARK                         _______ _______ _______ _____ _____    ______ ____
ROOT
ATOM      1  O   UNL     1      -0.830   0.291   0.000  0.00  0.00    +0.000 OA
ATOM      2  O   UNL     1      -1.867   2.157   0.000  0.00  0.00    +0.000 OA
ATOM      3  O   UNL     1      -2.924   0.707   0.000  0.00  0.00    +0.000 OA
ATOM      4  C   UNL     1      -1.613   1.372   0.000  0.00  0.00    +0.000 C 
ATOM      5  C   UNL     1      -2.099   0.706   0.000  0.00  0.00    +0.000 C 
ATOM      6  C   UNL     1      -0.829   1.116   0.000  0.00  0.00    +0.000 C 
ATOM      7  C   UNL     1      -1.615   0.037   0.000  0.00  0.00    +0.000 C 
ENDROOT
BRANCH   7   9
ATOM      8  O   UNL     1      -3.367  -3.061   0.000  0.00  0.00    +0.000 OA
ATOM      9  N   UNL     1      -1.872  -0.747   0.000  0.00  0.00    +0.000 N 
ATOM     10  N   UNL     1      -3.367  -0.586   0.000  0.00  0.00    +0.000 NA
ATOM     11  N   UNL     1      -1.872  -2.075   0.000  0.00  0.00    +0.000 NA
ATOM     12  N   UNL     1      -4.081  -1.823   0.000  0.00  0.00    +0.000 NA
ATOM     13  N   UNL     1      -4.796  -0.586   0.000  0.00  0.00    +0.000 NA
ATOM     14  C   UNL     1      -2.652  -0.998   0.000  0.00  0.00    +0.000 A 
ATOM     15  C   UNL     1      -1.390  -1.411   0.000  0.00  0.00    +0.000 A 
ATOM     16  C   UNL     1      -2.652  -1.823   0.000  0.00  0.00    +0.000 A 
ATOM     17  C   UNL     1      -3.367  -2.236   0.000  0.00  0.00    +0.000 A 
ATOM     18  C   UNL     1      -4.081  -0.998   0.000  0.00  0.00    +0.000 A 
ENDBRANCH   7   9
BRANCH   6  19
ATOM     19  C   UNL     1      -0.161   1.600   0.000  0.00  0.00    +0.000 C 
BRANCH  19  20
ATOM     20  O   UNL     1       0.592   1.263   0.000  0.00  0.00    +0.000 OA
BRANCH  20  21
ATOM     21  P   UNL     1       1.261   1.746   0.000  0.00  0.00    +0.000 P 
ATOM     22  O   UNL     1       1.744   1.078   0.000  0.00  0.00    +0.000 OA
ATOM     23  O   UNL     1       0.777   2.415   0.000  0.00  0.00    +0.000 OA
BRANCH  21  24
ATOM     24  C   UNL     1       1.929   2.230   0.000  0.00  0.00    +0.000 C 
BRANCH  24  25
ATOM     25  P   UNL     1       2.682   1.893   0.000  0.00  0.00    +0.000 P 
ATOM     26  O   UNL     1       3.019   2.647   0.000  0.00  0.00    +0.000 OA
ATOM     27  O   UNL     1       2.345   1.140   0.000  0.00  0.00    +0.000 OA
BRANCH  25  28
ATOM     28  O   UNL     1       3.435   1.556   0.000  0.00  0.00    +0.000 OA
BRANCH  28  29
ATOM     29  P   UNL     1       4.104   2.040   0.000  0.00  0.00    +0.000 P 
ATOM     30  O   UNL     1       4.772   2.524   0.000  0.00  0.00    +0.000 OA
ATOM     31  O   UNL     1       4.587   1.372   0.000  0.00  0.00    +0.000 OA
ATOM     32  O   UNL     1       3.620   2.709   0.000  0.00  0.00    +0.000 OA
ENDBRANCH  28  29
ENDBRANCH  25  28
ENDBRANCH  24  25
ENDBRANCH  21  24
ENDBRANCH  20  21
ENDBRANCH  19  20
ENDBRANCH   6  19
TORSDOF 8
