REMARK  Name = 
REMARK  4 active torsions:
REMARK  status: ('A' for Active; 'I' for Inactive)
REMARK    1  A    between atoms: C_2  and  C_9
REMARK    2  A    between atoms: C_11  and  N_12
REMARK    3  A    between atoms: C_13  and  C_15
REMARK    4  A    between atoms: C_18  and  C_21
REMARK                            x       y       z     vdW  Elec       q    Type
REMARK                         _______ _______ _______ _____ _____    ______ ____
ROOT
ATOM      1  C   UNL     1       0.248  -3.443   0.000  0.00  0.00    +0.000 A 
ATOM      2  C   UNL     1      -0.034  -2.668   0.000  0.00  0.00    +0.000 A 
ATOM      3  C   UNL     1       0.496  -2.036   0.000  0.00  0.00    +0.000 A 
ATOM      4  C   UNL     1       1.309  -2.179   0.000  0.00  0.00    +0.000 A 
ATOM      5  C   UNL     1       1.591  -2.954   0.000  0.00  0.00    +0.000 A 
ATOM      6  C   UNL     1       1.061  -3.587   0.000  0.00  0.00    +0.000 A 
ATOM      7  F   UNL     1       1.343  -4.362   0.000  0.00  0.00    +0.000 F 
ENDROOT
BRANCH   1   9
ATOM      8  C   UNL     1      -0.812  -3.443   0.000  0.00  0.00    +0.000 C 
ATOM      9  C   UNL     1      -0.282  -4.075   0.000  0.00  0.00    +0.000 C 
ATOM     10  C   UNL     1       0.432  -4.488   0.000  0.00  0.00    +0.000 C 
ATOM     11  C   UNL     1       0.432  -5.313   0.000  0.00  0.00    +0.000 C 
ATOM     12  S   UNL     1      -0.282  -5.725   0.000  0.00  0.00    +0.000 S 
ATOM     13  C   UNL     1      -0.997  -5.313   0.000  0.00  0.00    +0.000 C 
ATOM     14  N   UNL     1      -1.711  -5.725   0.000  0.00  0.00    +0.000 NA
ATOM     15  N   UNL     1      -0.997  -4.488   0.000  0.00  0.00    +0.000 NA
ENDBRANCH   1   9
BRANCH   3  16
ATOM     16  N   UNL     1       0.214  -1.261   0.000  0.00  0.00    +0.000 NA
ATOM     17  C   UNL     1      -0.598  -1.117   0.000  0.00  0.00    +0.000 C 
ATOM     18  O   UNL     1      -1.129  -1.750   0.000  0.00  0.00    +0.000 OA
BRANCH  17  19
ATOM     19  C   UNL     1      -0.880  -0.342   0.000  0.00  0.00    +0.000 A 
ATOM     20  N   UNL     1      -1.693  -0.199   0.000  0.00  0.00    +0.000 NA
ATOM     21  C   UNL     1      -1.975   0.576   0.000  0.00  0.00    +0.000 A 
ATOM     22  C   UNL     1      -1.445   1.208   0.000  0.00  0.00    +0.000 A 
ATOM     23  C   UNL     1      -0.632   1.065   0.000  0.00  0.00    +0.000 A 
ATOM     24  C   UNL     1      -0.350   0.290   0.000  0.00  0.00    +0.000 A 
BRANCH  22  25
ATOM     25  C   UNL     1      -1.727   1.984   0.000  0.00  0.00    +0.000 C 
ATOM     26  N   UNL     1      -2.009   2.759   0.000  0.00  0.00    +0.000 NA
ENDBRANCH  22  25
ENDBRANCH  17  19
ENDBRANCH   3  16
TORSDOF 4
