REMARK  Name = 
REMARK  10 active torsions:
REMARK  status: ('A' for Active; 'I' for Inactive)
REMARK    1  A    between atoms: C_1  and  C_4
REMARK    2  A    between atoms: N_2  and  C_7
REMARK    3  A    between atoms: C_3  and  O_11
REMARK    4  A    between atoms: C_4  and  N_5
REMARK    5  A    between atoms: C_4  and  C_9
REMARK    6  A    between atoms: C_6  and  C_7
REMARK    7  A    between atoms: C_6  and  C_21
REMARK    8  A    between atoms: C_9  and  C_13
REMARK    9  A    between atoms: O_11  and  C_15
REMARK   10  A    between atoms: C_15  and  C_22
REMARK                            x       y       z     vdW  Elec       q    Type
REMARK                         _______ _______ _______ _____ _____    ______ ____
ROOT
ATOM      1  C   UNL     1       0.359   0.410   0.000  0.00  0.00    +0.000 C 
ENDROOT
BRANCH   1   2
ATOM      2  C   UNL     1       1.073   0.827   0.000  0.00  0.00    +0.000 C 
ATOM      3  N   UNL     1       1.790   0.413   0.000  0.00  0.00    +0.000 NA
ATOM      4  O   UNL     1       1.073   1.650   0.000  0.00  0.00    +0.000 OA
BRANCH   3   5
ATOM      5  C   UNL     1       2.504   0.827   0.000  0.00  0.00    +0.000 C 
ATOM      6  C   UNL     1       2.501   1.653   0.000  0.00  0.00    +0.000 C 
BRANCH   5   7
ATOM      7  C   UNL     1       3.219   0.413   0.000  0.00  0.00    +0.000 C 
ATOM      8  O   UNL     1       3.219  -0.410   0.000  0.00  0.00    +0.000 OA
BRANCH   7  10
ATOM      9  F   UNL     1       4.647   0.420   0.000  0.00  0.00    +0.000 F 
ATOM     10  C   UNL     1       3.933   0.830   0.000  0.00  0.00    +0.000 C 
ENDBRANCH   7  10
ENDBRANCH   5   7
ENDBRANCH   3   5
ENDBRANCH   1   2
BRANCH   1  12
ATOM     11  C   UNL     1      -1.070   0.410   0.000  0.00  0.00    +0.000 C 
ATOM     12  N   UNL     1      -0.355   0.820   0.000  0.00  0.00    +0.000 NA
ATOM     13  O   UNL     1      -1.070  -0.413   0.000  0.00  0.00    +0.000 OA
BRANCH  11  14
ATOM     14  O   UNL     1      -1.784   0.820   0.000  0.00  0.00    +0.000 OA
BRANCH  14  15
ATOM     15  C   UNL     1      -2.498   0.410   0.000  0.00  0.00    +0.000 C 
BRANCH  15  16
ATOM     16  C   UNL     1      -3.219   0.820   0.000  0.00  0.00    +0.000 A 
ATOM     17  C   UNL     1      -3.933   0.410   0.000  0.00  0.00    +0.000 A 
ATOM     18  C   UNL     1      -3.219   1.650   0.000  0.00  0.00    +0.000 A 
ATOM     19  C   UNL     1      -3.933   2.060   0.000  0.00  0.00    +0.000 A 
ATOM     20  C   UNL     1      -4.647   0.820   0.000  0.00  0.00    +0.000 A 
ATOM     21  C   UNL     1      -4.647   1.650   0.000  0.00  0.00    +0.000 A 
ENDBRANCH  15  16
ENDBRANCH  14  15
ENDBRANCH  11  14
ENDBRANCH   1  12
BRANCH   1  22
ATOM     22  C   UNL     1       0.362  -0.413   0.000  0.00  0.00    +0.000 C 
BRANCH  22  23
ATOM     23  C   UNL     1       1.076  -0.827   0.000  0.00  0.00    +0.000 A 
ATOM     24  C   UNL     1       2.504  -1.650   0.000  0.00  0.00    +0.000 A 
ATOM     25  C   UNL     1       1.790  -0.413   0.000  0.00  0.00    +0.000 A 
ATOM     26  C   UNL     1       1.076  -1.653   0.000  0.00  0.00    +0.000 A 
ATOM     27  C   UNL     1       2.504  -0.820   0.000  0.00  0.00    +0.000 A 
ATOM     28  C   UNL     1       1.790  -2.060   0.000  0.00  0.00    +0.000 A 
ATOM     29  O   UNL     1       3.219  -2.060   0.000  0.00  0.00    +0.000 OA
ENDBRANCH  22  23
ENDBRANCH   1  22
TORSDOF 10
