REMARK  Name = 
REMARK  5 active torsions:
REMARK  status: ('A' for Active; 'I' for Inactive)
REMARK    1  A    between atoms: C_2  and  N_3
REMARK    2  A    between atoms: C_2  and  C_12
REMARK    3  A    between atoms: N_3  and  C_4
REMARK    4  A    between atoms: C_14  and  C_29
REMARK    5  A    between atoms: C_19  and  N_23
REMARK                            x       y       z     vdW  Elec       q    Type
REMARK                         _______ _______ _______ _____ _____    ______ ____
ROOT
ATOM      1  C   UNL     1       0.000   0.000   0.000  0.00  0.00    +0.000 A 
ATOM      2  C   UNL     1      -0.715  -0.412   0.000  0.00  0.00    +0.000 A 
ATOM      3  C   UNL     1      -0.715  -1.238   0.000  0.00  0.00    +0.000 A 
ATOM      4  C   UNL     1       0.000  -1.650   0.000  0.00  0.00    +0.000 A 
ATOM      5  C   UNL     1       0.715  -1.238   0.000  0.00  0.00    +0.000 A 
ATOM      6  C   UNL     1       0.715  -0.412   0.000  0.00  0.00    +0.000 A 
ATOM      7  O   UNL     1       1.429   0.000   0.000  0.00  0.00    +0.000 OA
ATOM      8  C   UNL     1       2.143  -0.412   0.000  0.00  0.00    +0.000 A 
ATOM      9  C   UNL     1       2.143  -1.238   0.000  0.00  0.00    +0.000 A 
ATOM     10  C   UNL     1       1.429  -1.650   0.000  0.00  0.00    +0.000 A 
ATOM     11  O   UNL     1       1.429  -2.475   0.000  0.00  0.00    +0.000 OA
ENDROOT
BRANCH   8  12
ATOM     12  N   UNL     1       2.858   0.000   0.000  0.00  0.00    +0.000 N 
ATOM     13  C   UNL     1       2.858   0.825   0.000  0.00  0.00    +0.000 C 
ATOM     14  C   UNL     1       3.572   1.238   0.000  0.00  0.00    +0.000 C 
ATOM     15  O   UNL     1       4.287   0.825   0.000  0.00  0.00    +0.000 OA
ATOM     16  C   UNL     1       4.287   0.000   0.000  0.00  0.00    +0.000 C 
ATOM     17  C   UNL     1       3.572  -0.412   0.000  0.00  0.00    +0.000 C 
ENDBRANCH   8  12
BRANCH   3  18
ATOM     18  C   UNL     1      -1.429  -1.650   0.000  0.00  0.00    +0.000 C 
ATOM     19  O   UNL     1      -2.143  -1.238   0.000  0.00  0.00    +0.000 OA
ATOM     20  N   UNL     1      -1.429  -2.475   0.000  0.00  0.00    +0.000 N 
ATOM     21  C   UNL     1      -0.715  -2.888   0.000  0.00  0.00    +0.000 C 
ATOM     22  C   UNL     1      -2.143  -2.888   0.000  0.00  0.00    +0.000 C 
ENDBRANCH   3  18
BRANCH   1  24
ATOM     23  C   UNL     1       0.715   1.238   0.000  0.00  0.00    +0.000 C 
ATOM     24  C   UNL     1       0.000   0.825   0.000  0.00  0.00    +0.000 C 
BRANCH  24  25
ATOM     25  N   UNL     1      -0.715   1.238   0.000  0.00  0.00    +0.000 NA
BRANCH  25  26
ATOM     26  C   UNL     1      -0.715   2.062   0.000  0.00  0.00    +0.000 A 
ATOM     27  C   UNL     1      -1.429   2.475   0.000  0.00  0.00    +0.000 A 
ATOM     28  C   UNL     1      -1.429   3.300   0.000  0.00  0.00    +0.000 A 
ATOM     29  F   UNL     1      -2.143   3.712   0.000  0.00  0.00    +0.000 F 
ATOM     30  C   UNL     1      -0.715   3.712   0.000  0.00  0.00    +0.000 A 
ATOM     31  C   UNL     1       0.000   3.300   0.000  0.00  0.00    +0.000 A 
ATOM     32  F   UNL     1       0.715   3.712   0.000  0.00  0.00    +0.000 F 
ATOM     33  C   UNL     1       0.000   2.475   0.000  0.00  0.00    +0.000 A 
ENDBRANCH  25  26
ENDBRANCH  24  25
ENDBRANCH   1  24
TORSDOF 5
