REMARK  Name = 
REMARK  5 active torsions:
REMARK  status: ('A' for Active; 'I' for Inactive)
REMARK    1  A    between atoms: N_4  and  C_5
REMARK    2  A    between atoms: C_8  and  C_9
REMARK    3  A    between atoms: C_14  and  C_15
REMARK    4  A    between atoms: N_17  and  C_18
REMARK    5  A    between atoms: C_18  and  C_19
REMARK                            x       y       z     vdW  Elec       q    Type
REMARK                         _______ _______ _______ _____ _____    ______ ____
ROOT
ATOM      1  C   UNL     1      -1.072  -0.206   0.000  0.00  0.00    +0.000 A 
ATOM      2  C   UNL     1      -1.786   0.206   0.000  0.00  0.00    +0.000 A 
ATOM      3  I   UNL     1      -2.501  -0.206   0.000  0.00  0.00    +0.000 I 
ATOM      4  C   UNL     1      -1.786   1.031   0.000  0.00  0.00    +0.000 A 
ATOM      5  C   UNL     1      -1.072   1.444   0.000  0.00  0.00    +0.000 A 
ATOM      6  I   UNL     1      -1.072   2.269   0.000  0.00  0.00    +0.000 I 
ATOM      7  C   UNL     1      -0.357   1.031   0.000  0.00  0.00    +0.000 A 
ATOM      8  C   UNL     1      -0.357   0.206   0.000  0.00  0.00    +0.000 A 
ATOM      9  I   UNL     1       0.357  -0.206   0.000  0.00  0.00    +0.000 I 
ENDROOT
BRANCH   1  13
ATOM     10  C   UNL     1      -1.786  -2.269   0.000  0.00  0.00    +0.000 C 
ATOM     11  C   UNL     1      -1.786  -1.444   0.000  0.00  0.00    +0.000 C 
ATOM     12  O   UNL     1      -2.501  -1.031   0.000  0.00  0.00    +0.000 OA
ATOM     13  N   UNL     1      -1.072  -1.031   0.000  0.00  0.00    +0.000 NA
ENDBRANCH   1  13
BRANCH   4  14
ATOM     14  C   UNL     1      -2.501   1.444   0.000  0.00  0.00    +0.000 C 
ATOM     15  O   UNL     1      -2.501   2.269   0.000  0.00  0.00    +0.000 OA
ATOM     16  O   UNL     1      -3.215   1.031   0.000  0.00  0.00    +0.000 OA
ENDBRANCH   4  14
BRANCH   7  17
ATOM     17  C   UNL     1       0.357   1.444   0.000  0.00  0.00    +0.000 C 
ATOM     18  O   UNL     1       0.357   2.269   0.000  0.00  0.00    +0.000 OA
ATOM     19  N   UNL     1       1.072   1.031   0.000  0.00  0.00    +0.000 NA
BRANCH  19  20
ATOM     20  C   UNL     1       1.786   1.444   0.000  0.00  0.00    +0.000 C 
BRANCH  20  21
ATOM     21  C   UNL     1       2.501   1.031   0.000  0.00  0.00    +0.000 C 
ATOM     22  O   UNL     1       3.215   1.444   0.000  0.00  0.00    +0.000 OA
ENDBRANCH  20  21
ENDBRANCH  19  20
ENDBRANCH   7  17
TORSDOF 5
