REMARK  Name = 
REMARK  1 active torsions:
REMARK  status: ('A' for Active; 'I' for Inactive)
REMARK    1  A    between atoms: C_5  and  N_9
REMARK                            x       y       z     vdW  Elec       q    Type
REMARK                         _______ _______ _______ _____ _____    ______ ____
ROOT
ATOM      1  C   UNL     1      -0.821   6.003   0.000  0.00  0.00    +0.000 C 
ATOM      2  C   UNL     1      -0.107   5.590   0.000  0.00  0.00    +0.000 A 
ATOM      3  C   UNL     1       0.608   6.003   0.000  0.00  0.00    +0.000 A 
ATOM      4  C   UNL     1       1.322   5.590   0.000  0.00  0.00    +0.000 A 
ATOM      5  C   UNL     1       1.322   4.765   0.000  0.00  0.00    +0.000 A 
ATOM      6  C   UNL     1       0.608   4.353   0.000  0.00  0.00    +0.000 A 
ATOM      7  C   UNL     1      -0.107   4.765   0.000  0.00  0.00    +0.000 A 
ATOM      8 CL   UNL     1       0.608   3.528   0.000  0.00  0.00    +0.000 Cl
ENDROOT
BRANCH   5   9
ATOM      9  N   UNL     1       2.037   4.353   0.000  0.00  0.00    +0.000 NA
ATOM     10  C   UNL     1       2.037   3.528   0.000  0.00  0.00    +0.000 C 
ATOM     11  N   UNL     1       2.704   3.043   0.000  0.00  0.00    +0.000 NA
ATOM     12  C   UNL     1       2.449   2.258   0.000  0.00  0.00    +0.000 C 
ATOM     13  C   UNL     1       1.624   2.258   0.000  0.00  0.00    +0.000 C 
ATOM     14  N   UNL     1       1.369   3.043   0.000  0.00  0.00    +0.000 NA
ENDBRANCH   5   9
TORSDOF 1
