REMARK  Name = 
REMARK  14 active torsions:
REMARK  status: ('A' for Active; 'I' for Inactive)
REMARK    1  A    between atoms: C_2  and  C_4
REMARK    2  A    between atoms: C_4  and  C_5
REMARK    3  A    between atoms: C_4  and  C_22
REMARK    4  A    between atoms: C_4  and  C_24
REMARK    5  A    between atoms: C_5  and  C_6
REMARK    6  A    between atoms: C_6  and  C_7
REMARK    7  A    between atoms: C_7  and  N_8
REMARK    8  A    between atoms: N_8  and  C_10
REMARK    9  A    between atoms: C_10  and  C_11
REMARK   10  A    between atoms: C_11  and  C_12
REMARK   11  A    between atoms: C_16  and  C_18
REMARK   12  A    between atoms: C_18  and  O_20
REMARK   13  A    between atoms: C_27  and  O_32
REMARK   14  A    between atoms: C_28  and  O_30
REMARK                            x       y       z     vdW  Elec       q    Type
REMARK                         _______ _______ _______ _____ _____    ______ ____
ROOT
ATOM      1  C   UNL     1       0.000  -4.125   0.000  0.00  0.00    +0.000 C 
ENDROOT
BRANCH   1   2
ATOM      2  C   UNL     1       0.715  -3.712   0.000  0.00  0.00    +0.000 C 
BRANCH   2   3
ATOM      3  C   UNL     1       1.429  -4.125   0.000  0.00  0.00    +0.000 C 
BRANCH   3   4
ATOM      4  N   UNL     1       2.143  -3.712   0.000  0.00  0.00    +0.000 NA
ATOM      5  C   UNL     1       2.143  -2.888   0.000  0.00  0.00    +0.000 C 
BRANCH   4   6
ATOM      6  C   UNL     1       2.858  -4.125   0.000  0.00  0.00    +0.000 C 
BRANCH   6   7
ATOM      7  C   UNL     1       3.572  -3.712   0.000  0.00  0.00    +0.000 C 
BRANCH   7   8
ATOM      8  C   UNL     1       4.287  -4.125   0.000  0.00  0.00    +0.000 A 
ATOM      9  C   UNL     1       5.001  -3.712   0.000  0.00  0.00    +0.000 A 
ATOM     10  C   UNL     1       5.716  -4.125   0.000  0.00  0.00    +0.000 A 
ATOM     11  C   UNL     1       5.716  -4.950   0.000  0.00  0.00    +0.000 A 
ATOM     12  C   UNL     1       5.001  -5.362   0.000  0.00  0.00    +0.000 A 
ATOM     13  C   UNL     1       4.287  -4.950   0.000  0.00  0.00    +0.000 A 
BRANCH  12  14
ATOM     14  C   UNL     1       5.001  -6.188   0.000  0.00  0.00    +0.000 C 
ATOM     15  O   UNL     1       4.287  -6.600   0.000  0.00  0.00    +0.000 OA
BRANCH  14  16
ATOM     16  O   UNL     1       5.716  -6.600   0.000  0.00  0.00    +0.000 OA
ATOM     17  C   UNL     1       5.716  -7.425   0.000  0.00  0.00    +0.000 C 
ENDBRANCH  14  16
ENDBRANCH  12  14
ENDBRANCH   7   8
ENDBRANCH   6   7
ENDBRANCH   4   6
ENDBRANCH   3   4
ENDBRANCH   2   3
ENDBRANCH   1   2
BRANCH   1  18
ATOM     18  C   UNL     1      -0.715  -3.712   0.000  0.00  0.00    +0.000 C 
BRANCH  18  19
ATOM     19  C   UNL     1      -1.429  -3.300   0.000  0.00  0.00    +0.000 A 
ATOM     20  C   UNL     1      -2.143  -3.712   0.000  0.00  0.00    +0.000 A 
ATOM     21  C   UNL     1      -2.858  -3.300   0.000  0.00  0.00    +0.000 A 
ATOM     22  C   UNL     1      -2.858  -2.475   0.000  0.00  0.00    +0.000 A 
ATOM     23  C   UNL     1      -2.143  -2.062   0.000  0.00  0.00    +0.000 A 
ATOM     24  C   UNL     1      -1.429  -2.475   0.000  0.00  0.00    +0.000 A 
BRANCH  22  25
ATOM     25  O   UNL     1      -3.572  -2.062   0.000  0.00  0.00    +0.000 OA
ATOM     26  C   UNL     1      -4.287  -2.475   0.000  0.00  0.00    +0.000 C 
ENDBRANCH  22  25
BRANCH  23  27
ATOM     27  O   UNL     1      -2.143  -1.238   0.000  0.00  0.00    +0.000 OA
ATOM     28  C   UNL     1      -1.429  -0.825   0.000  0.00  0.00    +0.000 C 
ENDBRANCH  23  27
ENDBRANCH  18  19
BRANCH  18  30
ATOM     29  C   UNL     1      -0.715  -2.284   0.000  0.00  0.00    +0.000 C 
ATOM     30  C   UNL     1      -0.302  -2.998   0.000  0.00  0.00    +0.000 C 
ATOM     31  C   UNL     1       0.523  -2.998   0.000  0.00  0.00    +0.000 C 
ENDBRANCH  18  30
BRANCH  18  32
ATOM     32  C   UNL     1      -1.127  -4.427   0.000  0.00  0.00    +0.000 C 
ATOM     33  N   UNL     1      -1.540  -5.141   0.000  0.00  0.00    +0.000 NA
ENDBRANCH  18  32
ENDBRANCH   1  18
TORSDOF 14
