REMARK  Name = 
REMARK  8 active torsions:
REMARK  status: ('A' for Active; 'I' for Inactive)
REMARK    1  A    between atoms: C_2  and  N_4
REMARK    2  A    between atoms: N_4  and  C_5
REMARK    3  A    between atoms: C_11  and  C_13
REMARK    4  A    between atoms: C_13  and  N_14
REMARK    5  A    between atoms: N_21  and  C_40
REMARK    6  A    between atoms: C_24  and  N_27
REMARK    7  A    between atoms: N_30  and  C_31
REMARK    8  A    between atoms: C_35  and  C_37
REMARK                            x       y       z     vdW  Elec       q    Type
REMARK                         _______ _______ _______ _____ _____    ______ ____
ROOT
ATOM      1  N   UNL     1       0.645  -0.514   0.000  0.00  0.00    +0.000 N 
ATOM      2  C   UNL     1       0.000   0.000   0.000  0.00  0.00    +0.000 A 
ATOM      3  C   UNL     1      -0.715  -0.412   0.000  0.00  0.00    +0.000 A 
ATOM      4  C   UNL     1      -1.429   0.000   0.000  0.00  0.00    +0.000 A 
ATOM      5  C   UNL     1      -1.429   0.825   0.000  0.00  0.00    +0.000 A 
ATOM      6  C   UNL     1      -0.715   1.238   0.000  0.00  0.00    +0.000 A 
ATOM      7  C   UNL     1       0.000   0.825   0.000  0.00  0.00    +0.000 A 
ATOM      8  N   UNL     1       0.645   1.339   0.000  0.00  0.00    +0.000 N 
ATOM      9  C   UNL     1       1.449   1.156   0.000  0.00  0.00    +0.000 C 
ATOM     10  O   UNL     1       1.964   1.801   0.000  0.00  0.00    +0.000 OA
ATOM     11  C   UNL     1       1.807   0.412   0.000  0.00  0.00    +0.000 C 
ATOM     12  C   UNL     1       1.449  -0.331   0.000  0.00  0.00    +0.000 C 
ATOM     13  O   UNL     1       1.964  -0.976   0.000  0.00  0.00    +0.000 OA
ENDROOT
BRANCH   8  14
ATOM     14  C   UNL     1       0.461   2.144   0.000  0.00  0.00    +0.000 A 
ATOM     15  C   UNL     1      -0.327   2.387   0.000  0.00  0.00    +0.000 A 
ATOM     16  C   UNL     1      -0.510   3.191   0.000  0.00  0.00    +0.000 A 
ATOM     17  C   UNL     1       0.094   3.752   0.000  0.00  0.00    +0.000 A 
ATOM     18  C   UNL     1       0.883   3.509   0.000  0.00  0.00    +0.000 A 
ATOM     19  C   UNL     1       1.066   2.705   0.000  0.00  0.00    +0.000 A 
ENDBRANCH   8  14
BRANCH  11  20
ATOM     20  N   UNL     1       2.632   0.412   0.000  0.00  0.00    +0.000 NA
ATOM     21  C   UNL     1       3.045   1.127   0.000  0.00  0.00    +0.000 C 
ATOM     22  O   UNL     1       2.632   1.841   0.000  0.00  0.00    +0.000 OA
ATOM     23  N   UNL     1       3.870   1.127   0.000  0.00  0.00    +0.000 NA
BRANCH  23  24
ATOM     24  C   UNL     1       4.282   1.841   0.000  0.00  0.00    +0.000 A 
ATOM     25  C   UNL     1       3.870   2.556   0.000  0.00  0.00    +0.000 A 
ATOM     26  C   UNL     1       4.282   3.270   0.000  0.00  0.00    +0.000 A 
ATOM     27  C   UNL     1       5.107   3.270   0.000  0.00  0.00    +0.000 A 
ATOM     28  C   UNL     1       5.520   2.556   0.000  0.00  0.00    +0.000 A 
ATOM     29  C   UNL     1       5.107   1.841   0.000  0.00  0.00    +0.000 A 
BRANCH  28  30
ATOM     30  C   UNL     1       6.345   2.556   0.000  0.00  0.00    +0.000 C 
ATOM     31  O   UNL     1       6.757   3.270   0.000  0.00  0.00    +0.000 OA
ATOM     32  O   UNL     1       6.757   1.841   0.000  0.00  0.00    +0.000 OA
ENDBRANCH  28  30
ENDBRANCH  23  24
ENDBRANCH  11  20
BRANCH   1  33
ATOM     33  C   UNL     1       0.461  -1.319   0.000  0.00  0.00    +0.000 C 
BRANCH  33  35
ATOM     34  N   UNL     1      -0.510  -2.366   0.000  0.00  0.00    +0.000 N 
ATOM     35  C   UNL     1      -0.327  -1.562   0.000  0.00  0.00    +0.000 C 
ATOM     36  O   UNL     1      -0.932  -1.001   0.000  0.00  0.00    +0.000 OA
BRANCH  34  37
ATOM     37  C   UNL     1      -1.299  -2.609   0.000  0.00  0.00    +0.000 A 
ATOM     38  C   UNL     1      -1.482  -3.414   0.000  0.00  0.00    +0.000 A 
ATOM     39  C   UNL     1      -2.271  -3.657   0.000  0.00  0.00    +0.000 A 
ATOM     40  C   UNL     1      -2.876  -3.096   0.000  0.00  0.00    +0.000 A 
ATOM     41  C   UNL     1      -2.692  -2.291   0.000  0.00  0.00    +0.000 A 
ATOM     42  C   UNL     1      -1.904  -2.048   0.000  0.00  0.00    +0.000 A 
ENDBRANCH  34  37
BRANCH  34  44
ATOM     43  C   UNL     1       0.883  -2.684   0.000  0.00  0.00    +0.000 C 
ATOM     44  C   UNL     1       0.094  -2.927   0.000  0.00  0.00    +0.000 C 
ATOM     45  C   UNL     1      -0.089  -3.732   0.000  0.00  0.00    +0.000 C 
ENDBRANCH  34  44
ENDBRANCH  33  35
ENDBRANCH   1  33
TORSDOF 8
