REMARK  Name = 
REMARK  6 active torsions:
REMARK  status: ('A' for Active; 'I' for Inactive)
REMARK    1  A    between atoms: C_1  and  C_22
REMARK    2  A    between atoms: P_5  and  C_20
REMARK    3  A    between atoms: N_15  and  C_17
REMARK    4  A    between atoms: C_17  and  C_18
REMARK    5  A    between atoms: C_18  and  O_19
REMARK    6  A    between atoms: O_19  and  C_20
REMARK                            x       y       z     vdW  Elec       q    Type
REMARK                         _______ _______ _______ _____ _____    ______ ____
ROOT
ATOM      1  C   UNL     1      -1.609  -1.664   0.000  0.00  0.00    +0.000 C 
ATOM      2  C   UNL     1      -1.609  -2.490   0.000  0.00  0.00    +0.000 C 
ATOM      3  C   UNL     1      -0.896  -2.898   0.000  0.00  0.00    +0.000 C 
ATOM      4  O   UNL     1      -0.184  -2.490   0.000  0.00  0.00    +0.000 OA
ATOM      5  P   UNL     1      -0.184  -1.664   0.000  0.00  0.00    +0.000 P 
ATOM      6  O   UNL     1      -0.896  -1.247   0.000  0.00  0.00    +0.000 OA
ATOM      7  O   UNL     1       0.492  -2.054   0.000  0.00  0.00    +0.000 OA
ENDROOT
BRANCH   1   8
ATOM      8  C   UNL     1      -2.325  -1.253   0.000  0.00  0.00    +0.000 A 
ATOM      9  C   UNL     1      -2.329  -0.428   0.000  0.00  0.00    +0.000 A 
ATOM     10  C   UNL     1      -3.045  -0.018   0.000  0.00  0.00    +0.000 A 
ATOM     11  C   UNL     1      -3.753  -0.433   0.000  0.00  0.00    +0.000 A 
ATOM     12  C   UNL     1      -3.750  -1.263   0.000  0.00  0.00    +0.000 A 
ATOM     13  C   UNL     1      -3.038  -1.670   0.000  0.00  0.00    +0.000 A 
ATOM     14 CL   UNL     1      -4.463  -1.678   0.000  0.00  0.00    +0.000 Cl
ENDBRANCH   1   8
BRANCH   5  15
ATOM     15  C   UNL     1       0.180  -0.934   0.000  0.00  0.00    +0.000 C 
BRANCH  15  16
ATOM     16  O   UNL     1       0.936  -0.906   0.000  0.00  0.00    +0.000 OA
BRANCH  16  17
ATOM     17  C   UNL     1       1.297  -0.176   0.000  0.00  0.00    +0.000 C 
BRANCH  17  18
ATOM     18  C   UNL     1       2.061  -0.149   0.000  0.00  0.00    +0.000 C 
BRANCH  18  27
ATOM     19  N   UNL     1       3.800   0.422   0.000  0.00  0.00    +0.000 NA
ATOM     20  C   UNL     1       4.463   0.836   0.000  0.00  0.00    +0.000 A 
ATOM     21  N   UNL     1       4.460   1.663   0.000  0.00  0.00    +0.000 NA
ATOM     22  C   UNL     1       3.799   2.073   0.000  0.00  0.00    +0.000 A 
ATOM     23  C   UNL     1       3.143   0.836   0.000  0.00  0.00    +0.000 A 
ATOM     24  C   UNL     1       3.145   1.661   0.000  0.00  0.00    +0.000 A 
ATOM     25  N   UNL     1       2.418   1.915   0.000  0.00  0.00    +0.000 NA
ATOM     26  C   UNL     1       1.976   1.252   0.000  0.00  0.00    +0.000 A 
ATOM     27  N   UNL     1       2.416   0.581   0.000  0.00  0.00    +0.000 N 
ATOM     28  N   UNL     1       3.797   2.898   0.000  0.00  0.00    +0.000 NA
ENDBRANCH  18  27
ENDBRANCH  17  18
ENDBRANCH  16  17
ENDBRANCH  15  16
ENDBRANCH   5  15
TORSDOF 6
