REMARK  Name = 
REMARK  1 active torsions:
REMARK  status: ('A' for Active; 'I' for Inactive)
REMARK    1  A    between atoms: C_2  and  C_3
REMARK                            x       y       z     vdW  Elec       q    Type
REMARK                         _______ _______ _______ _____ _____    ______ ____
ROOT
ATOM      1  C   UNL     1       9.523  -2.393   0.000  0.00  0.00    +0.000 C 
ATOM      2  O   UNL     1       8.754  -2.096   0.000  0.00  0.00    +0.000 OA
ATOM      3  C   UNL     1      10.346  -2.326   0.000  0.00  0.00    +0.000 C 
ATOM      4  C   UNL     1      10.911  -2.927   0.000  0.00  0.00    +0.000 C 
ATOM      5  O   UNL     1      11.698  -2.678   0.000  0.00  0.00    +0.000 OA
ATOM      6  O   UNL     1      10.793  -3.743   0.000  0.00  0.00    +0.000 OA
ATOM      7  C   UNL     1      10.082  -4.160   0.000  0.00  0.00    +0.000 C 
ATOM      8  C   UNL     1       9.312  -3.864   0.000  0.00  0.00    +0.000 A 
ATOM      9  C   UNL     1       9.063  -3.078   0.000  0.00  0.00    +0.000 A 
ATOM     10  C   UNL     1       8.258  -2.899   0.000  0.00  0.00    +0.000 A 
ATOM     11  C   UNL     1       7.701  -3.508   0.000  0.00  0.00    +0.000 A 
ATOM     12  N   UNL     1       7.949  -4.295   0.000  0.00  0.00    +0.000 N 
ATOM     13  C   UNL     1       7.278  -4.774   0.000  0.00  0.00    +0.000 C 
ATOM     14  C   UNL     1       6.614  -4.283   0.000  0.00  0.00    +0.000 A 
ATOM     15  C   UNL     1       5.806  -4.448   0.000  0.00  0.00    +0.000 A 
ATOM     16  C   UNL     1       5.259  -3.831   0.000  0.00  0.00    +0.000 A 
ATOM     17  C   UNL     1       4.451  -3.995   0.000  0.00  0.00    +0.000 A 
ATOM     18  C   UNL     1       3.904  -3.378   0.000  0.00  0.00    +0.000 A 
ATOM     19  F   UNL     1       3.095  -3.543   0.000  0.00  0.00    +0.000 F 
ATOM     20  C   UNL     1       4.165  -2.595   0.000  0.00  0.00    +0.000 A 
ATOM     21  F   UNL     1       3.618  -1.978   0.000  0.00  0.00    +0.000 F 
ATOM     22  C   UNL     1       4.973  -2.430   0.000  0.00  0.00    +0.000 A 
ATOM     23  C   UNL     1       5.520  -3.048   0.000  0.00  0.00    +0.000 A 
ATOM     24  N   UNL     1       6.329  -2.883   0.000  0.00  0.00    +0.000 NA
ATOM     25  C   UNL     1       6.876  -3.501   0.000  0.00  0.00    +0.000 A 
ATOM     26  C   UNL     1       8.755  -4.473   0.000  0.00  0.00    +0.000 A 
ATOM     27  O   UNL     1       9.003  -5.259   0.000  0.00  0.00    +0.000 OA
ENDROOT
BRANCH   1  29
ATOM     28  C   UNL     1      10.407  -1.270   0.000  0.00  0.00    +0.000 C 
ATOM     29  C   UNL     1       9.641  -1.576   0.000  0.00  0.00    +0.000 C 
ENDBRANCH   1  29
TORSDOF 1
