REMARK  Name = 
REMARK  3 active torsions:
REMARK  status: ('A' for Active; 'I' for Inactive)
REMARK    1  A    between atoms: C_8  and  C_12
REMARK    2  A    between atoms: N_14  and  CA_15
REMARK    3  A    between atoms: CA_15  and  C_16
REMARK                            x       y       z     vdW  Elec       q    Type
REMARK                         _______ _______ _______ _____ _____    ______ ____
ROOT
ATOM      1  C   UNK A   1      -2.858   2.475   0.000  0.00  0.00    +0.000 A 
ATOM      2  C   UNK A   1      -2.858   1.650   0.000  0.00  0.00    +0.000 A 
ATOM      3  C   UNK A   1      -2.143   1.238   0.000  0.00  0.00    +0.000 A 
ATOM      4  C   UNK A   1      -1.429   1.650   0.000  0.00  0.00    +0.000 A 
ATOM      5  C   UNK A   1      -1.429   2.475   0.000  0.00  0.00    +0.000 A 
ATOM      6  C   UNK A   1      -2.143   2.888   0.000  0.00  0.00    +0.000 A 
ATOM      7  C   UNK A   1      -0.715   2.888   0.000  0.00  0.00    +0.000 A 
ATOM      8  C   UNK A   1       0.000   2.475   0.000  0.00  0.00    +0.000 A 
ATOM      9  N   UNK A   1       0.000   1.650   0.000  0.00  0.00    +0.000 NA
ATOM     10  C   UNK A   1      -0.715   1.238   0.000  0.00  0.00    +0.000 A 
ATOM     11 CL   UNK A   1      -0.715   0.412   0.000  0.00  0.00    +0.000 Cl
ATOM     12  O   UNK A   1      -0.715   3.712   0.000  0.00  0.00    +0.000 OA
ENDROOT
BRANCH   8  13
ATOM     13  C   UNK A   1       0.715   2.888   0.000  0.00  0.00    +0.000 C 
ATOM     14  O   UNK A   1       0.715   3.712   0.000  0.00  0.00    +0.000 OA
ATOM     15  N   GLY A   2       1.429   2.475   0.000  0.00  0.00    +0.000 NA
BRANCH  15  16
ATOM     16  CA  GLY A   2       2.143   2.888   0.000  0.00  0.00    +0.000 C 
BRANCH  16  17
ATOM     17  C   GLY A   2       2.858   2.475   0.000  0.00  0.00    +0.000 C 
ATOM     18  O   GLY A   2       3.572   2.888   0.000  0.00  0.00    +0.000 OA
ATOM     19  OXT GLY A   2       2.858   1.650   0.000  0.00  0.00    +0.000 OA
ENDBRANCH  16  17
ENDBRANCH  15  16
ENDBRANCH   8  13
TORSDOF 3
