REMARK  Name = 
REMARK  6 active torsions:
REMARK  status: ('A' for Active; 'I' for Inactive)
REMARK    1  A    between atoms: C_1  and  C_25
REMARK    2  A    between atoms: N_2  and  C_3
REMARK    3  A    between atoms: C_6  and  C_9
REMARK    4  A    between atoms: C_9  and  C_10
REMARK    5  A    between atoms: C_12  and  C_15
REMARK    6  A    between atoms: C_15  and  C_17
REMARK                            x       y       z     vdW  Elec       q    Type
REMARK                         _______ _______ _______ _____ _____    ______ ____
ROOT
ATOM      1  C   UNL     1      -1.382  -0.411   0.000  0.00  0.00    +0.000 A 
ATOM      2  C   UNL     1      -1.382  -1.236   0.000  0.00  0.00    +0.000 A 
ATOM      3  C   UNL     1      -0.665  -1.650   0.000  0.00  0.00    +0.000 A 
ATOM      4  C   UNL     1       0.047  -1.236   0.000  0.00  0.00    +0.000 A 
ATOM      5  C   UNL     1       0.047  -0.411   0.000  0.00  0.00    +0.000 A 
ATOM      6  C   UNL     1      -0.665   0.000   0.000  0.00  0.00    +0.000 A 
ENDROOT
BRANCH   1   8
ATOM      7  C   UNL     1      -2.096   0.825   0.000  0.00  0.00    +0.000 C 
ATOM      8  N   UNL     1      -2.096   0.000   0.000  0.00  0.00    +0.000 NA
ATOM      9  O   UNL     1      -1.382   1.238   0.000  0.00  0.00    +0.000 OA
BRANCH   7  10
ATOM     10  C   UNL     1      -2.811   1.238   0.000  0.00  0.00    +0.000 C 
ATOM     11  N   UNL     1      -4.242   1.238   0.000  0.00  0.00    +0.000 N 
ATOM     12  C   UNL     1      -4.242   2.063   0.000  0.00  0.00    +0.000 A 
ATOM     13  C   UNL     1      -3.525   2.475   0.000  0.00  0.00    +0.000 C 
ATOM     14  C   UNL     1      -2.811   2.063   0.000  0.00  0.00    +0.000 C 
ATOM     15  N   UNL     1      -4.954   2.475   0.000  0.00  0.00    +0.000 NA
ATOM     16  C   UNL     1      -5.671   2.063   0.000  0.00  0.00    +0.000 A 
ATOM     17  C   UNL     1      -5.671   1.238   0.000  0.00  0.00    +0.000 A 
ATOM     18  C   UNL     1      -4.954   0.825   0.000  0.00  0.00    +0.000 A 
ATOM     19  O   UNL     1      -4.954   0.000   0.000  0.00  0.00    +0.000 OA
ENDBRANCH   7  10
ENDBRANCH   1   8
BRANCH   4  20
ATOM     20  C   UNL     1       0.761  -1.650   0.000  0.00  0.00    +0.000 C 
BRANCH  20  21
ATOM     21  C   UNL     1       1.476  -1.236   0.000  0.00  0.00    +0.000 C 
ATOM     22  N   UNL     1       2.129  -1.742   0.000  0.00  0.00    +0.000 NA
ATOM     23  C   UNL     1       2.813  -1.236   0.000  0.00  0.00    +0.000 C 
ATOM     24  C   UNL     1       2.575  -0.465   0.000  0.00  0.00    +0.000 C 
ATOM     25  C   UNL     1       1.744  -0.465   0.000  0.00  0.00    +0.000 C 
BRANCH  23  26
ATOM     26  C   UNL     1       3.527  -1.650   0.000  0.00  0.00    +0.000 C 
ATOM     27  O   UNL     1       3.527  -2.475   0.000  0.00  0.00    +0.000 OA
BRANCH  26  28
ATOM     28  C   UNL     1       4.242  -1.236   0.000  0.00  0.00    +0.000 A 
ATOM     29  C   UNL     1       4.242  -0.411   0.000  0.00  0.00    +0.000 A 
ATOM     30  C   UNL     1       4.958   0.000   0.000  0.00  0.00    +0.000 A 
ATOM     31  C   UNL     1       5.671  -0.411   0.000  0.00  0.00    +0.000 A 
ATOM     32  C   UNL     1       5.671  -1.236   0.000  0.00  0.00    +0.000 A 
ATOM     33  C   UNL     1       4.958  -1.650   0.000  0.00  0.00    +0.000 A 
ENDBRANCH  26  28
ENDBRANCH  23  26
ENDBRANCH  20  21
ENDBRANCH   4  20
TORSDOF 6
