REMARK  Name = 
REMARK  3 active torsions:
REMARK  status: ('A' for Active; 'I' for Inactive)
REMARK    1  A    between atoms: N_1  and  C_4
REMARK    2  A    between atoms: C_2  and  C_3
REMARK    3  A    between atoms: C_2  and  C_4
REMARK                            x       y       z     vdW  Elec       q    Type
REMARK                         _______ _______ _______ _____ _____    ______ ____
ROOT
ATOM      1  C   UNL     1      -0.350   0.405   0.000  0.00  0.00    +0.000 A 
ATOM      2  C   UNL     1      -1.069   0.825   0.000  0.00  0.00    +0.000 A 
ATOM      3  C   UNL     1      -0.350  -0.420   0.000  0.00  0.00    +0.000 A 
ATOM      4  C   UNL     1      -1.778   0.405   0.000  0.00  0.00    +0.000 A 
ATOM      5  C   UNL     1      -1.069  -0.840   0.000  0.00  0.00    +0.000 A 
ATOM      6  C   UNL     1      -1.778  -0.420   0.000  0.00  0.00    +0.000 A 
ENDROOT
BRANCH   1   7
ATOM      7  C   UNL     1       0.364   0.825   0.000  0.00  0.00    +0.000 C 
BRANCH   7   8
ATOM      8  C   UNL     1       1.073   0.420   0.000  0.00  0.00    +0.000 C 
ATOM      9  C   UNL     1       1.778   0.840   0.000  0.00  0.00    +0.000 C 
BRANCH   8  10
ATOM     10  N   UNL     1       1.073  -0.391   0.000  0.00  0.00    +0.000 NA
ATOM     11  C   UNL     1       1.768  -0.796   0.000  0.00  0.00    +0.000 C 
ENDBRANCH   8  10
ENDBRANCH   7   8
ENDBRANCH   1   7
TORSDOF 3
