REMARK  Name = 
REMARK  1 active torsions:
REMARK  status: ('A' for Active; 'I' for Inactive)
REMARK    1  A    between atoms: C_4  and  C_8
REMARK                            x       y       z     vdW  Elec       q    Type
REMARK                         _______ _______ _______ _____ _____    ______ ____
ROOT
ATOM      1  C   UNL     1       1.426   1.659   0.000  0.00  0.00    +0.000 C 
ATOM      2  C   UNL     1       1.426   0.834   0.000  0.00  0.00    +0.000 C 
ATOM      3  C   UNL     1       1.426   0.001   0.000  0.00  0.00    +0.000 C 
ATOM      4  C   UNL     1       2.139   1.250   0.000  0.00  0.00    +0.000 C 
ATOM      5  C   UNL     1       0.714   1.250   0.000  0.00  0.00    +0.000 C 
ATOM      6  C   UNL     1       0.714  -0.415   0.000  0.00  0.00    +0.000 C 
ATOM      7  C   UNL     1       2.851   0.001   0.000  0.00  0.00    +0.000 C 
ATOM      8  C   UNL     1       2.853   1.661   0.000  0.00  0.00    +0.000 C 
ATOM      9  C   UNL     1       2.851   0.834   0.000  0.00  0.00    +0.000 C 
ATOM     10  C   UNL     1       0.001   0.834   0.000  0.00  0.00    +0.000 C 
ATOM     11  C   UNL     1       0.001   0.001   0.000  0.00  0.00    +0.000 C 
ATOM     12  C   UNL     1       0.714  -1.246   0.000  0.00  0.00    +0.000 C 
ATOM     13  C   UNL     1      -0.711  -0.415   0.000  0.00  0.00    +0.000 C 
ATOM     14  C   UNL     1       0.001  -1.661   0.000  0.00  0.00    +0.000 C 
ATOM     15  C   UNL     1      -0.711   0.410   0.000  0.00  0.00    +0.000 C 
ATOM     16  C   UNL     1      -0.711  -1.246   0.000  0.00  0.00    +0.000 C 
ATOM     17  C   UNL     1      -1.426   0.001   0.000  0.00  0.00    +0.000 C 
ATOM     18  C   UNL     1       0.001  -2.486   0.000  0.00  0.00    +0.000 C 
ATOM     19  C   UNL     1      -1.426  -1.661   0.000  0.00  0.00    +0.000 C 
ATOM     20  C   UNL     1      -2.139  -0.415   0.000  0.00  0.00    +0.000 C 
ATOM     21  C   UNL     1      -2.139  -1.246   0.000  0.00  0.00    +0.000 C 
ATOM     22  O   UNL     1      -2.853  -1.657   0.000  0.00  0.00    +0.000 OA
ENDROOT
BRANCH   4  23
ATOM     23  C   UNL     1       2.139   2.075   0.000  0.00  0.00    +0.000 C 
ATOM     24  C   UNL     1       2.853   2.486   0.000  0.00  0.00    +0.000 C 
ATOM     25  O   UNL     1       1.424   2.486   0.000  0.00  0.00    +0.000 OA
ENDBRANCH   4  23
TORSDOF 1
