REMARK  Name = 
REMARK  13 active torsions:
REMARK  status: ('A' for Active; 'I' for Inactive)
REMARK    1  A    between atoms: C_2  and  O_3
REMARK    2  A    between atoms: O_3  and  C_4
REMARK    3  A    between atoms: C_4  and  C_6
REMARK    4  A    between atoms: C_6  and  C_7
REMARK    5  A    between atoms: C_6  and  N_9
REMARK    6  A    between atoms: N_9  and  C_10
REMARK    7  A    between atoms: C_10  and  C_11
REMARK    8  A    between atoms: C_11  and  N_12
REMARK    9  A    between atoms: N_12  and  C_13
REMARK   10  A    between atoms: C_13  and  C_14
REMARK   11  A    between atoms: C_13  and  C_16
REMARK   12  A    between atoms: C_16  and  O_18
REMARK   13  A    between atoms: O_18  and  C_19
REMARK                            x       y       z     vdW  Elec       q    Type
REMARK                         _______ _______ _______ _____ _____    ______ ____
ROOT
ATOM      1  C   UNL     1       9.045   3.572   0.000  0.00  0.00    +0.000 C 
ENDROOT
BRANCH   1   2
ATOM      2  N   UNL     1       8.331   3.985   0.000  0.00  0.00    +0.000 NA
BRANCH   2   3
ATOM      3  C   UNL     1       7.616   3.572   0.000  0.00  0.00    +0.000 C 
BRANCH   3   4
ATOM      4  C   UNL     1       6.902   3.985   0.000  0.00  0.00    +0.000 C 
ATOM      5  O   UNL     1       6.902   4.810   0.000  0.00  0.00    +0.000 OA
BRANCH   4   6
ATOM      6  O   UNL     1       6.188   3.572   0.000  0.00  0.00    +0.000 OA
BRANCH   6   8
ATOM      7  C   UNL     1       4.759   3.572   0.000  0.00  0.00    +0.000 C 
ATOM      8  C   UNL     1       5.473   3.985   0.000  0.00  0.00    +0.000 C 
ENDBRANCH   6   8
ENDBRANCH   4   6
ENDBRANCH   3   4
BRANCH   3   9
ATOM      9  C   UNL     1       7.616   2.747   0.000  0.00  0.00    +0.000 C 
ATOM     10  S   UNL     1       8.331   2.335   0.000  0.00  0.00    +0.000 S 
ENDBRANCH   3   9
ENDBRANCH   2   3
ENDBRANCH   1   2
BRANCH   1  11
ATOM     11  C   UNL     1       9.760   3.985   0.000  0.00  0.00    +0.000 C 
BRANCH  11  12
ATOM     12  N   UNL     1      10.474   3.572   0.000  0.00  0.00    +0.000 NA
BRANCH  12  13
ATOM     13  C   UNL     1      11.189   3.985   0.000  0.00  0.00    +0.000 C 
BRANCH  13  14
ATOM     14  C   UNL     1      11.903   3.572   0.000  0.00  0.00    +0.000 C 
ATOM     15  O   UNL     1      11.903   2.747   0.000  0.00  0.00    +0.000 OA
BRANCH  14  16
ATOM     16  O   UNL     1      12.618   3.985   0.000  0.00  0.00    +0.000 OA
BRANCH  16  17
ATOM     17  C   UNL     1      13.332   3.572   0.000  0.00  0.00    +0.000 C 
ATOM     18  C   UNL     1      14.047   3.985   0.000  0.00  0.00    +0.000 C 
ENDBRANCH  16  17
ENDBRANCH  14  16
ENDBRANCH  13  14
BRANCH  13  19
ATOM     19  C   UNL     1      11.189   4.810   0.000  0.00  0.00    +0.000 C 
ATOM     20  S   UNL     1      11.903   5.222   0.000  0.00  0.00    +0.000 S 
ENDBRANCH  13  19
ENDBRANCH  12  13
ENDBRANCH  11  12
ENDBRANCH   1  11
TORSDOF 13
