REMARK  Name = 
REMARK  6 active torsions:
REMARK  status: ('A' for Active; 'I' for Inactive)
REMARK    1  A    between atoms: C_3  and  C_7
REMARK    2  A    between atoms: C_8  and  C_19
REMARK    3  A    between atoms: C_12  and  C_13
REMARK    4  A    between atoms: C_13  and  O_14
REMARK    5  A    between atoms: C_19  and  O_21
REMARK    6  A    between atoms: O_21  and  C_22
REMARK                            x       y       z     vdW  Elec       q    Type
REMARK                         _______ _______ _______ _____ _____    ______ ____
ROOT
ATOM      1  C   UNL     1       0.360  -0.747   0.000  0.00  0.00    +0.000 C 
ATOM      2  C   UNL     1      -0.356  -1.159   0.000  0.00  0.00    +0.000 C 
ATOM      3  C   UNL     1      -0.357  -1.983   0.000  0.00  0.00    +0.000 C 
ATOM      4  N   UNL     1       0.358  -2.396   0.000  0.00  0.00    +0.000 NA
ATOM      5  C   UNL     1       1.075  -1.980   0.000  0.00  0.00    +0.000 C 
ATOM      6  C   UNL     1       1.072  -1.157   0.000  0.00  0.00    +0.000 C 
ATOM      7  C   UNL     1       1.791  -2.390   0.000  0.00  0.00    +0.000 C 
ATOM      8  C   UNL     1      -1.072  -2.395   0.000  0.00  0.00    +0.000 C 
ENDROOT
BRANCH   1  11
ATOM      9  C   UNL     1      -0.355   1.978   0.000  0.00  0.00    +0.000 A 
ATOM     10  C   UNL     1      -0.357   1.150   0.000  0.00  0.00    +0.000 A 
ATOM     11  C   UNL     1       0.358   0.737   0.000  0.00  0.00    +0.000 A 
ATOM     12  C   UNL     1       1.075   1.151   0.000  0.00  0.00    +0.000 A 
ATOM     13  C   UNL     1       1.072   1.981   0.000  0.00  0.00    +0.000 A 
ATOM     14  C   UNL     1       0.356   2.390   0.000  0.00  0.00    +0.000 A 
ATOM     15 CL   UNL     1       1.784   2.396   0.000  0.00  0.00    +0.000 Cl
ATOM     16 CL   UNL     1       1.786   0.741   0.000  0.00  0.00    +0.000 Cl
ENDBRANCH   1  11
BRANCH   6  17
ATOM     17  C   UNL     1       1.785  -0.742   0.000  0.00  0.00    +0.000 C 
ATOM     18  O   UNL     1       1.783   0.083   0.000  0.00  0.00    +0.000 OA
BRANCH  17  19
ATOM     19  O   UNL     1       2.501  -1.153   0.000  0.00  0.00    +0.000 OA
ATOM     20  C   UNL     1       3.214  -0.739   0.000  0.00  0.00    +0.000 C 
ENDBRANCH  17  19
ENDBRANCH   6  17
BRANCH   2  21
ATOM     21  C   UNL     1      -1.070  -0.745   0.000  0.00  0.00    +0.000 C 
ATOM     22  O   UNL     1      -1.069   0.080   0.000  0.00  0.00    +0.000 OA
BRANCH  21  23
ATOM     23  O   UNL     1      -1.785  -1.157   0.000  0.00  0.00    +0.000 OA
BRANCH  23  24
ATOM     24  C   UNL     1      -2.499  -0.743   0.000  0.00  0.00    +0.000 C 
ATOM     25  C   UNL     1      -3.214  -1.155   0.000  0.00  0.00    +0.000 C 
ENDBRANCH  23  24
ENDBRANCH  21  23
ENDBRANCH   2  21
TORSDOF 6
