REMARK  Name = 
REMARK  9 active torsions:
REMARK  status: ('A' for Active; 'I' for Inactive)
REMARK    1  A    between atoms: C_1  and  C_2
REMARK    2  A    between atoms: C_2  and  C_3
REMARK    3  A    between atoms: N_12  and  S_13
REMARK    4  A    between atoms: S_13  and  C_21
REMARK    5  A    between atoms: N_15  and  C_20
REMARK    6  A    between atoms: N_16  and  C_19
REMARK    7  A    between atoms: C_19  and  C_27
REMARK    8  A    between atoms: C_20  and  C_33
REMARK    9  A    between atoms: C_39  and  C_42
REMARK                            x       y       z     vdW  Elec       q    Type
REMARK                         _______ _______ _______ _____ _____    ______ ____
ROOT
ATOM      1  C   UNL     1       1.112  -1.014   0.000  0.00  0.00    +0.000 C 
ATOM      2  C   UNL     1       0.430  -1.479   0.000  0.00  0.00    +0.000 C 
ATOM      3  O   UNL     1       0.553  -2.295   0.000  0.00  0.00    +0.000 OA
ATOM      4  C   UNL     1      -0.358  -1.236   0.000  0.00  0.00    +0.000 C 
ATOM      5  N   UNL     1      -0.659  -0.468   0.000  0.00  0.00    +0.000 NA
ATOM      6  N   UNL     1      -0.247   0.247   0.000  0.00  0.00    +0.000 N 
ATOM      7  N   UNL     1       1.174  -0.191   0.000  0.00  0.00    +0.000 N 
ATOM      8  C   UNL     1       0.569   0.370   0.000  0.00  0.00    +0.000 C 
ATOM      9  O   UNL     1       0.812   1.158   0.000  0.00  0.00    +0.000 OA
ENDROOT
BRANCH   5  10
ATOM     10  S   UNL     1      -1.482  -0.406   0.000  0.00  0.00    +0.000 S 
ATOM     11  O   UNL     1      -1.420   0.417   0.000  0.00  0.00    +0.000 OA
ATOM     12  O   UNL     1      -1.544  -1.229   0.000  0.00  0.00    +0.000 OA
BRANCH  10  13
ATOM     13  C   UNL     1      -2.305  -0.344   0.000  0.00  0.00    +0.000 A 
ATOM     14  C   UNL     1      -2.769  -1.026   0.000  0.00  0.00    +0.000 A 
ATOM     15  C   UNL     1      -2.663   0.399   0.000  0.00  0.00    +0.000 A 
ATOM     16  C   UNL     1      -3.592  -0.964   0.000  0.00  0.00    +0.000 A 
ATOM     17  C   UNL     1      -3.485   0.461   0.000  0.00  0.00    +0.000 A 
ATOM     18  C   UNL     1      -3.950  -0.221   0.000  0.00  0.00    +0.000 A 
BRANCH  16  19
ATOM     19  C   UNL     1      -4.057  -1.646   0.000  0.00  0.00    +0.000 C 
ATOM     20  N   UNL     1      -4.522  -2.328   0.000  0.00  0.00    +0.000 NA
ENDBRANCH  16  19
ENDBRANCH  10  13
ENDBRANCH   5  10
BRANCH   7  21
ATOM     21  C   UNL     1       1.942   0.110   0.000  0.00  0.00    +0.000 C 
BRANCH  21  27
ATOM     22  C   UNL     1       3.355  -0.103   0.000  0.00  0.00    +0.000 A 
ATOM     23  C   UNL     1       4.000  -0.617   0.000  0.00  0.00    +0.000 A 
ATOM     24  C   UNL     1       3.877  -1.433   0.000  0.00  0.00    +0.000 A 
ATOM     25  C   UNL     1       3.109  -1.734   0.000  0.00  0.00    +0.000 A 
ATOM     26  C   UNL     1       2.464  -1.220   0.000  0.00  0.00    +0.000 A 
ATOM     27  C   UNL     1       2.587  -0.404   0.000  0.00  0.00    +0.000 A 
ATOM     28  O   UNL     1       4.522  -1.948   0.000  0.00  0.00    +0.000 OA
ENDBRANCH  21  27
ENDBRANCH   7  21
BRANCH   1  29
ATOM     29  C   UNL     1       1.827  -1.427   0.000  0.00  0.00    +0.000 C 
BRANCH  29  30
ATOM     30  C   UNL     1       1.827  -2.252   0.000  0.00  0.00    +0.000 A 
ATOM     31  C   UNL     1       2.541  -2.664   0.000  0.00  0.00    +0.000 A 
ATOM     32  C   UNL     1       2.541  -3.489   0.000  0.00  0.00    +0.000 A 
ATOM     33  C   UNL     1       1.827  -3.902   0.000  0.00  0.00    +0.000 A 
ATOM     34  C   UNL     1       1.112  -3.489   0.000  0.00  0.00    +0.000 A 
ATOM     35  C   UNL     1       1.112  -2.664   0.000  0.00  0.00    +0.000 A 
ENDBRANCH  29  30
ENDBRANCH   1  29
BRANCH   6  36
ATOM     36  C   UNL     1      -0.712   0.928   0.000  0.00  0.00    +0.000 C 
BRANCH  36  42
ATOM     37  C   UNL     1      -0.818   2.353   0.000  0.00  0.00    +0.000 A 
ATOM     38  C   UNL     1      -0.460   3.097   0.000  0.00  0.00    +0.000 A 
ATOM     39  C   UNL     1       0.362   3.158   0.000  0.00  0.00    +0.000 A 
ATOM     40  C   UNL     1       0.827   2.477   0.000  0.00  0.00    +0.000 A 
ATOM     41  C   UNL     1       0.469   1.733   0.000  0.00  0.00    +0.000 A 
ATOM     42  C   UNL     1      -0.354   1.672   0.000  0.00  0.00    +0.000 A 
ATOM     43  O   UNL     1       0.720   3.902   0.000  0.00  0.00    +0.000 OA
ENDBRANCH  36  42
ENDBRANCH   6  36
TORSDOF 9
