REMARK  Name = 
REMARK  6 active torsions:
REMARK  status: ('A' for Active; 'I' for Inactive)
REMARK    1  A    between atoms: C_2  and  C_4
REMARK    2  A    between atoms: C_4  and  C_5
REMARK    3  A    between atoms: C_5  and  N_6
REMARK    4  A    between atoms: C_12  and  C_13
REMARK    5  A    between atoms: N_18  and  C_19
REMARK    6  A    between atoms: C_19  and  C_20
REMARK                            x       y       z     vdW  Elec       q    Type
REMARK                         _______ _______ _______ _____ _____    ______ ____
ROOT
ATOM      1  C   UNL     1       3.572  -4.537   0.000  0.00  0.00    +0.000 C 
ATOM      2  O   UNL     1       4.287  -4.950   0.000  0.00  0.00    +0.000 OA
ATOM      3  N   UNL     1       2.858  -4.950   0.000  0.00  0.00    +0.000 N 
ATOM      4  C   UNL     1       2.858  -5.775   0.000  0.00  0.00    +0.000 C 
ATOM      5  C   UNL     1       2.143  -6.188   0.000  0.00  0.00    +0.000 C 
ATOM      6  N   UNL     1       1.429  -5.775   0.000  0.00  0.00    +0.000 NA
ATOM      7  C   UNL     1       1.429  -4.950   0.000  0.00  0.00    +0.000 C 
ATOM      8  C   UNL     1       2.143  -4.537   0.000  0.00  0.00    +0.000 C 
ENDROOT
BRANCH   1  15
ATOM      9  N   UNL     1       2.143  -3.712   0.000  0.00  0.00    +0.000 NA
ATOM     10  C   UNL     1       2.858  -3.300   0.000  0.00  0.00    +0.000 A 
ATOM     11  N   UNL     1       2.858  -2.475   0.000  0.00  0.00    +0.000 NA
ATOM     12  C   UNL     1       3.572  -2.062   0.000  0.00  0.00    +0.000 A 
ATOM     13  C   UNL     1       4.287  -2.475   0.000  0.00  0.00    +0.000 A 
ATOM     14  C   UNL     1       4.287  -3.300   0.000  0.00  0.00    +0.000 A 
ATOM     15  C   UNL     1       3.572  -3.712   0.000  0.00  0.00    +0.000 A 
BRANCH   9  16
ATOM     16  C   UNL     1       1.429  -3.300   0.000  0.00  0.00    +0.000 C 
BRANCH  16  17
ATOM     17  C   UNL     1       0.715  -3.712   0.000  0.00  0.00    +0.000 C 
BRANCH  17  19
ATOM     18  C   UNL     1      -0.715  -3.712   0.000  0.00  0.00    +0.000 C 
ATOM     19  C   UNL     1       0.000  -3.300   0.000  0.00  0.00    +0.000 C 
ATOM     20  C   UNL     1       0.000  -2.475   0.000  0.00  0.00    +0.000 C 
ENDBRANCH  17  19
ENDBRANCH  16  17
ENDBRANCH   9  16
ENDBRANCH   1  15
BRANCH   6  21
ATOM     21  C   UNL     1       0.715  -6.188   0.000  0.00  0.00    +0.000 C 
BRANCH  21  22
ATOM     22  C   UNL     1       0.715  -7.013   0.000  0.00  0.00    +0.000 A 
ATOM     23  C   UNL     1       1.429  -7.425   0.000  0.00  0.00    +0.000 A 
ATOM     24  C   UNL     1       1.429  -8.250   0.000  0.00  0.00    +0.000 A 
ATOM     25  C   UNL     1       0.715  -8.662   0.000  0.00  0.00    +0.000 A 
ATOM     26  C   UNL     1       0.000  -8.250   0.000  0.00  0.00    +0.000 A 
ATOM     27  C   UNL     1       0.000  -7.425   0.000  0.00  0.00    +0.000 A 
ENDBRANCH  21  22
ENDBRANCH   6  21
TORSDOF 6
