REMARK  Name = 
REMARK  7 active torsions:
REMARK  status: ('A' for Active; 'I' for Inactive)
REMARK    1  A    between atoms: C_14  and  C_17
REMARK    2  A    between atoms: C_14  and  C_23
REMARK    3  A    between atoms: C_17  and  N_26
REMARK    4  A    between atoms: C_18  and  C_21
REMARK    5  A    between atoms: C_18  and  C_22
REMARK    6  A    between atoms: C_19  and  C_21
REMARK    7  A    between atoms: C_20  and  C_21
REMARK                            x       y       z     vdW  Elec       q    Type
REMARK                         _______ _______ _______ _____ _____    ______ ____
ROOT
ATOM      1  C   UNL     1       4.363   1.591   0.000  0.00  0.00    +0.000 C 
ENDROOT
BRANCH   1   2
ATOM      2  C   UNL     1       3.878   2.258   0.000  0.00  0.00    +0.000 A 
ATOM      3  C   UNL     1       3.466   3.528   0.000  0.00  0.00    +0.000 A 
ATOM      4  N   UNL     1       4.133   3.043   0.000  0.00  0.00    +0.000 NA
ATOM      5  N   UNL     1       3.053   2.258   0.000  0.00  0.00    +0.000 NA
ATOM      6  O   UNL     1       2.798   3.043   0.000  0.00  0.00    +0.000 OA
BRANCH   3   7
ATOM      7  C   UNL     1       3.466   4.353   0.000  0.00  0.00    +0.000 C 
BRANCH   7   8
ATOM      8  C   UNL     1       2.751   4.765   0.000  0.00  0.00    +0.000 C 
BRANCH   8  14
ATOM      9  C   UNL     1       2.751   7.240   0.000  0.00  0.00    +0.000 C 
ATOM     10  C   UNL     1       2.037   6.828   0.000  0.00  0.00    +0.000 C 
ATOM     11  C   UNL     1       3.466   6.828   0.000  0.00  0.00    +0.000 C 
ATOM     12  C   UNL     1       2.037   6.003   0.000  0.00  0.00    +0.000 C 
ATOM     13  C   UNL     1       3.466   6.003   0.000  0.00  0.00    +0.000 C 
ATOM     14  N   UNL     1       2.751   5.590   0.000  0.00  0.00    +0.000 NA
ENDBRANCH   8  14
ENDBRANCH   7   8
ENDBRANCH   3   7
ENDBRANCH   1   2
BRANCH   1  15
ATOM     15  C   UNL     1       4.027   0.837   0.000  0.00  0.00    +0.000 C 
BRANCH  15  21
ATOM     16  C   UNL     1       5.482  -1.165   0.000  0.00  0.00    +0.000 A 
ATOM     17  C   UNL     1       5.818  -0.412   0.000  0.00  0.00    +0.000 A 
ATOM     18  C   UNL     1       4.662  -1.252   0.000  0.00  0.00    +0.000 A 
ATOM     19  C   UNL     1       5.333   0.256   0.000  0.00  0.00    +0.000 A 
ATOM     20  C   UNL     1       4.177  -0.584   0.000  0.00  0.00    +0.000 A 
ATOM     21  C   UNL     1       4.512   0.170   0.000  0.00  0.00    +0.000 A 
ENDBRANCH  15  21
BRANCH  15  27
ATOM     22  C   UNL     1       1.566   0.578   0.000  0.00  0.00    +0.000 A 
ATOM     23  C   UNL     1       2.051  -0.089   0.000  0.00  0.00    +0.000 A 
ATOM     24  C   UNL     1       1.902   1.332   0.000  0.00  0.00    +0.000 A 
ATOM     25  C   UNL     1       2.872  -0.003   0.000  0.00  0.00    +0.000 A 
ATOM     26  C   UNL     1       2.722   1.418   0.000  0.00  0.00    +0.000 A 
ATOM     27  C   UNL     1       3.207   0.751   0.000  0.00  0.00    +0.000 A 
ENDBRANCH  15  27
ENDBRANCH   1  15
TORSDOF 7
