REMARK  Name = 
REMARK  5 active torsions:
REMARK  status: ('A' for Active; 'I' for Inactive)
REMARK    1  A    between atoms: N_2  and  C_4
REMARK    2  A    between atoms: C_4  and  C_5
REMARK    3  A    between atoms: C_6  and  C_7
REMARK    4  A    between atoms: C_14  and  N_16
REMARK    5  A    between atoms: C_19  and  C_21
REMARK                            x       y       z     vdW  Elec       q    Type
REMARK                         _______ _______ _______ _____ _____    ______ ____
ROOT
ATOM      1  N   UNL     1      -0.143  -0.030   0.000  0.00  0.00    +0.000 N 
ATOM      2  C   UNL     1      -0.628  -0.698   0.000  0.00  0.00    +0.000 A 
ATOM      3  N   UNL     1      -1.453  -0.698   0.000  0.00  0.00    +0.000 NA
ATOM      4  C   UNL     1      -1.866  -1.412   0.000  0.00  0.00    +0.000 C 
ATOM      5  O   UNL     1      -2.691  -1.412   0.000  0.00  0.00    +0.000 OA
ATOM      6  N   UNL     1      -0.143  -1.365   0.000  0.00  0.00    +0.000 NA
ATOM      7  C   UNL     1       0.641  -1.110   0.000  0.00  0.00    +0.000 A 
ATOM      8  C   UNL     1       0.641  -0.285   0.000  0.00  0.00    +0.000 A 
ATOM      9  C   UNL     1       1.356   0.127   0.000  0.00  0.00    +0.000 A 
ATOM     10 CL   UNL     1       1.356   0.952   0.000  0.00  0.00    +0.000 Cl
ATOM     11  C   UNL     1       2.070  -0.285   0.000  0.00  0.00    +0.000 A 
ATOM     12  C   UNL     1       2.070  -1.110   0.000  0.00  0.00    +0.000 A 
ATOM     13  C   UNL     1       1.356  -1.523   0.000  0.00  0.00    +0.000 A 
ENDROOT
BRANCH   1  21
ATOM     14  C   UNL     1      -2.461   1.499   0.000  0.00  0.00    +0.000 C 
ATOM     15  O   UNL     1      -2.808   0.751   0.000  0.00  0.00    +0.000 OA
ATOM     16  N   UNL     1      -1.639   1.573   0.000  0.00  0.00    +0.000 N 
ATOM     17  C   UNL     1      -1.349   2.345   0.000  0.00  0.00    +0.000 C 
ATOM     18  C   UNL     1      -0.565   2.600   0.000  0.00  0.00    +0.000 C 
ATOM     19  C   UNL     1       0.124   2.146   0.000  0.00  0.00    +0.000 C 
ATOM     20  C   UNL     1       0.198   1.324   0.000  0.00  0.00    +0.000 C 
ATOM     21  C   UNL     1      -0.398   0.754   0.000  0.00  0.00    +0.000 C 
ATOM     22  C   UNL     1      -1.216   0.865   0.000  0.00  0.00    +0.000 C 
BRANCH  14  24
ATOM     23  C   UNL     1      -2.589   2.922   0.000  0.00  0.00    +0.000 C 
ATOM     24  C   UNL     1      -2.936   2.174   0.000  0.00  0.00    +0.000 C 
BRANCH  23  25
ATOM     25  C   UNL     1      -3.064   3.597   0.000  0.00  0.00    +0.000 C 
BRANCH  25  27
ATOM     26  C   UNL     1      -3.192   5.020   0.000  0.00  0.00    +0.000 C 
ATOM     27  N   UNL     1      -2.717   4.346   0.000  0.00  0.00    +0.000 NA
ATOM     28  C   UNL     1      -1.895   4.420   0.000  0.00  0.00    +0.000 C 
ENDBRANCH  25  27
ENDBRANCH  23  25
ENDBRANCH  14  24
ENDBRANCH   1  21
BRANCH   4  29
ATOM     29  C   UNL     1      -1.453  -2.127   0.000  0.00  0.00    +0.000 A 
ATOM     30  C   UNL     1      -0.628  -2.127   0.000  0.00  0.00    +0.000 A 
ATOM     31  C   UNL     1      -0.216  -2.841   0.000  0.00  0.00    +0.000 A 
ATOM     32  N   UNL     1      -0.628  -3.556   0.000  0.00  0.00    +0.000 NA
ATOM     33  C   UNL     1      -1.453  -3.556   0.000  0.00  0.00    +0.000 A 
ATOM     34  C   UNL     1      -1.866  -4.270   0.000  0.00  0.00    +0.000 C 
ATOM     35  C   UNL     1      -1.866  -2.841   0.000  0.00  0.00    +0.000 A 
ENDBRANCH   4  29
TORSDOF 5
