REMARK  Name = 
REMARK  4 active torsions:
REMARK  status: ('A' for Active; 'I' for Inactive)
REMARK    1  A    between atoms: N_20  and  C_21
REMARK    2  A    between atoms: C_21  and  C_22
REMARK    3  A    between atoms: C_22  and  C_23
REMARK    4  A    between atoms: C_23  and  N_24
REMARK                            x       y       z     vdW  Elec       q    Type
REMARK                         _______ _______ _______ _____ _____    ______ ____
ROOT
ATOM      1  C   UNL     1      -3.913   0.700   0.000  0.00  0.00    +0.000 C 
ATOM      2  C   UNL     1      -3.198   0.288   0.000  0.00  0.00    +0.000 A 
ATOM      3  C   UNL     1      -2.484   0.700   0.000  0.00  0.00    +0.000 A 
ATOM      4  N   UNL     1      -1.769   0.288   0.000  0.00  0.00    +0.000 NA
ATOM      5  C   UNL     1      -1.769  -0.537   0.000  0.00  0.00    +0.000 A 
ATOM      6  C   UNL     1      -2.484  -0.950   0.000  0.00  0.00    +0.000 A 
ATOM      7  C   UNL     1      -3.198  -0.537   0.000  0.00  0.00    +0.000 A 
ATOM      8  N   UNL     1      -3.811  -1.089   0.000  0.00  0.00    +0.000 NA
ATOM      9  C   UNL     1      -3.476  -1.843   0.000  0.00  0.00    +0.000 A 
ATOM     10  C   UNL     1      -2.655  -1.757   0.000  0.00  0.00    +0.000 A 
ATOM     11  C   UNL     1      -2.170  -2.424   0.000  0.00  0.00    +0.000 A 
ATOM     12  C   UNL     1      -1.350  -2.338   0.000  0.00  0.00    +0.000 A 
ATOM     13  C   UNL     1      -0.865  -3.005   0.000  0.00  0.00    +0.000 A 
ATOM     14  C   UNL     1      -1.200  -3.759   0.000  0.00  0.00    +0.000 A 
ATOM     15  C   UNL     1      -2.021  -3.845   0.000  0.00  0.00    +0.000 A 
ATOM     16  C   UNL     1      -2.506  -3.178   0.000  0.00  0.00    +0.000 A 
ATOM     17  C   UNL     1      -3.326  -3.264   0.000  0.00  0.00    +0.000 A 
ATOM     18  C   UNL     1      -3.811  -2.596   0.000  0.00  0.00    +0.000 A 
ATOM     19  O   UNL     1      -0.715  -4.426   0.000  0.00  0.00    +0.000 OA
ATOM     20  N   UNL     1      -1.055  -0.950   0.000  0.00  0.00    +0.000 NA
ENDROOT
BRANCH  20  21
ATOM     21  C   UNL     1      -0.340  -0.537   0.000  0.00  0.00    +0.000 C 
BRANCH  21  22
ATOM     22  C   UNL     1       0.374  -0.950   0.000  0.00  0.00    +0.000 C 
BRANCH  22  23
ATOM     23  C   UNL     1       1.089  -0.537   0.000  0.00  0.00    +0.000 C 
BRANCH  23  24
ATOM     24  N   UNL     1       1.803  -0.950   0.000  0.00  0.00    +0.000 NA
ATOM     25  C   UNL     1       2.518  -0.537   0.000  0.00  0.00    +0.000 C 
ATOM     26  C   UNL     1       1.803  -1.775   0.000  0.00  0.00    +0.000 C 
ENDBRANCH  23  24
ENDBRANCH  22  23
ENDBRANCH  21  22
ENDBRANCH  20  21
TORSDOF 4
