REMARK  Name = 
REMARK  13 active torsions:
REMARK  status: ('A' for Active; 'I' for Inactive)
REMARK    1  A    between atoms: C_2  and  C_4
REMARK    2  A    between atoms: C_2  and  N_29
REMARK    3  A    between atoms: C_4  and  C_5
REMARK    4  A    between atoms: C_9  and  C_11
REMARK    5  A    between atoms: C_11  and  C_12
REMARK    6  A    between atoms: N_14  and  C_15
REMARK    7  A    between atoms: C_15  and  C_16
REMARK    8  A    between atoms: C_20  and  C_22
REMARK    9  A    between atoms: N_29  and  C_30
REMARK   10  A    between atoms: C_30  and  C_31
REMARK   11  A    between atoms: C_31  and  C_32
REMARK   12  A    between atoms: C_36  and  N_38
REMARK   13  A    between atoms: N_38  and  S_39
REMARK                            x       y       z     vdW  Elec       q    Type
REMARK                         _______ _______ _______ _____ _____    ______ ____
ROOT
ATOM      1  C   UNL     1      -1.429  -4.125   0.000  0.00  0.00    +0.000 A 
ATOM      2  C   UNL     1      -0.715  -4.537   0.000  0.00  0.00    +0.000 A 
ATOM      3  C   UNL     1      -0.715  -5.362   0.000  0.00  0.00    +0.000 A 
ATOM      4  C   UNL     1      -1.429  -5.775   0.000  0.00  0.00    +0.000 A 
ATOM      5  C   UNL     1      -2.143  -5.362   0.000  0.00  0.00    +0.000 A 
ATOM      6  C   UNL     1      -2.143  -4.537   0.000  0.00  0.00    +0.000 A 
ENDROOT
BRANCH   5   7
ATOM      7  C   UNL     1      -2.858  -5.775   0.000  0.00  0.00    +0.000 C 
BRANCH   7   8
ATOM      8  C   UNL     1      -2.858  -6.600   0.000  0.00  0.00    +0.000 C 
ATOM      9  O   UNL     1      -2.143  -7.013   0.000  0.00  0.00    +0.000 OA
ATOM     10  N   UNL     1      -3.572  -7.013   0.000  0.00  0.00    +0.000 NA
BRANCH  10  11
ATOM     11  C   UNL     1      -3.572  -7.838   0.000  0.00  0.00    +0.000 C 
BRANCH  11  12
ATOM     12  C   UNL     1      -4.287  -8.250   0.000  0.00  0.00    +0.000 A 
ATOM     13  C   UNL     1      -4.287  -9.075   0.000  0.00  0.00    +0.000 A 
ATOM     14  C   UNL     1      -5.001  -9.488   0.000  0.00  0.00    +0.000 A 
ATOM     15  C   UNL     1      -5.716  -9.075   0.000  0.00  0.00    +0.000 A 
ATOM     16  C   UNL     1      -5.716  -8.250   0.000  0.00  0.00    +0.000 A 
ATOM     17  C   UNL     1      -5.001  -7.838   0.000  0.00  0.00    +0.000 A 
BRANCH  16  18
ATOM     18  C   UNL     1      -6.430  -7.838   0.000  0.00  0.00    +0.000 A 
ATOM     19  C   UNL     1      -7.145  -8.250   0.000  0.00  0.00    +0.000 A 
ATOM     20  C   UNL     1      -7.859  -7.838   0.000  0.00  0.00    +0.000 A 
ATOM     21  C   UNL     1      -7.859  -7.013   0.000  0.00  0.00    +0.000 A 
ATOM     22  C   UNL     1      -7.145  -6.600   0.000  0.00  0.00    +0.000 A 
ATOM     23  C   UNL     1      -6.430  -7.013   0.000  0.00  0.00    +0.000 A 
ATOM     24  O   UNL     1      -8.574  -6.600   0.000  0.00  0.00    +0.000 OA
ENDBRANCH  16  18
ENDBRANCH  11  12
ENDBRANCH  10  11
ENDBRANCH   7   8
ENDBRANCH   5   7
BRANCH   1  25
ATOM     25  C   UNL     1      -1.429  -3.300   0.000  0.00  0.00    +0.000 C 
BRANCH  25  27
ATOM     26  C   UNL     1      -0.302  -3.602   0.000  0.00  0.00    +0.000 C 
ATOM     27  C   UNL     1      -0.715  -2.888   0.000  0.00  0.00    +0.000 C 
ATOM     28  C   UNL     1      -1.127  -2.173   0.000  0.00  0.00    +0.000 C 
BRANCH  27  29
ATOM     29  N   UNL     1       0.000  -2.475   0.000  0.00  0.00    +0.000 NA
BRANCH  29  30
ATOM     30  C   UNL     1       0.000  -1.650   0.000  0.00  0.00    +0.000 C 
BRANCH  30  31
ATOM     31  C   UNL     1       0.715  -1.238   0.000  0.00  0.00    +0.000 C 
ATOM     32  O   UNL     1       1.429  -1.650   0.000  0.00  0.00    +0.000 OA
BRANCH  31  33
ATOM     33  C   UNL     1       0.715  -0.412   0.000  0.00  0.00    +0.000 A 
ATOM     34  C   UNL     1       0.000   0.000   0.000  0.00  0.00    +0.000 A 
ATOM     35  C   UNL     1       0.000   0.825   0.000  0.00  0.00    +0.000 A 
ATOM     36  C   UNL     1       0.715   1.238   0.000  0.00  0.00    +0.000 A 
ATOM     37  C   UNL     1       1.429   0.825   0.000  0.00  0.00    +0.000 A 
ATOM     38  C   UNL     1       1.429   0.000   0.000  0.00  0.00    +0.000 A 
ATOM     39  O   UNL     1       0.715   2.062   0.000  0.00  0.00    +0.000 OA
BRANCH  37  40
ATOM     40  N   UNL     1       2.143   1.238   0.000  0.00  0.00    +0.000 NA
BRANCH  40  41
ATOM     41  S   UNL     1       2.143   2.062   0.000  0.00  0.00    +0.000 S 
ATOM     42  O   UNL     1       2.143   2.888   0.000  0.00  0.00    +0.000 OA
ATOM     43  O   UNL     1       2.968   2.062   0.000  0.00  0.00    +0.000 OA
ATOM     44  C   UNL     1       1.318   2.062   0.000  0.00  0.00    +0.000 C 
ENDBRANCH  40  41
ENDBRANCH  37  40
ENDBRANCH  31  33
ENDBRANCH  30  31
ENDBRANCH  29  30
ENDBRANCH  27  29
ENDBRANCH  25  27
ENDBRANCH   1  25
TORSDOF 13
