REMARK  Name = 
REMARK  5 active torsions:
REMARK  status: ('A' for Active; 'I' for Inactive)
REMARK    1  A    between atoms: C_3  and  C_5
REMARK    2  A    between atoms: C_8  and  N_10
REMARK    3  A    between atoms: C_18  and  N_19
REMARK    4  A    between atoms: N_19  and  C_20
REMARK    5  A    between atoms: C_20  and  C_21
REMARK                            x       y       z     vdW  Elec       q    Type
REMARK                         _______ _______ _______ _____ _____    ______ ____
ROOT
ATOM      1  N   UNL     1      -0.143  -0.030   0.000  0.00  0.00    +0.000 N 
ATOM      2  C   UNL     1      -0.628  -0.698   0.000  0.00  0.00    +0.000 A 
ATOM      3  N   UNL     1      -0.143  -1.365   0.000  0.00  0.00    +0.000 NA
ATOM      4  C   UNL     1       0.641  -1.110   0.000  0.00  0.00    +0.000 A 
ATOM      5  C   UNL     1       0.641  -0.285   0.000  0.00  0.00    +0.000 A 
ATOM      6  N   UNL     1       1.356   0.127   0.000  0.00  0.00    +0.000 NA
ATOM      7  C   UNL     1       2.070  -0.285   0.000  0.00  0.00    +0.000 A 
ATOM      8  N   UNL     1       2.070  -1.110   0.000  0.00  0.00    +0.000 NA
ATOM      9  C   UNL     1       1.356  -1.523   0.000  0.00  0.00    +0.000 A 
ATOM     10 CL   UNL     1       2.784   0.127   0.000  0.00  0.00    +0.000 Cl
ENDROOT
BRANCH   1  14
ATOM     11  C   UNL     1      -1.183   1.834   0.000  0.00  0.00    +0.000 C 
ATOM     12  C   UNL     1      -0.398   2.089   0.000  0.00  0.00    +0.000 C 
ATOM     13  C   UNL     1       0.086   1.422   0.000  0.00  0.00    +0.000 C 
ATOM     14  C   UNL     1      -0.398   0.754   0.000  0.00  0.00    +0.000 C 
ATOM     15  O   UNL     1      -1.183   1.009   0.000  0.00  0.00    +0.000 OA
ATOM     16  O   UNL     1       0.911   1.422   0.000  0.00  0.00    +0.000 OA
ATOM     17  O   UNL     1      -0.143   2.874   0.000  0.00  0.00    +0.000 OA
BRANCH  11  20
ATOM     18  C   UNL     1      -2.432   3.624   0.000  0.00  0.00    +0.000 C 
ATOM     19  N   UNL     1      -1.764   3.139   0.000  0.00  0.00    +0.000 NA
ATOM     20  C   UNL     1      -1.851   2.319   0.000  0.00  0.00    +0.000 C 
ATOM     21  O   UNL     1      -2.604   1.983   0.000  0.00  0.00    +0.000 OA
ENDBRANCH  11  20
ENDBRANCH   1  14
BRANCH   9  22
ATOM     22  N   UNL     1       1.356  -2.348   0.000  0.00  0.00    +0.000 NA
BRANCH  22  23
ATOM     23  C   UNL     1       2.070  -2.760   0.000  0.00  0.00    +0.000 C 
BRANCH  23  24
ATOM     24  C   UNL     1       2.070  -3.585   0.000  0.00  0.00    +0.000 A 
ATOM     25  C   UNL     1       2.784  -3.998   0.000  0.00  0.00    +0.000 A 
ATOM     26  C   UNL     1       2.784  -4.823   0.000  0.00  0.00    +0.000 A 
ATOM     27  C   UNL     1       2.070  -5.235   0.000  0.00  0.00    +0.000 A 
ATOM     28  C   UNL     1       1.356  -4.823   0.000  0.00  0.00    +0.000 A 
ATOM     29  C   UNL     1       1.356  -3.998   0.000  0.00  0.00    +0.000 A 
ATOM     30  I   UNL     1       0.641  -5.235   0.000  0.00  0.00    +0.000 I 
ENDBRANCH  23  24
ENDBRANCH  22  23
ENDBRANCH   9  22
TORSDOF 5
