REMARK  Name = 
REMARK  2 active torsions:
REMARK  status: ('A' for Active; 'I' for Inactive)
REMARK    1  A    between atoms: C_1  and  C_6
REMARK    2  A    between atoms: C_6  and  C_7
REMARK                            x       y       z     vdW  Elec       q    Type
REMARK                         _______ _______ _______ _____ _____    ______ ____
ROOT
ATOM      1  C   UNL     1       0.061   0.123   0.000  0.00  0.00    +0.000 A 
ATOM      2  C   UNL     1       0.776  -0.290   0.000  0.00  0.00    +0.000 A 
ATOM      3  C   UNL     1       0.776  -1.115   0.000  0.00  0.00    +0.000 A 
ATOM      4  C   UNL     1       0.061  -1.527   0.000  0.00  0.00    +0.000 A 
ATOM      5  C   UNL     1      -0.653  -1.115   0.000  0.00  0.00    +0.000 A 
ATOM      6  C   UNL     1      -1.367  -1.527   0.000  0.00  0.00    +0.000 A 
ATOM      7  C   UNL     1      -2.082  -1.115   0.000  0.00  0.00    +0.000 A 
ATOM      8  C   UNL     1      -2.082  -0.290   0.000  0.00  0.00    +0.000 A 
ATOM      9  C   UNL     1      -1.367   0.123   0.000  0.00  0.00    +0.000 A 
ATOM     10  C   UNL     1      -0.653  -0.290   0.000  0.00  0.00    +0.000 A 
ATOM     11 CL   UNL     1       0.061  -2.352   0.000  0.00  0.00    +0.000 Cl
ENDROOT
BRANCH   1  12
ATOM     12  C   UNL     1       0.061   0.948   0.000  0.00  0.00    +0.000 C 
BRANCH  12  13
ATOM     13  C   UNL     1       0.776   1.360   0.000  0.00  0.00    +0.000 C 
ATOM     14  N   UNL     1       0.862   2.181   0.000  0.00  0.00    +0.000 NA
ATOM     15  C   UNL     1       1.669   2.352   0.000  0.00  0.00    +0.000 C 
ATOM     16  C   UNL     1       2.082   1.638   0.000  0.00  0.00    +0.000 C 
ATOM     17  N   UNL     1       1.530   1.025   0.000  0.00  0.00    +0.000 NA
ENDBRANCH  12  13
ENDBRANCH   1  12
TORSDOF 2
