REMARK  Name = 
REMARK  0 active torsions:
REMARK  status: ('A' for Active; 'I' for Inactive)
REMARK                            x       y       z     vdW  Elec       q    Type
REMARK                         _______ _______ _______ _____ _____    ______ ____
ROOT
ATOM      1  C   UNL     1       0.000   0.000   0.000  0.00  0.00    +0.000 C 
ATOM      2  C   UNL     1      -0.485  -0.667   0.000  0.00  0.00    +0.000 C 
ATOM      3  C   UNL     1       0.000  -1.335   0.000  0.00  0.00    +0.000 C 
ATOM      4  O   UNL     1      -0.255  -2.119   0.000  0.00  0.00    +0.000 OA
ATOM      5  N   UNL     1       0.785  -1.080   0.000  0.00  0.00    +0.000 N 
ATOM      6  C   UNL     1       0.785  -0.255   0.000  0.00  0.00    +0.000 C 
ATOM      7  N   UNL     1       1.569   0.000   0.000  0.00  0.00    +0.000 NA
ATOM      8  C   UNL     1       2.054  -0.667   0.000  0.00  0.00    +0.000 C 
ATOM      9  O   UNL     1       2.879  -0.667   0.000  0.00  0.00    +0.000 OA
ATOM     10  C   UNL     1       1.569  -1.335   0.000  0.00  0.00    +0.000 C 
ENDROOT
TORSDOF 0
