REMARK  Name = 
REMARK  11 active torsions:
REMARK  status: ('A' for Active; 'I' for Inactive)
REMARK    1  A    between atoms: O_5  and  N_10
REMARK    2  A    between atoms: O_5  and  C_26
REMARK    3  A    between atoms: N_6  and  C_14
REMARK    4  A    between atoms: N_6  and  C_15
REMARK    5  A    between atoms: N_7  and  C_24
REMARK    6  A    between atoms: C_13  and  C_17
REMARK    7  A    between atoms: C_14  and  C_16
REMARK    8  A    between atoms: C_16  and  C_22
REMARK    9  A    between atoms: C_17  and  C_23
REMARK   10  A    between atoms: C_19  and  C_27
REMARK   11  A    between atoms: C_24  and  C_26
REMARK                            x       y       z     vdW  Elec       q    Type
REMARK                         _______ _______ _______ _____ _____    ______ ____
ROOT
ATOM      1  F   UNL     1      -1.293  -0.747   0.000  0.00  0.00    +0.000 F 
ATOM      2  C   UNL     1       0.136  -0.747   0.000  0.00  0.00    +0.000 A 
ATOM      3  C   UNL     1      -0.579  -1.984   0.000  0.00  0.00    +0.000 A 
ATOM      4  C   UNL     1      -0.579  -1.159   0.000  0.00  0.00    +0.000 A 
ATOM      5  C   UNL     1       0.850  -1.159   0.000  0.00  0.00    +0.000 A 
ATOM      6  C   UNL     1       0.136  -2.397   0.000  0.00  0.00    +0.000 A 
ATOM      7  C   UNL     1       0.850  -1.984   0.000  0.00  0.00    +0.000 A 
ENDROOT
BRANCH   3   8
ATOM      8  N   UNL     1      -1.293  -2.397   0.000  0.00  0.00    +0.000 N 
ATOM      9  H   UNL     1      -1.736  -2.141   0.000  0.00  0.00    +0.000 HD
BRANCH   8  10
ATOM     10  C   UNL     1      -1.293  -3.222   0.000  0.00  0.00    +0.000 C 
BRANCH  10  13
ATOM     11  F   UNL     1      -2.420  -2.920   0.000  0.00  0.00    +0.000 F 
ATOM     12  F   UNL     1      -1.595  -4.349   0.000  0.00  0.00    +0.000 F 
ATOM     13  C   UNL     1      -2.008  -3.634   0.000  0.00  0.00    +0.000 C 
BRANCH  13  15
ATOM     14  N   UNL     1      -2.722  -4.872   0.000  0.00  0.00    +0.000 NA
ATOM     15  C   UNL     1      -2.722  -4.047   0.000  0.00  0.00    +0.000 A 
ATOM     16  C   UNL     1      -3.437  -3.634   0.000  0.00  0.00    +0.000 A 
ATOM     17  C   UNL     1      -4.151  -4.047   0.000  0.00  0.00    +0.000 A 
ATOM     18  C   UNL     1      -3.437  -5.284   0.000  0.00  0.00    +0.000 A 
ATOM     19  C   UNL     1      -4.151  -4.872   0.000  0.00  0.00    +0.000 A 
ENDBRANCH  13  15
ENDBRANCH  10  13
ENDBRANCH   8  10
ENDBRANCH   3   8
BRANCH   5  21
ATOM     20  N   UNL     1       2.279  -0.334   0.000  0.00  0.00    +0.000 NA
ATOM     21  C   UNL     1       1.565  -0.747   0.000  0.00  0.00    +0.000 C 
ENDBRANCH   5  21
BRANCH   2  22
ATOM     22  C   UNL     1       0.136   0.078   0.000  0.00  0.00    +0.000 C 
BRANCH  22  25
ATOM     23  O   UNL     1       1.565   0.078   0.000  0.00  0.00    +0.000 OA
ATOM     24  N   UNL     1       0.850   1.316   0.000  0.00  0.00    +0.000 N 
ATOM     25  C   UNL     1       0.850   0.491   0.000  0.00  0.00    +0.000 C 
ATOM     26  H   UNL     1       0.407   1.572   0.000  0.00  0.00    +0.000 HD
BRANCH  24  27
ATOM     27  C   UNL     1       1.565   1.728   0.000  0.00  0.00    +0.000 C 
BRANCH  27  28
ATOM     28  C   UNL     1       1.565   2.553   0.000  0.00  0.00    +0.000 C 
BRANCH  28  29
ATOM     29  O   UNL     1       2.279   2.966   0.000  0.00  0.00    +0.000 OA
BRANCH  29  30
ATOM     30  N   UNL     1       2.279   3.791   0.000  0.00  0.00    +0.000 NA
ATOM     31  N   UNL     1       3.708   3.791   0.000  0.00  0.00    +0.000 N 
ATOM     32  N   UNL     1       2.994   5.028   0.000  0.00  0.00    +0.000 N 
ATOM     33  C   UNL     1       2.994   4.203   0.000  0.00  0.00    +0.000 C 
ATOM     34  H   UNL     1       3.708   3.279   0.000  0.00  0.00    +0.000 HD
ATOM     35  H   UNL     1       4.151   4.047   0.000  0.00  0.00    +0.000 HD
ATOM     36  H   UNL     1       2.551   5.284   0.000  0.00  0.00    +0.000 HD
ATOM     37  H   UNL     1       3.437   5.284   0.000  0.00  0.00    +0.000 HD
ENDBRANCH  29  30
ENDBRANCH  28  29
ENDBRANCH  27  28
ENDBRANCH  24  27
ENDBRANCH  22  25
ENDBRANCH   2  22
TORSDOF 11
