REMARK  Name = 
REMARK  1 active torsions:
REMARK  status: ('A' for Active; 'I' for Inactive)
REMARK    1  A    between atoms: C_8  and  C_11
REMARK                            x       y       z     vdW  Elec       q    Type
REMARK                         _______ _______ _______ _____ _____    ______ ____
ROOT
ATOM      1  C   UNL     1       2.784   0.698   0.000  0.00  0.00    +0.000 C 
ATOM      2  C   UNL     1       2.070   1.110   0.000  0.00  0.00    +0.000 A 
ATOM      3  C   UNL     1       1.356   0.698   0.000  0.00  0.00    +0.000 A 
ATOM      4  C   UNL     1       0.641   1.110   0.000  0.00  0.00    +0.000 A 
ATOM      5  C   UNL     1       0.641   1.935   0.000  0.00  0.00    +0.000 A 
ATOM      6  C   UNL     1       1.356   2.348   0.000  0.00  0.00    +0.000 A 
ATOM      7  N   UNL     1       2.070   1.935   0.000  0.00  0.00    +0.000 NA
ATOM      8  C   UNL     1      -0.143   2.190   0.000  0.00  0.00    +0.000 C 
ATOM      9  O   UNL     1      -0.628   1.523   0.000  0.00  0.00    +0.000 OA
ATOM     10  C   UNL     1      -0.143   0.856   0.000  0.00  0.00    +0.000 C 
ATOM     11  O   UNL     1       1.356  -0.127   0.000  0.00  0.00    +0.000 OA
ENDROOT
BRANCH   8  12
ATOM     12  C   UNL     1      -0.398   2.975   0.000  0.00  0.00    +0.000 A 
ATOM     13  C   UNL     1      -1.205   3.147   0.000  0.00  0.00    +0.000 A 
ATOM     14  C   UNL     1      -1.460   3.931   0.000  0.00  0.00    +0.000 A 
ATOM     15  C   UNL     1      -0.908   4.544   0.000  0.00  0.00    +0.000 A 
ATOM     16  C   UNL     1      -0.101   4.373   0.000  0.00  0.00    +0.000 A 
ATOM     17  C   UNL     1       0.154   3.588   0.000  0.00  0.00    +0.000 A 
ATOM     18 CL   UNL     1      -1.163   5.329   0.000  0.00  0.00    +0.000 Cl
ENDBRANCH   8  12
TORSDOF 1
