REMARK  Name = 
REMARK  6 active torsions:
REMARK  status: ('A' for Active; 'I' for Inactive)
REMARK    1  A    between atoms: N_2  and  C_8
REMARK    2  A    between atoms: C_8  and  C_9
REMARK    3  A    between atoms: C_9  and  C_10
REMARK    4  A    between atoms: C_10  and  C_11
REMARK    5  A    between atoms: C_10  and  C_17
REMARK    6  A    between atoms: C_10  and  C_23
REMARK                            x       y       z     vdW  Elec       q    Type
REMARK                         _______ _______ _______ _____ _____    ______ ____
ROOT
ATOM      1  C   UNL     1       4.187   2.872   0.000  0.00  0.00    +0.000 C 
ENDROOT
BRANCH   1   2
ATOM      2  C   UNL     1       4.819   2.341   0.000  0.00  0.00    +0.000 A 
ATOM      3  C   UNL     1       5.595   2.623   0.000  0.00  0.00    +0.000 A 
ATOM      4  C   UNL     1       6.227   2.093   0.000  0.00  0.00    +0.000 A 
ATOM      5  C   UNL     1       6.083   1.281   0.000  0.00  0.00    +0.000 A 
ATOM      6  C   UNL     1       5.308   0.998   0.000  0.00  0.00    +0.000 A 
ATOM      7  C   UNL     1       4.676   1.529   0.000  0.00  0.00    +0.000 A 
ENDBRANCH   1   2
BRANCH   1   8
ATOM      8  C   UNL     1       4.718   3.503   0.000  0.00  0.00    +0.000 A 
ATOM      9  C   UNL     1       4.436   4.279   0.000  0.00  0.00    +0.000 A 
ATOM     10  C   UNL     1       4.966   4.911   0.000  0.00  0.00    +0.000 A 
ATOM     11  C   UNL     1       5.778   4.768   0.000  0.00  0.00    +0.000 A 
ATOM     12  C   UNL     1       6.061   3.992   0.000  0.00  0.00    +0.000 A 
ATOM     13  C   UNL     1       5.530   3.360   0.000  0.00  0.00    +0.000 A 
ENDBRANCH   1   8
BRANCH   1  14
ATOM     14  C   UNL     1       3.555   3.402   0.000  0.00  0.00    +0.000 C 
ATOM     15  O   UNL     1       3.699   4.214   0.000  0.00  0.00    +0.000 OA
ATOM     16  N   UNL     1       2.780   3.120   0.000  0.00  0.00    +0.000 NA
ENDBRANCH   1  14
BRANCH   1  17
ATOM     17  C   UNL     1       3.657   2.240   0.000  0.00  0.00    +0.000 C 
BRANCH  17  18
ATOM     18  C   UNL     1       3.939   1.464   0.000  0.00  0.00    +0.000 C 
BRANCH  18  20
ATOM     19  C   UNL     1       2.879   1.464   0.000  0.00  0.00    +0.000 C 
ATOM     20  N   UNL     1       3.409   0.832   0.000  0.00  0.00    +0.000 N 
ATOM     21  C   UNL     1       4.123   0.420   0.000  0.00  0.00    +0.000 C 
ATOM     22  C   UNL     1       4.123  -0.405   0.000  0.00  0.00    +0.000 C 
ATOM     23  C   UNL     1       3.409  -0.818   0.000  0.00  0.00    +0.000 C 
ATOM     24  C   UNL     1       2.695  -0.405   0.000  0.00  0.00    +0.000 C 
ATOM     25  C   UNL     1       2.695   0.420   0.000  0.00  0.00    +0.000 C 
ENDBRANCH  18  20
ENDBRANCH  17  18
ENDBRANCH   1  17
TORSDOF 6
