REMARK  Name = 
REMARK  6 active torsions:
REMARK  status: ('A' for Active; 'I' for Inactive)
REMARK    1  A    between atoms: P_1  and  O_4
REMARK    2  A    between atoms: O_4  and  C_15
REMARK    3  A    between atoms: C_12  and  C_13
REMARK    4  A    between atoms: C_12  and  C_14
REMARK    5  A    between atoms: C_13  and  C_15
REMARK    6  A    between atoms: C_14  and  C_16
REMARK                            x       y       z     vdW  Elec       q    Type
REMARK                         _______ _______ _______ _____ _____    ______ ____
ROOT
ATOM      1  O   UNL     1       0.357  -1.031   0.000  0.00  0.00    +0.000 OA
ATOM      2  C   UNL     1       0.357  -0.206   0.000  0.00  0.00    +0.000 C 
ENDROOT
BRANCH   2   4
ATOM      3  O   UNL     1      -0.357   1.031   0.000  0.00  0.00    +0.000 OA
ATOM      4  C   UNL     1      -0.357   0.206   0.000  0.00  0.00    +0.000 C 
BRANCH   4   5
ATOM      5  C   UNL     1      -1.072  -0.206   0.000  0.00  0.00    +0.000 C 
BRANCH   5   6
ATOM      6  O   UNL     1      -1.786   0.206   0.000  0.00  0.00    +0.000 OA
BRANCH   6   7
ATOM      7  P   UNL     1      -2.501  -0.206   0.000  0.00  0.00    +0.000 P 
ATOM      8  O   UNL     1      -3.215  -0.619   0.000  0.00  0.00    +0.000 OA
ATOM      9  O   UNL     1      -2.913   0.508   0.000  0.00  0.00    +0.000 OA
ATOM     10  O   UNL     1      -2.088  -0.921   0.000  0.00  0.00    +0.000 OA
ENDBRANCH   6   7
ENDBRANCH   5   6
ENDBRANCH   4   5
ENDBRANCH   2   4
BRANCH   2  12
ATOM     11  O   UNL     1       1.072   1.031   0.000  0.00  0.00    +0.000 OA
ATOM     12  C   UNL     1       1.072   0.206   0.000  0.00  0.00    +0.000 C 
BRANCH  12  16
ATOM     13  O   UNL     1       1.786  -1.031   0.000  0.00  0.00    +0.000 OA
ATOM     14  O   UNL     1       3.215  -0.206   0.000  0.00  0.00    +0.000 OA
ATOM     15  N   UNL     1       2.501   0.206   0.000  0.00  0.00    +0.000 N 
ATOM     16  C   UNL     1       1.786  -0.206   0.000  0.00  0.00    +0.000 C 
ATOM     17  H   UNL     1       2.501   0.718   0.000  0.00  0.00    +0.000 HD
ENDBRANCH  12  16
ENDBRANCH   2  12
TORSDOF 6
