REMARK  Name = 
REMARK  2 active torsions:
REMARK  status: ('A' for Active; 'I' for Inactive)
REMARK    1  A    between atoms: C_1  and  C_2
REMARK    2  A    between atoms: C_1  and  C_6
REMARK                            x       y       z     vdW  Elec       q    Type
REMARK                         _______ _______ _______ _____ _____    ______ ____
ROOT
ATOM      1  C   UNL     1      -0.355   0.000   0.000  0.00  0.00    +0.000 C 
ATOM      2  N   UNL     1      -1.069   0.413   0.000  0.00  0.00    +0.000 NA
ENDROOT
BRANCH   1   3
ATOM      3  C   UNL     1       0.359   0.413   0.000  0.00  0.00    +0.000 C 
ATOM      4  O   UNL     1       0.359   1.238   0.000  0.00  0.00    +0.000 OA
ATOM      5  N   UNL     1       1.073   0.000   0.000  0.00  0.00    +0.000 NA
ENDBRANCH   1   3
BRANCH   1   6
ATOM      6  C   UNL     1      -0.355  -0.825   0.000  0.00  0.00    +0.000 C 
ATOM      7  S   UNL     1      -1.073  -1.238   0.000  0.00  0.00    +0.000 S 
ENDBRANCH   1   6
TORSDOF 2
