REMARK  Name = 
REMARK  33 active torsions:
REMARK  status: ('A' for Active; 'I' for Inactive)
REMARK    1  A    between atoms: C_1  and  C_2
REMARK    2  A    between atoms: C_1  and  C_5
REMARK    3  A    between atoms: C_2  and  C_3
REMARK    4  A    between atoms: C_3  and  C_14
REMARK    5  A    between atoms: C_4  and  C_5
REMARK    6  A    between atoms: C_4  and  C_7
REMARK    7  A    between atoms: C_6  and  C_7
REMARK    8  A    between atoms: C_6  and  C_8
REMARK    9  A    between atoms: C_8  and  C_9
REMARK   10  A    between atoms: C_9  and  C_10
REMARK   11  A    between atoms: C_9  and  N_12
REMARK   12  A    between atoms: C_14  and  C_15
REMARK   13  A    between atoms: C_15  and  C_16
REMARK   14  A    between atoms: C_16  and  C_17
REMARK   15  A    between atoms: C_17  and  C_18
REMARK   16  A    between atoms: C_18  and  C_19
REMARK   17  A    between atoms: C_19  and  C_20
REMARK   18  A    between atoms: C_22  and  C_24
REMARK   19  A    between atoms: C_24  and  C_25
REMARK   20  A    between atoms: C_25  and  C_26
REMARK   21  A    between atoms: C_26  and  C_27
REMARK   22  A    between atoms: C_27  and  C_28
REMARK   23  A    between atoms: C_28  and  C_29
REMARK   24  A    between atoms: C_29  and  C_30
REMARK   25  A    between atoms: C_30  and  C_31
REMARK   26  A    between atoms: C_31  and  C_32
REMARK   27  A    between atoms: C_32  and  C_33
REMARK   28  A    between atoms: C_33  and  C_34
REMARK   29  A    between atoms: C_34  and  C_35
REMARK   30  A    between atoms: C_35  and  C_36
REMARK   31  A    between atoms: C_36  and  C_37
REMARK   32  A    between atoms: C_37  and  C_38
REMARK   33  A    between atoms: C_38  and  C_39
REMARK                            x       y       z     vdW  Elec       q    Type
REMARK                         _______ _______ _______ _____ _____    ______ ____
ROOT
ATOM      1  C   UNK A   1       5.358   0.825   0.000  0.00  0.00    +0.000 C 
ENDROOT
BRANCH   1   2
ATOM      2  N   UNK A   1       5.358   0.000   0.000  0.00  0.00    +0.000 NA
ATOM      3  C   UNK A   0       5.358  -0.825   0.000  0.00  0.00    +0.000 C 
ATOM      4  O   UNK A   0       6.073  -1.237   0.000  0.00  0.00    +0.000 OA
BRANCH   3   5
ATOM      5  C   UNK A   0       4.644  -1.237   0.000  0.00  0.00    +0.000 C 
ATOM      6  O   UNK A   0       4.644  -2.062   0.000  0.00  0.00    +0.000 OA
BRANCH   5   7
ATOM      7  C   UNK A   0       3.929  -0.825   0.000  0.00  0.00    +0.000 C 
BRANCH   7   8
ATOM      8  C   UNK A   0       3.215  -1.237   0.000  0.00  0.00    +0.000 C 
BRANCH   8   9
ATOM      9  C   UNK A   0       2.501  -0.825   0.000  0.00  0.00    +0.000 C 
BRANCH   9  10
ATOM     10  C   UNK A   0       1.786  -1.237   0.000  0.00  0.00    +0.000 C 
BRANCH  10  11
ATOM     11  C   UNK A   0       1.072  -0.825   0.000  0.00  0.00    +0.000 C 
BRANCH  11  12
ATOM     12  C   UNK A   0       0.357  -1.237   0.000  0.00  0.00    +0.000 C 
BRANCH  12  13
ATOM     13  C   UNK A   0      -0.357  -0.825   0.000  0.00  0.00    +0.000 C 
BRANCH  13  14
ATOM     14  C   UNK A   0      -1.072  -1.237   0.000  0.00  0.00    +0.000 C 
BRANCH  14  15
ATOM     15  C   UNK A   0      -1.786  -0.825   0.000  0.00  0.00    +0.000 C 
BRANCH  15  16
ATOM     16  C   UNK A   0      -2.501  -1.237   0.000  0.00  0.00    +0.000 C 
BRANCH  16  17
ATOM     17  C   UNK A   0      -3.215  -0.825   0.000  0.00  0.00    +0.000 C 
BRANCH  17  18
ATOM     18  C   UNK A   0      -3.929  -1.237   0.000  0.00  0.00    +0.000 C 
BRANCH  18  19
ATOM     19  C   UNK A   0      -4.644  -0.825   0.000  0.00  0.00    +0.000 C 
BRANCH  19  20
ATOM     20  C   UNK A   0      -5.358  -1.237   0.000  0.00  0.00    +0.000 C 
BRANCH  20  21
ATOM     21  C   UNK A   0      -6.073  -0.825   0.000  0.00  0.00    +0.000 C 
ATOM     22  C   UNK A   0      -6.787  -1.237   0.000  0.00  0.00    +0.000 C 
ENDBRANCH  20  21
ENDBRANCH  19  20
ENDBRANCH  18  19
ENDBRANCH  17  18
ENDBRANCH  16  17
ENDBRANCH  15  16
ENDBRANCH  14  15
ENDBRANCH  13  14
ENDBRANCH  12  13
ENDBRANCH  11  12
ENDBRANCH  10  11
ENDBRANCH   9  10
ENDBRANCH   8   9
ENDBRANCH   7   8
ENDBRANCH   5   7
ENDBRANCH   3   5
ENDBRANCH   1   2
BRANCH   1  23
ATOM     23  C   UNK A   1       6.073   1.238   0.000  0.00  0.00    +0.000 C 
ATOM     24  O   UNK A   1       6.787   0.825   0.000  0.00  0.00    +0.000 OA
ENDBRANCH   1  23
BRANCH   1  25
ATOM     25  C   UNK A   1       4.644   1.238   0.000  0.00  0.00    +0.000 C 
ATOM     26  O   UNK A   1       4.644   2.062   0.000  0.00  0.00    +0.000 OA
BRANCH  25  27
ATOM     27  C   UNK A   1       3.929   0.825   0.000  0.00  0.00    +0.000 C 
ATOM     28  O   UNK A   1       3.929   0.000   0.000  0.00  0.00    +0.000 OA
BRANCH  27  29
ATOM     29  C   UNK A   1       3.215   1.238   0.000  0.00  0.00    +0.000 C 
BRANCH  29  30
ATOM     30  C   UNK A   1       2.501   0.825   0.000  0.00  0.00    +0.000 C 
BRANCH  30  31
ATOM     31  C   UNK A   1       1.786   1.238   0.000  0.00  0.00    +0.000 C 
BRANCH  31  32
ATOM     32  C   UNK A   1       1.072   0.825   0.000  0.00  0.00    +0.000 C 
BRANCH  32  33
ATOM     33  C   UNK A   1       0.357   1.238   0.000  0.00  0.00    +0.000 C 
BRANCH  33  34
ATOM     34  C   UNK A   1      -0.357   0.825   0.000  0.00  0.00    +0.000 C 
BRANCH  34  35
ATOM     35  C   UNK A   1      -1.072   1.238   0.000  0.00  0.00    +0.000 C 
BRANCH  35  36
ATOM     36  C   UNK A   1      -1.786   0.825   0.000  0.00  0.00    +0.000 C 
BRANCH  36  37
ATOM     37  C   UNK A   1      -2.500   1.238   0.000  0.00  0.00    +0.000 C 
BRANCH  37  38
ATOM     38  C   UNK A   1      -3.215   0.825   0.000  0.00  0.00    +0.000 C 
BRANCH  38  39
ATOM     39  C   UNK A   1      -3.929   1.237   0.000  0.00  0.00    +0.000 C 
BRANCH  39  40
ATOM     40  C   UNK A   1      -4.644   0.825   0.000  0.00  0.00    +0.000 C 
BRANCH  40  41
ATOM     41  C   UNK A   1      -5.358   1.237   0.000  0.00  0.00    +0.000 C 
ATOM     42  C   UNK A   1      -6.073   0.825   0.000  0.00  0.00    +0.000 C 
ENDBRANCH  40  41
ENDBRANCH  39  40
ENDBRANCH  38  39
ENDBRANCH  37  38
ENDBRANCH  36  37
ENDBRANCH  35  36
ENDBRANCH  34  35
ENDBRANCH  33  34
ENDBRANCH  32  33
ENDBRANCH  31  32
ENDBRANCH  30  31
ENDBRANCH  29  30
ENDBRANCH  27  29
ENDBRANCH  25  27
ENDBRANCH   1  25
TORSDOF 33
