REMARK  Name = 
REMARK  16 active torsions:
REMARK  status: ('A' for Active; 'I' for Inactive)
REMARK    1  A    between atoms: C_2  and  C_3
REMARK    2  A    between atoms: C_3  and  C_4
REMARK    3  A    between atoms: C_4  and  C_5
REMARK    4  A    between atoms: C_5  and  C_45
REMARK    5  A    between atoms: N_7  and  C_39
REMARK    6  A    between atoms: C_10  and  S_37
REMARK    7  A    between atoms: C_11  and  O_18
REMARK    8  A    between atoms: O_18  and  C_19
REMARK    9  A    between atoms: C_19  and  C_20
REMARK   10  A    between atoms: N_22  and  C_23
REMARK   11  A    between atoms: C_23  and  C_24
REMARK   12  A    between atoms: C_23  and  C_30
REMARK   13  A    between atoms: N_32  and  CA_33
REMARK   14  A    between atoms: CA_33  and  C_34
REMARK   15  A    between atoms: C_45  and  C_46
REMARK   16  A    between atoms: C_46  and  C_47
REMARK                            x       y       z     vdW  Elec       q    Type
REMARK                         _______ _______ _______ _____ _____    ______ ____
ROOT
ATOM      1  C   UNK A   0      -1.622   3.979   0.000  0.00  0.00    +0.000 C 
ATOM      2  C   UNK A   0      -1.264   4.722   0.000  0.00  0.00    +0.000 C 
ATOM      3  N   UNK A   0      -0.460   4.906   0.000  0.00  0.00    +0.000 N 
ATOM      4  C   UNK A   0       0.185   4.391   0.000  0.00  0.00    +0.000 A 
ATOM      5  C   UNK A   0       0.899   4.804   0.000  0.00  0.00    +0.000 A 
ATOM      6  C   UNK A   0       1.614   4.391   0.000  0.00  0.00    +0.000 A 
ATOM      7  C   UNK A   0       1.614   3.566   0.000  0.00  0.00    +0.000 A 
ATOM      8  C   UNK A   0       0.899   3.154   0.000  0.00  0.00    +0.000 A 
ATOM      9  C   UNK A   0       0.185   3.566   0.000  0.00  0.00    +0.000 A 
ATOM     10  S   UNK A   0      -0.460   3.052   0.000  0.00  0.00    +0.000 S 
ATOM     11  O   UNK A   0       0.185   2.537   0.000  0.00  0.00    +0.000 OA
ATOM     12  O   UNK A   0      -0.818   2.308   0.000  0.00  0.00    +0.000 OA
ATOM     13  C   UNK A   0      -1.264   3.235   0.000  0.00  0.00    +0.000 C 
ENDROOT
BRANCH   3  14
ATOM     14  C   UNK A   0      -0.276   5.710   0.000  0.00  0.00    +0.000 A 
ATOM     15  C   UNK A   0      -0.881   6.271   0.000  0.00  0.00    +0.000 A 
ATOM     16  C   UNK A   0      -0.698   7.075   0.000  0.00  0.00    +0.000 A 
ATOM     17  C   UNK A   0       0.091   7.319   0.000  0.00  0.00    +0.000 A 
ATOM     18  C   UNK A   0       0.696   6.757   0.000  0.00  0.00    +0.000 A 
ATOM     19  C   UNK A   0       0.512   5.953   0.000  0.00  0.00    +0.000 A 
ENDBRANCH   3  14
BRANCH   6  20
ATOM     20  S   UNK A   0       2.328   4.804   0.000  0.00  0.00    +0.000 S 
ATOM     21  C   UNK A   0       3.043   4.391   0.000  0.00  0.00    +0.000 C 
ENDBRANCH   6  20
BRANCH   7  22
ATOM     22  O   UNK A   0       2.328   3.154   0.000  0.00  0.00    +0.000 OA
BRANCH  22  23
ATOM     23  C   UNK A   0       3.043   3.566   0.000  0.00  0.00    +0.000 C 
BRANCH  23  24
ATOM     24  C   UNK A   0       3.757   3.154   0.000  0.00  0.00    +0.000 C 
ATOM     25  O   UNK A   0       3.757   2.329   0.000  0.00  0.00    +0.000 OA
ATOM     26  N   UNK A   1       4.472   3.566   0.000  0.00  0.00    +0.000 NA
BRANCH  26  27
ATOM     27  C   UNK A   1       5.186   3.154   0.000  0.00  0.00    +0.000 C 
BRANCH  27  28
ATOM     28  C   UNK A   1       5.186   2.329   0.000  0.00  0.00    +0.000 A 
ATOM     29  C   UNK A   1       5.901   1.916   0.000  0.00  0.00    +0.000 A 
ATOM     30  C   UNK A   1       5.901   1.091   0.000  0.00  0.00    +0.000 A 
ATOM     31  C   UNK A   1       5.186   0.679   0.000  0.00  0.00    +0.000 A 
ATOM     32  C   UNK A   1       4.472   1.091   0.000  0.00  0.00    +0.000 A 
ATOM     33  C   UNK A   1       4.472   1.916   0.000  0.00  0.00    +0.000 A 
ENDBRANCH  27  28
BRANCH  27  34
ATOM     34  C   UNK A   1       5.901   3.566   0.000  0.00  0.00    +0.000 C 
ATOM     35  O   UNK A   1       5.901   4.391   0.000  0.00  0.00    +0.000 OA
ATOM     36  N   GLY A   2       6.615   3.154   0.000  0.00  0.00    +0.000 NA
BRANCH  36  37
ATOM     37  CA  GLY A   2       7.330   3.566   0.000  0.00  0.00    +0.000 C 
BRANCH  37  38
ATOM     38  C   GLY A   2       8.044   3.154   0.000  0.00  0.00    +0.000 C 
ATOM     39  O   GLY A   2       8.759   3.566   0.000  0.00  0.00    +0.000 OA
ATOM     40  OXT GLY A   2       8.044   2.329   0.000  0.00  0.00    +0.000 OA
ENDBRANCH  37  38
ENDBRANCH  36  37
ENDBRANCH  27  34
ENDBRANCH  26  27
ENDBRANCH  23  24
ENDBRANCH  22  23
ENDBRANCH   7  22
BRANCH   1  41
ATOM     41  C   UNK A   0      -2.267   3.464   0.000  0.00  0.00    +0.000 C 
BRANCH  41  42
ATOM     42  C   UNK A   0      -2.144   2.648   0.000  0.00  0.00    +0.000 C 
BRANCH  42  44
ATOM     43  C   UNK A   0      -2.666   1.318   0.000  0.00  0.00    +0.000 C 
ATOM     44  C   UNK A   0      -2.789   2.134   0.000  0.00  0.00    +0.000 C 
ENDBRANCH  42  44
ENDBRANCH  41  42
ENDBRANCH   1  41
BRANCH   1  45
ATOM     45  C   UNK A   0      -2.267   4.493   0.000  0.00  0.00    +0.000 C 
BRANCH  45  46
ATOM     46  C   UNK A   0      -2.144   5.309   0.000  0.00  0.00    +0.000 C 
BRANCH  46  47
ATOM     47  C   UNK A   0      -2.789   5.823   0.000  0.00  0.00    +0.000 C 
ATOM     48  C   UNK A   0      -2.666   6.639   0.000  0.00  0.00    +0.000 C 
ENDBRANCH  46  47
ENDBRANCH  45  46
ENDBRANCH   1  45
TORSDOF 16
