REMARK  Name = 
REMARK  3 active torsions:
REMARK  status: ('A' for Active; 'I' for Inactive)
REMARK    1  A    between atoms: C_2  and  C_4
REMARK    2  A    between atoms: C_4  and  C_5
REMARK    3  A    between atoms: C_5  and  C_6
REMARK                            x       y       z     vdW  Elec       q    Type
REMARK                         _______ _______ _______ _____ _____    ______ ____
ROOT
ATOM      1  C   UNL     1       3.253   2.428   0.000  0.00  0.00    +0.000 C 
ATOM      2  O   UNL     1       3.968   2.841   0.000  0.00  0.00    +0.000 OA
ENDROOT
BRANCH   1   4
ATOM      3  C   UNL     1       2.841   0.889   0.000  0.00  0.00    +0.000 C 
ATOM      4  C   UNL     1       3.253   1.603   0.000  0.00  0.00    +0.000 C 
ATOM      5  O   UNL     1       3.666   0.889   0.000  0.00  0.00    +0.000 OA
ENDBRANCH   1   4
BRANCH   1   6
ATOM      6  C   UNL     1       2.539   2.841   0.000  0.00  0.00    +0.000 C 
ATOM      7  O   UNL     1       1.824   2.428   0.000  0.00  0.00    +0.000 OA
BRANCH   6   8
ATOM      8  C   UNL     1       2.539   3.666   0.000  0.00  0.00    +0.000 C 
ATOM      9  C   UNL     1       2.126   4.380   0.000  0.00  0.00    +0.000 C 
ATOM     10  O   UNL     1       2.951   4.380   0.000  0.00  0.00    +0.000 OA
ENDBRANCH   6   8
ENDBRANCH   1   6
TORSDOF 3
