REMARK  Name = 
REMARK  9 active torsions:
REMARK  status: ('A' for Active; 'I' for Inactive)
REMARK    1  A    between atoms: C_3  and  C_13
REMARK    2  A    between atoms: C_13  and  C_14
REMARK    3  A    between atoms: C_14  and  C_15
REMARK    4  A    between atoms: C_18  and  C_21
REMARK    5  A    between atoms: N_22  and  C_24
REMARK    6  A    between atoms: C_24  and  C_25
REMARK    7  A    between atoms: C_24  and  C_27
REMARK    8  A    between atoms: C_25  and  C_26
REMARK    9  A    between atoms: C_26  and  C_30
REMARK                            x       y       z     vdW  Elec       q    Type
REMARK                         _______ _______ _______ _____ _____    ______ ____
ROOT
ATOM      1  C   UNK A   0      -0.714   1.650   0.000  0.00  0.00    +0.000 A 
ATOM      2  C   UNK A   0      -1.429   2.062   0.000  0.00  0.00    +0.000 A 
ATOM      3  C   UNK A   0      -2.143   1.650   0.000  0.00  0.00    +0.000 A 
ATOM      4  C   UNK A   0      -2.143   0.825   0.000  0.00  0.00    +0.000 A 
ATOM      5  C   UNK A   0      -1.429   0.412   0.000  0.00  0.00    +0.000 A 
ATOM      6  C   UNK A   0      -0.714   0.825   0.000  0.00  0.00    +0.000 A 
ENDROOT
BRANCH   4   7
ATOM      7  C   UNK A   0      -2.858   0.412   0.000  0.00  0.00    +0.000 C 
ATOM      8  N   UNK A   1      -2.858  -0.412   0.000  0.00  0.00    +0.000 NA
ATOM      9  O   UNK A   0      -3.572   0.825   0.000  0.00  0.00    +0.000 OA
BRANCH   8  10
ATOM     10  C   UNK A   1      -3.572  -0.825   0.000  0.00  0.00    +0.000 C 
BRANCH  10  11
ATOM     11  C   UNK A   1      -4.287  -0.412   0.000  0.00  0.00    +0.000 C 
ATOM     12  O   UNK A   1      -5.001  -0.825   0.000  0.00  0.00    +0.000 OA
ATOM     13  O   UNK A   1      -4.287   0.412   0.000  0.00  0.00    +0.000 OA
ENDBRANCH  10  11
BRANCH  10  14
ATOM     14  C   UNK A   1      -3.572  -1.650   0.000  0.00  0.00    +0.000 C 
BRANCH  14  15
ATOM     15  C   UNK A   1      -4.287  -2.062   0.000  0.00  0.00    +0.000 C 
ATOM     16  C   UNK A   1      -5.001  -1.650   0.000  0.00  0.00    +0.000 C 
BRANCH  15  17
ATOM     17  C   UNK A   1      -4.287  -2.888   0.000  0.00  0.00    +0.000 C 
ATOM     18  O   UNK A   1      -5.001  -3.300   0.000  0.00  0.00    +0.000 OA
ATOM     19  O   UNK A   1      -3.572  -3.300   0.000  0.00  0.00    +0.000 OA
ENDBRANCH  15  17
ENDBRANCH  14  15
ENDBRANCH  10  14
ENDBRANCH   8  10
ENDBRANCH   4   7
BRANCH   1  20
ATOM     20  C   UNK A   0       0.000   2.062   0.000  0.00  0.00    +0.000 C 
BRANCH  20  21
ATOM     21  C   UNK A   0       0.714   1.650   0.000  0.00  0.00    +0.000 C 
BRANCH  21  24
ATOM     22  C   UNK A   0       2.143   3.300   0.000  0.00  0.00    +0.000 A 
ATOM     23  C   UNK A   0       1.429   2.888   0.000  0.00  0.00    +0.000 A 
ATOM     24  C   UNK A   0       1.429   2.062   0.000  0.00  0.00    +0.000 A 
ATOM     25  C   UNK A   0       2.143   1.650   0.000  0.00  0.00    +0.000 A 
ATOM     26  C   UNK A   0       2.858   2.062   0.000  0.00  0.00    +0.000 A 
ATOM     27  C   UNK A   0       2.858   2.888   0.000  0.00  0.00    +0.000 A 
ATOM     28  C   UNK A   0       3.572   1.650   0.000  0.00  0.00    +0.000 A 
ATOM     29  N   UNK A   0       4.287   2.062   0.000  0.00  0.00    +0.000 NA
ATOM     30  C   UNK A   0       4.287   2.888   0.000  0.00  0.00    +0.000 A 
ATOM     31  N   UNK A   0       3.572   3.300   0.000  0.00  0.00    +0.000 NA
ATOM     32  N   UNK A   0       5.001   3.300   0.000  0.00  0.00    +0.000 NA
ATOM     33  N   UNK A   0       3.572   0.825   0.000  0.00  0.00    +0.000 NA
ENDBRANCH  21  24
ENDBRANCH  20  21
ENDBRANCH   1  20
TORSDOF 9
