REMARK  Name = 
REMARK  7 active torsions:
REMARK  status: ('A' for Active; 'I' for Inactive)
REMARK    1  A    between atoms: C_2  and  C_9
REMARK    2  A    between atoms: C_4  and  C_6
REMARK    3  A    between atoms: CG_12  and  CB_13
REMARK    4  A    between atoms: CG_12  and  CD_19
REMARK    5  A    between atoms: CB_13  and  CA_14
REMARK    6  A    between atoms: CA_14  and  C_15
REMARK    7  A    between atoms: CD_19  and  NE_20
REMARK                            x       y       z     vdW  Elec       q    Type
REMARK                         _______ _______ _______ _____ _____    ______ ____
ROOT
ATOM      1  C   UNK     1       0.701  -0.662   0.000  0.00  0.00    +0.000 C 
ATOM      2  C   UNK     1      -0.124  -0.662   0.000  0.00  0.00    +0.000 C 
ATOM      3  N   UNK     1      -0.379   0.123   0.000  0.00  0.00    +0.000 NA
ATOM      4  C   UNK     1       0.289   0.608   0.000  0.00  0.00    +0.000 C 
ATOM      5  S   UNK     1       0.956   0.123   0.000  0.00  0.00    +0.000 S 
ENDROOT
BRANCH   4   6
ATOM      6  C   UNK     1       0.289   1.433   0.000  0.00  0.00    +0.000 C 
ATOM      7  O   UNK     1       1.003   1.845   0.000  0.00  0.00    +0.000 OA
ATOM      8  O   UNK     1      -0.426   1.845   0.000  0.00  0.00    +0.000 OA
ENDBRANCH   4   6
BRANCH   2   9
ATOM      9  C   UNK     1      -0.609  -1.329   0.000  0.00  0.00    +0.000 C 
ATOM     10  O   UNK     1      -0.273  -2.083   0.000  0.00  0.00    +0.000 OA
ATOM     11  O   UNK     1      -1.429  -1.243   0.000  0.00  0.00    +0.000 OA
ENDBRANCH   2   9
TORSDOF 2
REMARK  Name = 
REMARK  7 active torsions:
REMARK  status: ('A' for Active; 'I' for Inactive)
REMARK    1  A    between atoms: C_2  and  C_9
REMARK    2  A    between atoms: C_4  and  C_6
REMARK    3  A    between atoms: CG_12  and  CB_13
REMARK    4  A    between atoms: CG_12  and  CD_19
REMARK    5  A    between atoms: CB_13  and  CA_14
REMARK    6  A    between atoms: CA_14  and  C_15
REMARK    7  A    between atoms: CD_19  and  NE_20
REMARK                            x       y       z     vdW  Elec       q    Type
REMARK                         _______ _______ _______ _____ _____    ______ ____
ROOT
ATOM      1  CG  ARG A   1       5.629   0.275   0.000  0.00  0.00    +0.000 C 
ENDROOT
BRANCH   1   2
ATOM      2  CB  ARG A   1       4.915  -0.138   0.000  0.00  0.00    +0.000 C 
BRANCH   2   3
ATOM      3  CA  ARG A   1       4.200   0.275   0.000  0.00  0.00    +0.000 C 
ATOM      4  N   ARG A   1       4.200   1.100   0.000  0.00  0.00    +0.000 NA
BRANCH   3   5
ATOM      5  C   ARG A   1       3.486  -0.138   0.000  0.00  0.00    +0.000 C 
ATOM      6  O   ARG A   1       2.771   0.275   0.000  0.00  0.00    +0.000 OA
ATOM      7  OXT ARG A   1       3.486  -0.963   0.000  0.00  0.00    +0.000 OA
ENDBRANCH   3   5
ENDBRANCH   2   3
ENDBRANCH   1   2
BRANCH   1   8
ATOM      8  CD  ARG A   1       6.343  -0.138   0.000  0.00  0.00    +0.000 C 
BRANCH   8   9
ATOM      9  NE  ARG A   1       7.058   0.275   0.000  0.00  0.00    +0.000 NA
ATOM     10  CZ  ARG A   1       7.772  -0.138   0.000  0.00  0.00    +0.000 C 
ATOM     11  NH1 ARG A   1       8.487   0.275   0.000  0.00  0.00    +0.000 NA
ATOM     12  NH2 ARG A   1       7.772  -0.963   0.000  0.00  0.00    +0.000 NA
ENDBRANCH   8   9
ENDBRANCH   1   8
TORSDOF 5
