REMARK  Name = 
REMARK  3 active torsions:
REMARK  status: ('A' for Active; 'I' for Inactive)
REMARK    1  A    between atoms: C_1  and  C_2
REMARK    2  A    between atoms: C_2  and  C_3
REMARK    3  A    between atoms: C_3  and  C_6
REMARK                            x       y       z     vdW  Elec       q    Type
REMARK                         _______ _______ _______ _____ _____    ______ ____
ROOT
ATOM      1  C   UNL     1       0.352   0.000   0.000  0.00  0.00    +0.000 A 
ATOM      2  C   UNL     1       0.352  -0.821   0.000  0.00  0.00    +0.000 A 
ATOM      3  C   UNL     1       1.072   0.419   0.000  0.00  0.00    +0.000 A 
ATOM      4  C   UNL     1       1.072  -1.240   0.000  0.00  0.00    +0.000 A 
ATOM      5  C   UNL     1       1.776   0.000   0.000  0.00  0.00    +0.000 A 
ATOM      6  C   UNL     1       1.793  -0.821   0.000  0.00  0.00    +0.000 A 
ATOM      7  O   UNL     1       2.513  -1.240   0.000  0.00  0.00    +0.000 OA
ENDROOT
BRANCH   1   8
ATOM      8  C   UNL     1      -0.369   0.402   0.000  0.00  0.00    +0.000 C 
BRANCH   8   9
ATOM      9  C   UNL     1      -1.089   0.000   0.000  0.00  0.00    +0.000 C 
ATOM     10  O   UNL     1      -1.089  -0.838   0.000  0.00  0.00    +0.000 OA
BRANCH   9  11
ATOM     11  C   UNL     1      -1.810   0.402   0.000  0.00  0.00    +0.000 C 
ATOM     12  O   UNL     1      -1.810   1.240   0.000  0.00  0.00    +0.000 OA
ATOM     13  O   UNL     1      -2.513   0.000   0.000  0.00  0.00    +0.000 OA
ENDBRANCH   9  11
ENDBRANCH   8   9
ENDBRANCH   1   8
TORSDOF 3
