REMARK  Name = 
REMARK  12 active torsions:
REMARK  status: ('A' for Active; 'I' for Inactive)
REMARK    1  A    between atoms: C_2  and  C_19
REMARK    2  A    between atoms: C_6  and  S_8
REMARK    3  A    between atoms: S_8  and  N_11
REMARK    4  A    between atoms: C_15  and  C_16
REMARK    5  A    between atoms: N_18  and  C_34
REMARK    6  A    between atoms: C_19  and  O_21
REMARK    7  A    between atoms: O_21  and  C_22
REMARK    8  A    between atoms: C_34  and  C_35
REMARK    9  A    between atoms: C_35  and  C_36
REMARK   10  A    between atoms: C_36  and  N_37
REMARK   11  A    between atoms: C_38  and  C_39
REMARK   12  A    between atoms: C_43  and  C_46
REMARK                            x       y       z     vdW  Elec       q    Type
REMARK                         _______ _______ _______ _____ _____    ______ ____
ROOT
ATOM      1  S   UNL     1      -0.846   2.320   0.000  0.00  0.00    +0.000 S 
ATOM      2  O   UNL     1      -0.434   1.606   0.000  0.00  0.00    +0.000 OA
ATOM      3  O   UNL     1      -0.132   2.733   0.000  0.00  0.00    +0.000 OA
ENDROOT
BRANCH   1   9
ATOM      4  C   UNL     1      -0.846   3.749   0.000  0.00  0.00    +0.000 A 
ATOM      5  C   UNL     1      -1.259   4.464   0.000  0.00  0.00    +0.000 A 
ATOM      6  C   UNL     1      -2.084   4.464   0.000  0.00  0.00    +0.000 A 
ATOM      7  C   UNL     1      -2.496   3.749   0.000  0.00  0.00    +0.000 A 
ATOM      8  C   UNL     1      -2.084   3.035   0.000  0.00  0.00    +0.000 A 
ATOM      9  C   UNL     1      -1.259   3.035   0.000  0.00  0.00    +0.000 A 
ATOM     10 CL   UNL     1      -0.021   3.749   0.000  0.00  0.00    +0.000 Cl
ATOM     11 CL   UNL     1      -2.496   5.178   0.000  0.00  0.00    +0.000 Cl
BRANCH   5  12
ATOM     12  C   UNL     1      -0.846   5.178   0.000  0.00  0.00    +0.000 C 
BRANCH  12  13
ATOM     13  O   UNL     1      -0.021   5.178   0.000  0.00  0.00    +0.000 OA
BRANCH  13  14
ATOM     14  C   UNL     1       0.391   5.893   0.000  0.00  0.00    +0.000 A 
ATOM     15  C   UNL     1       1.216   5.893   0.000  0.00  0.00    +0.000 A 
ATOM     16  C   UNL     1       1.629   6.607   0.000  0.00  0.00    +0.000 A 
ATOM     17  C   UNL     1       1.216   7.322   0.000  0.00  0.00    +0.000 A 
ATOM     18  C   UNL     1       0.391   7.322   0.000  0.00  0.00    +0.000 A 
ATOM     19  C   UNL     1      -0.021   6.607   0.000  0.00  0.00    +0.000 A 
ATOM     20  C   UNL     1       2.454   6.607   0.000  0.00  0.00    +0.000 A 
ATOM     21  C   UNL     1       2.866   5.893   0.000  0.00  0.00    +0.000 A 
ATOM     22  C   UNL     1       2.454   5.178   0.000  0.00  0.00    +0.000 A 
ATOM     23  N   UNL     1       1.629   5.178   0.000  0.00  0.00    +0.000 NA
ATOM     24  C   UNL     1       2.866   7.322   0.000  0.00  0.00    +0.000 C 
ATOM     25  C   UNL     1       2.866   4.464   0.000  0.00  0.00    +0.000 C 
ENDBRANCH  13  14
ENDBRANCH  12  13
ENDBRANCH   5  12
ENDBRANCH   1   9
BRANCH   1  26
ATOM     26  N   UNL     1      -1.561   1.908   0.000  0.00  0.00    +0.000 NA
ATOM     27  C   UNL     1      -2.314   2.243   0.000  0.00  0.00    +0.000 C 
ATOM     28  C   UNL     1      -2.866   1.630   0.000  0.00  0.00    +0.000 C 
ATOM     29  C   UNL     1      -2.454   0.916   0.000  0.00  0.00    +0.000 C 
ATOM     30  C   UNL     1      -1.647   1.087   0.000  0.00  0.00    +0.000 C 
BRANCH  30  31
ATOM     31  C   UNL     1      -1.034   0.535   0.000  0.00  0.00    +0.000 C 
ATOM     32  O   UNL     1      -0.249   0.790   0.000  0.00  0.00    +0.000 OA
ATOM     33  N   UNL     1      -1.205  -0.272   0.000  0.00  0.00    +0.000 NA
BRANCH  33  34
ATOM     34  C   UNL     1      -0.592  -0.824   0.000  0.00  0.00    +0.000 C 
BRANCH  34  35
ATOM     35  C   UNL     1      -0.764  -1.631   0.000  0.00  0.00    +0.000 C 
BRANCH  35  36
ATOM     36  C   UNL     1      -0.151  -2.183   0.000  0.00  0.00    +0.000 C 
BRANCH  36  37
ATOM     37  N   UNL     1      -0.322  -2.990   0.000  0.00  0.00    +0.000 NA
ATOM     38  C   UNL     1       0.291  -3.542   0.000  0.00  0.00    +0.000 C 
ATOM     39  O   UNL     1       1.075  -3.287   0.000  0.00  0.00    +0.000 OA
BRANCH  38  40
ATOM     40  C   UNL     1       0.119  -4.349   0.000  0.00  0.00    +0.000 A 
ATOM     41  C   UNL     1      -0.665  -4.604   0.000  0.00  0.00    +0.000 A 
ATOM     42  C   UNL     1      -0.837  -5.411   0.000  0.00  0.00    +0.000 A 
ATOM     43  C   UNL     1      -0.224  -5.963   0.000  0.00  0.00    +0.000 A 
ATOM     44  C   UNL     1       0.561  -5.708   0.000  0.00  0.00    +0.000 A 
ATOM     45  C   UNL     1       0.732  -4.901   0.000  0.00  0.00    +0.000 A 
BRANCH  43  46
ATOM     46  C   UNL     1      -0.395  -6.770   0.000  0.00  0.00    +0.000 C 
ATOM     47  N   UNL     1       0.218  -7.322   0.000  0.00  0.00    +0.000 NA
ATOM     48  N   UNL     1      -1.180  -7.024   0.000  0.00  0.00    +0.000 NA
ENDBRANCH  43  46
ENDBRANCH  38  40
ENDBRANCH  36  37
ENDBRANCH  35  36
ENDBRANCH  34  35
ENDBRANCH  33  34
ENDBRANCH  30  31
ENDBRANCH   1  26
TORSDOF 12
