REMARK  Name = 
REMARK  5 active torsions:
REMARK  status: ('A' for Active; 'I' for Inactive)
REMARK    1  A    between atoms: C_7  and  C_13
REMARK    2  A    between atoms: C_9  and  S_15
REMARK    3  A    between atoms: C_13  and  S_16
REMARK    4  A    between atoms: S_16  and  C_20
REMARK    5  A    between atoms: C_20  and  C_21
REMARK                            x       y       z     vdW  Elec       q    Type
REMARK                         _______ _______ _______ _____ _____    ______ ____
ROOT
ATOM      1  C   UNL     1       0.357   1.087   0.000  0.00  0.00    +0.000 A 
ATOM      2  C   UNL     1       0.357   1.911   0.000  0.00  0.00    +0.000 A 
ATOM      3  N   UNL     1      -0.357   0.674   0.000  0.00  0.00    +0.000 NA
ATOM      4  C   UNL     1       1.072   0.674   0.000  0.00  0.00    +0.000 A 
ATOM      5  C   UNL     1       1.072   2.324   0.000  0.00  0.00    +0.000 A 
ATOM      6  S   UNL     1      -0.357   2.324   0.000  0.00  0.00    +0.000 S 
ATOM      7  C   UNL     1      -1.072   1.087   0.000  0.00  0.00    +0.000 C 
ATOM      8  C   UNL     1       1.786   1.087   0.000  0.00  0.00    +0.000 A 
ATOM      9  C   UNL     1       1.786   1.911   0.000  0.00  0.00    +0.000 A 
ATOM     10  N   UNL     1      -1.072   1.911   0.000  0.00  0.00    +0.000 NA
ATOM     11  O   UNL     1      -0.770   3.038   0.000  0.00  0.00    +0.000 OA
ATOM     12  O   UNL     1       0.055   3.038   0.000  0.00  0.00    +0.000 OA
ATOM     13 CL   UNL     1       2.501   0.674   0.000  0.00  0.00    +0.000 Cl
ENDROOT
BRANCH   9  14
ATOM     14  S   UNL     1       2.501   2.324   0.000  0.00  0.00    +0.000 S 
ATOM     15  N   UNL     1       3.215   1.911   0.000  0.00  0.00    +0.000 NA
ATOM     16  O   UNL     1       2.088   3.038   0.000  0.00  0.00    +0.000 OA
ATOM     17  O   UNL     1       2.913   3.038   0.000  0.00  0.00    +0.000 OA
ENDBRANCH   9  14
BRANCH   7  18
ATOM     18  C   UNL     1      -1.786   0.674   0.000  0.00  0.00    +0.000 C 
BRANCH  18  19
ATOM     19  S   UNL     1      -1.786  -0.151   0.000  0.00  0.00    +0.000 S 
BRANCH  19  20
ATOM     20  C   UNL     1      -2.501  -0.563   0.000  0.00  0.00    +0.000 C 
BRANCH  20  21
ATOM     21  C   UNL     1      -2.501  -1.388   0.000  0.00  0.00    +0.000 A 
ATOM     22  C   UNL     1      -3.215  -1.801   0.000  0.00  0.00    +0.000 A 
ATOM     23  C   UNL     1      -1.786  -1.801   0.000  0.00  0.00    +0.000 A 
ATOM     24  C   UNL     1      -3.215  -2.626   0.000  0.00  0.00    +0.000 A 
ATOM     25  C   UNL     1      -1.786  -2.626   0.000  0.00  0.00    +0.000 A 
ATOM     26  C   UNL     1      -2.501  -3.038   0.000  0.00  0.00    +0.000 A 
ENDBRANCH  20  21
ENDBRANCH  19  20
ENDBRANCH  18  19
ENDBRANCH   7  18
TORSDOF 5
