REMARK  Name = 
REMARK  3 active torsions:
REMARK  status: ('A' for Active; 'I' for Inactive)
REMARK    1  A    between atoms: C_1  and  C_2
REMARK    2  A    between atoms: C_2  and  C_3
REMARK    3  A    between atoms: C_3  and  S_7
REMARK                            x       y       z     vdW  Elec       q    Type
REMARK                         _______ _______ _______ _____ _____    ______ ____
ROOT
ATOM      1  C   UNK     1      11.211  -6.041   0.000  0.00  0.00    +0.000 C 
ATOM      2  N   UNK     1      11.211  -6.866   0.000  0.00  0.00    +0.000 NA
ENDROOT
BRANCH   1   3
ATOM      3  C   UNK     1      11.926  -5.628   0.000  0.00  0.00    +0.000 C 
ATOM      4  O   UNK     1      12.640  -6.041   0.000  0.00  0.00    +0.000 OA
ATOM      5  O   UNK     1      11.926  -4.803   0.000  0.00  0.00    +0.000 OA
ENDBRANCH   1   3
BRANCH   1   6
ATOM      6  C   UNK     1      10.497  -5.628   0.000  0.00  0.00    +0.000 C 
BRANCH   6   7
ATOM      7  S   UNK     1       9.782  -6.041   0.000  0.00  0.00    +0.000 S 
ATOM      8  O   UNK     1       9.068  -5.628   0.000  0.00  0.00    +0.000 OA
ATOM      9  H   UNK     1       9.782  -6.866   0.000  0.00  0.00    +0.000 HD
ENDBRANCH   6   7
ENDBRANCH   1   6
TORSDOF 3
