REMARK  Name = 
REMARK  2 active torsions:
REMARK  status: ('A' for Active; 'I' for Inactive)
REMARK    1  A    between atoms: C_7  and  S_16
REMARK    2  A    between atoms: C_21  and  S_30
REMARK                            x       y       z     vdW  Elec       q    Type
REMARK                         _______ _______ _______ _____ _____    ______ ____
ROOT
ATOM      1 NA   UNL     1       5.730   1.073   0.000  0.00  0.00    +0.000 Na
ENDROOT
TORSDOF 0
REMARK  Name = 
REMARK  2 active torsions:
REMARK  status: ('A' for Active; 'I' for Inactive)
REMARK    1  A    between atoms: C_7  and  S_16
REMARK    2  A    between atoms: C_21  and  S_30
REMARK                            x       y       z     vdW  Elec       q    Type
REMARK                         _______ _______ _______ _____ _____    ______ ____
ROOT
ATOM      1 NA   UNL     1      -5.730  -0.707   0.000  0.00  0.00    +0.000 Na
ENDROOT
TORSDOF 0
REMARK  Name = 
REMARK  2 active torsions:
REMARK  status: ('A' for Active; 'I' for Inactive)
REMARK    1  A    between atoms: C_7  and  S_16
REMARK    2  A    between atoms: C_21  and  S_30
REMARK                            x       y       z     vdW  Elec       q    Type
REMARK                         _______ _______ _______ _____ _____    ______ ____
ROOT
ATOM      1  C   UNL     1       0.026  -0.826   0.000  0.00  0.00    +0.000 A 
ATOM      2  C   UNL     1       0.026   0.830   0.000  0.00  0.00    +0.000 A 
ATOM      3  C   UNL     1       3.601  -0.408   0.000  0.00  0.00    +0.000 A 
ATOM      4  C   UNL     1       3.601   0.418   0.000  0.00  0.00    +0.000 A 
ATOM      5  C   UNL     1       2.886   0.830   0.000  0.00  0.00    +0.000 A 
ATOM      6  C   UNL     1       2.890  -0.822   0.000  0.00  0.00    +0.000 A 
ATOM      7  C   UNL     1       2.175  -0.414   0.000  0.00  0.00    +0.000 A 
ATOM      8  C   UNL     1       2.175   0.414   0.000  0.00  0.00    +0.000 A 
ATOM      9  N   UNL     1       1.462   0.826   0.000  0.00  0.00    +0.000 NA
ATOM     10  C   UNL     1       0.744   0.414   0.000  0.00  0.00    +0.000 A 
ATOM     11  C   UNL     1       0.744  -0.414   0.000  0.00  0.00    +0.000 A 
ATOM     12  N   UNL     1       1.462  -0.830   0.000  0.00  0.00    +0.000 NA
ATOM     13  C   UNL     1      -3.544   0.408   0.000  0.00  0.00    +0.000 A 
ATOM     14  C   UNL     1      -3.544  -0.418   0.000  0.00  0.00    +0.000 A 
ATOM     15  C   UNL     1      -2.829  -0.830   0.000  0.00  0.00    +0.000 A 
ATOM     16  C   UNL     1      -2.833   0.822   0.000  0.00  0.00    +0.000 A 
ATOM     17  C   UNL     1      -2.118   0.414   0.000  0.00  0.00    +0.000 A 
ATOM     18  C   UNL     1      -2.118  -0.414   0.000  0.00  0.00    +0.000 A 
ATOM     19  N   UNL     1      -1.405  -0.826   0.000  0.00  0.00    +0.000 NA
ATOM     20  C   UNL     1      -0.687  -0.414   0.000  0.00  0.00    +0.000 A 
ATOM     21  C   UNL     1      -0.687   0.414   0.000  0.00  0.00    +0.000 A 
ATOM     22  N   UNL     1      -1.405   0.830   0.000  0.00  0.00    +0.000 NA
ENDROOT
BRANCH  14  24
ATOM     23  O   UNL     1      -4.914  -1.205   0.000  0.00  0.00    +0.000 OA
ATOM     24  S   UNL     1      -4.228  -0.808   0.000  0.00  0.00    +0.000 S 
ATOM     25  O   UNL     1      -3.836  -1.487   0.000  0.00  0.00    +0.000 OA
ATOM     26  O   UNL     1      -4.625  -0.126   0.000  0.00  0.00    +0.000 OA
ENDBRANCH  14  24
BRANCH   4  27
ATOM     27  S   UNL     1       4.285   0.809   0.000  0.00  0.00    +0.000 S 
ATOM     28  O   UNL     1       4.968   1.201   0.000  0.00  0.00    +0.000 OA
ATOM     29  O   UNL     1       3.893   1.487   0.000  0.00  0.00    +0.000 OA
ATOM     30  O   UNL     1       4.681   0.126   0.000  0.00  0.00    +0.000 OA
ENDBRANCH   4  27
TORSDOF 2
