REMARK  Name = 
REMARK  6 active torsions:
REMARK  status: ('A' for Active; 'I' for Inactive)
REMARK    1  A    between atoms: C_8  and  C_17
REMARK    2  A    between atoms: C_8  and  C_19
REMARK    3  A    between atoms: C_14  and  C_19
REMARK    4  A    between atoms: C_14  and  O_29
REMARK    5  A    between atoms: C_15  and  C_16
REMARK    6  A    between atoms: C_20  and  O_29
REMARK                            x       y       z     vdW  Elec       q    Type
REMARK                         _______ _______ _______ _____ _____    ______ ____
ROOT
ATOM      1  C   UNL     1      -0.985  -0.867   0.000  0.00  0.00    +0.000 A 
ATOM      2  C   UNL     1      -0.688  -2.265   0.000  0.00  0.00    +0.000 A 
ATOM      3  C   UNL     1       0.374  -1.309   0.000  0.00  0.00    +0.000 A 
ATOM      4  C   UNL     1      -1.240  -1.652   0.000  0.00  0.00    +0.000 A 
ATOM      5  C   UNL     1      -0.178  -0.696   0.000  0.00  0.00    +0.000 A 
ATOM      6  N   UNL     1       0.119  -2.093   0.000  0.00  0.00    +0.000 NA
ENDROOT
BRANCH   4  11
ATOM      7  C   UNL     1      -2.599  -1.210   0.000  0.00  0.00    +0.000 A 
ATOM      8  C   UNL     1      -3.406  -1.382   0.000  0.00  0.00    +0.000 A 
ATOM      9  C   UNL     1      -2.302  -2.608   0.000  0.00  0.00    +0.000 A 
ATOM     10  C   UNL     1      -3.521  -3.494   0.000  0.00  0.00    +0.000 A 
ATOM     11  C   UNL     1      -2.047  -1.823   0.000  0.00  0.00    +0.000 A 
ATOM     12  C   UNL     1      -3.109  -2.779   0.000  0.00  0.00    +0.000 A 
ATOM     13  C   UNL     1      -3.661  -2.166   0.000  0.00  0.00    +0.000 A 
ATOM     14  N   UNL     1      -4.328  -3.322   0.000  0.00  0.00    +0.000 NA
ATOM     15  N   UNL     1      -4.414  -2.502   0.000  0.00  0.00    +0.000 NA
ENDBRANCH   4  11
BRANCH   5  16
ATOM     16  O   UNL     1       0.077   0.089   0.000  0.00  0.00    +0.000 OA
BRANCH  16  17
ATOM     17  C   UNL     1       0.884   0.261   0.000  0.00  0.00    +0.000 C 
BRANCH  17  18
ATOM     18  C   UNL     1       1.139   1.045   0.000  0.00  0.00    +0.000 C 
ATOM     19  N   UNL     1       0.587   1.658   0.000  0.00  0.00    +0.000 NA
BRANCH  18  20
ATOM     20  C   UNL     1       1.946   1.217   0.000  0.00  0.00    +0.000 C 
BRANCH  20  26
ATOM     21  C   UNL     1       4.414   2.256   0.000  0.00  0.00    +0.000 C 
ATOM     22  C   UNL     1       4.414   3.081   0.000  0.00  0.00    +0.000 C 
ATOM     23  C   UNL     1       3.700   1.844   0.000  0.00  0.00    +0.000 C 
ATOM     24  C   UNL     1       3.700   3.494   0.000  0.00  0.00    +0.000 C 
ATOM     25  C   UNL     1       1.716   2.669   0.000  0.00  0.00    +0.000 C 
ATOM     26  C   UNL     1       2.201   2.001   0.000  0.00  0.00    +0.000 C 
ATOM     27  C   UNL     1       2.985   2.256   0.000  0.00  0.00    +0.000 C 
ATOM     28  C   UNL     1       2.985   3.081   0.000  0.00  0.00    +0.000 C 
ATOM     29  N   UNL     1       2.201   3.336   0.000  0.00  0.00    +0.000 NA
ENDBRANCH  20  26
ENDBRANCH  18  20
ENDBRANCH  17  18
ENDBRANCH  16  17
ENDBRANCH   5  16
TORSDOF 6
