REMARK  Name = 
REMARK  9 active torsions:
REMARK  status: ('A' for Active; 'I' for Inactive)
REMARK    1  A    between atoms: C_5  and  C_21
REMARK    2  A    between atoms: C_16  and  C_19
REMARK    3  A    between atoms: C_16  and  C_22
REMARK    4  A    between atoms: C_17  and  C_18
REMARK    5  A    between atoms: C_17  and  N_23
REMARK    6  A    between atoms: C_18  and  C_22
REMARK    7  A    between atoms: C_20  and  C_22
REMARK    8  A    between atoms: C_21  and  O_25
REMARK    9  A    between atoms: C_22  and  O_25
REMARK                            x       y       z     vdW  Elec       q    Type
REMARK                         _______ _______ _______ _____ _____    ______ ____
ROOT
ATOM      1  C   UNL     1       0.000   0.619   0.000  0.00  0.00    +0.000 C 
ENDROOT
BRANCH   1   7
ATOM      2  C   UNL     1      -2.143   1.856   0.000  0.00  0.00    +0.000 A 
ATOM      3  C   UNL     1      -2.143   1.031   0.000  0.00  0.00    +0.000 A 
ATOM      4  C   UNL     1      -1.429   2.269   0.000  0.00  0.00    +0.000 A 
ATOM      5  C   UNL     1      -1.429   0.619   0.000  0.00  0.00    +0.000 A 
ATOM      6  C   UNL     1      -0.714   1.856   0.000  0.00  0.00    +0.000 A 
ATOM      7  C   UNL     1      -0.714   1.031   0.000  0.00  0.00    +0.000 A 
ENDBRANCH   1   7
BRANCH   1   9
ATOM      8  C   UNL     1      -0.499  -0.916   0.000  0.00  0.00    +0.000 C 
ATOM      9  C   UNL     1      -0.412  -0.096   0.000  0.00  0.00    +0.000 C 
BRANCH   9  10
ATOM     10  C   UNL     1      -1.238  -0.096   0.000  0.00  0.00    +0.000 C 
BRANCH  10  13
ATOM     11  C   UNL     1      -2.475  -0.810   0.000  0.00  0.00    +0.000 C 
ATOM     12  C   UNL     1      -1.238  -1.525   0.000  0.00  0.00    +0.000 C 
ATOM     13  N   UNL     1      -1.650  -0.810   0.000  0.00  0.00    +0.000 NA
ENDBRANCH  10  13
ENDBRANCH   9  10
ENDBRANCH   1   9
BRANCH   1  14
ATOM     14  C   UNL     1       0.714   0.206   0.000  0.00  0.00    +0.000 C 
BRANCH  14  20
ATOM     15  C   UNL     1       0.714  -2.269   0.000  0.00  0.00    +0.000 A 
ATOM     16  C   UNL     1       1.429  -1.856   0.000  0.00  0.00    +0.000 A 
ATOM     17  C   UNL     1       0.000  -1.856   0.000  0.00  0.00    +0.000 A 
ATOM     18  C   UNL     1       1.429  -1.031   0.000  0.00  0.00    +0.000 A 
ATOM     19  C   UNL     1       0.000  -1.031   0.000  0.00  0.00    +0.000 A 
ATOM     20  C   UNL     1       0.714  -0.619   0.000  0.00  0.00    +0.000 A 
ENDBRANCH  14  20
ENDBRANCH   1  14
BRANCH   1  21
ATOM     21  O   UNL     1       0.412   1.333   0.000  0.00  0.00    +0.000 OA
BRANCH  21  22
ATOM     22  C   UNL     1       1.238   1.333   0.000  0.00  0.00    +0.000 C 
ATOM     23  O   UNL     1       1.650   0.619   0.000  0.00  0.00    +0.000 OA
BRANCH  22  25
ATOM     24  C   UNL     1       2.475   2.048   0.000  0.00  0.00    +0.000 C 
ATOM     25  C   UNL     1       1.650   2.048   0.000  0.00  0.00    +0.000 C 
ENDBRANCH  22  25
ENDBRANCH  21  22
ENDBRANCH   1  21
TORSDOF 9
