REMARK  Name = 
REMARK  3 active torsions:
REMARK  status: ('A' for Active; 'I' for Inactive)
REMARK    1  A    between atoms: N_4  and  N_5
REMARK    2  A    between atoms: N_4  and  C_11
REMARK    3  A    between atoms: C_10  and  C_16
REMARK                            x       y       z     vdW  Elec       q    Type
REMARK                         _______ _______ _______ _____ _____    ______ ____
ROOT
ATOM      1  C   UNL     1       1.199   1.555   0.000  0.00  0.00    +0.000 A 
ATOM      2  C   UNL     1       0.484   0.318   0.000  0.00  0.00    +0.000 A 
ATOM      3  C   UNL     1       0.484   1.143   0.000  0.00  0.00    +0.000 A 
ATOM      4  C   UNL     1       1.913   1.143   0.000  0.00  0.00    +0.000 A 
ATOM      5  C   UNL     1       1.199  -0.095   0.000  0.00  0.00    +0.000 A 
ATOM      6  C   UNL     1       1.913   0.318   0.000  0.00  0.00    +0.000 A 
ENDROOT
BRANCH   1  10
ATOM      7  F   UNL     1       0.374   2.380   0.000  0.00  0.00    +0.000 F 
ATOM      8  F   UNL     1       1.199   3.205   0.000  0.00  0.00    +0.000 F 
ATOM      9  F   UNL     1       2.024   2.380   0.000  0.00  0.00    +0.000 F 
ATOM     10  C   UNL     1       1.199   2.380   0.000  0.00  0.00    +0.000 C 
ENDBRANCH   1  10
BRANCH   2  11
ATOM     11  N   UNL     1      -0.230  -0.095   0.000  0.00  0.00    +0.000 NA
BRANCH  11  12
ATOM     12  N   UNL     1      -0.230  -0.920   0.000  0.00  0.00    +0.000 NA
ATOM     13  N   UNL     1      -2.250  -1.610   0.000  0.00  0.00    +0.000 NA
ATOM     14  N   UNL     1      -1.838  -2.324   0.000  0.00  0.00    +0.000 NA
ATOM     15  N   UNL     1      -1.870  -0.190   0.000  0.00  0.00    +0.000 NA
ATOM     16  N   UNL     1      -0.418  -2.705   0.000  0.00  0.00    +0.000 NA
ATOM     17  C   UNL     1      -0.945  -1.332   0.000  0.00  0.00    +0.000 C 
ATOM     18  C   UNL     1      -1.698  -0.997   0.000  0.00  0.00    +0.000 C 
ATOM     19  C   UNL     1      -1.031  -2.153   0.000  0.00  0.00    +0.000 C 
ENDBRANCH  11  12
ENDBRANCH   2  11
TORSDOF 3
