REMARK  Name = 
REMARK  5 active torsions:
REMARK  status: ('A' for Active; 'I' for Inactive)
REMARK    1  A    between atoms: S_2  and  N_5
REMARK    2  A    between atoms: N_5  and  C_6
REMARK    3  A    between atoms: C_16  and  C_18
REMARK    4  A    between atoms: N_27  and  C_30
REMARK    5  A    between atoms: C_30  and  C_31
REMARK                            x       y       z     vdW  Elec       q    Type
REMARK                         _______ _______ _______ _____ _____    ______ ____
ROOT
ATOM      1  C   UNL     1      -1.429   0.000   0.000  0.00  0.00    +0.000 C 
ATOM      2  C   UNL     1      -0.715  -0.412   0.000  0.00  0.00    +0.000 C 
ATOM      3  C   UNL     1       0.000   0.000   0.000  0.00  0.00    +0.000 C 
ATOM      4  C   UNL     1       0.715  -0.412   0.000  0.00  0.00    +0.000 C 
ATOM      5  C   UNL     1       1.429   0.000   0.000  0.00  0.00    +0.000 C 
ATOM      6  C   UNL     1       1.429   0.825   0.000  0.00  0.00    +0.000 C 
ATOM      7  C   UNL     1       0.715   1.238   0.000  0.00  0.00    +0.000 C 
ATOM      8  C   UNL     1       0.508   0.412   0.000  0.00  0.00    +0.000 C 
ATOM      9  C   UNL     1       0.000   0.825   0.000  0.00  0.00    +0.000 C 
ATOM     10  N   UNL     1      -0.715   1.238   0.000  0.00  0.00    +0.000 N 
ATOM     11  C   UNL     1      -1.429   0.825   0.000  0.00  0.00    +0.000 C 
ATOM     12  O   UNL     1      -2.143   1.238   0.000  0.00  0.00    +0.000 OA
ATOM     13  O   UNL     1      -0.715  -1.238   0.000  0.00  0.00    +0.000 OA
ENDROOT
BRANCH   1  24
ATOM     14  C   UNL     1      -4.287  -2.475   0.000  0.00  0.00    +0.000 A 
ATOM     15  C   UNL     1      -3.572  -2.888   0.000  0.00  0.00    +0.000 A 
ATOM     16  C   UNL     1      -2.858  -2.475   0.000  0.00  0.00    +0.000 A 
ATOM     17  C   UNL     1      -2.858  -1.650   0.000  0.00  0.00    +0.000 A 
ATOM     18  C   UNL     1      -3.572  -1.238   0.000  0.00  0.00    +0.000 A 
ATOM     19  C   UNL     1      -4.287  -1.650   0.000  0.00  0.00    +0.000 A 
ATOM     20  S   UNL     1      -3.572  -0.412   0.000  0.00  0.00    +0.000 S 
ATOM     21  O   UNL     1      -4.385  -0.556   0.000  0.00  0.00    +0.000 OA
ATOM     22  O   UNL     1      -3.854   0.363   0.000  0.00  0.00    +0.000 OA
ATOM     23  N   UNL     1      -2.858   0.000   0.000  0.00  0.00    +0.000 NA
ATOM     24  C   UNL     1      -2.143  -0.412   0.000  0.00  0.00    +0.000 C 
ATOM     25  N   UNL     1      -2.143  -1.238   0.000  0.00  0.00    +0.000 NA
BRANCH  14  26
ATOM     26  N   UNL     1      -5.001  -2.888   0.000  0.00  0.00    +0.000 NA
BRANCH  26  28
ATOM     27  C   UNL     1      -5.001  -4.537   0.000  0.00  0.00    +0.000 C 
ATOM     28  S   UNL     1      -5.001  -3.712   0.000  0.00  0.00    +0.000 S 
ATOM     29  O   UNL     1      -4.176  -3.712   0.000  0.00  0.00    +0.000 OA
ATOM     30  O   UNL     1      -5.826  -3.712   0.000  0.00  0.00    +0.000 OA
ENDBRANCH  26  28
ENDBRANCH  14  26
ENDBRANCH   1  24
BRANCH  10  31
ATOM     31  C   UNL     1      -0.715   2.062   0.000  0.00  0.00    +0.000 C 
BRANCH  31  32
ATOM     32  C   UNL     1       0.000   2.475   0.000  0.00  0.00    +0.000 A 
ATOM     33  C   UNL     1       0.000   3.300   0.000  0.00  0.00    +0.000 A 
ATOM     34  C   UNL     1       0.715   3.712   0.000  0.00  0.00    +0.000 A 
ATOM     35  C   UNL     1       1.429   3.300   0.000  0.00  0.00    +0.000 A 
ATOM     36  C   UNL     1       1.429   2.475   0.000  0.00  0.00    +0.000 A 
ATOM     37  C   UNL     1       0.715   2.062   0.000  0.00  0.00    +0.000 A 
ATOM     38  F   UNL     1       2.143   3.712   0.000  0.00  0.00    +0.000 F 
ENDBRANCH  31  32
ENDBRANCH  10  31
TORSDOF 5
