REMARK  Name = 
REMARK  0 active torsions:
REMARK  status: ('A' for Active; 'I' for Inactive)
REMARK                            x       y       z     vdW  Elec       q    Type
REMARK                         _______ _______ _______ _____ _____    ______ ____
ROOT
ATOM      1  N   UNL     1       3.385  -0.140   0.000  0.00  0.00    +0.000 N 
ATOM      2  C   UNL     1       4.083   0.286   0.000  0.00  0.00    +0.000 A 
ATOM      3  C   UNL     1       2.671   0.286   0.000  0.00  0.00    +0.000 A 
ATOM      4  C   UNL     1       2.671   1.064   0.000  0.00  0.00    +0.000 A 
ATOM      5  C   UNL     1       4.083   1.064   0.000  0.00  0.00    +0.000 A 
ATOM      6  C   UNL     1       4.790  -0.140   0.000  0.00  0.00    +0.000 A 
ATOM      7  C   UNL     1       2.006  -0.140   0.000  0.00  0.00    +0.000 A 
ATOM      8  C   UNL     1       3.385   1.490   0.000  0.00  0.00    +0.000 A 
ATOM      9  C   UNL     1       2.006   1.515   0.000  0.00  0.00    +0.000 A 
ATOM     10  C   UNL     1       4.790   1.490   0.000  0.00  0.00    +0.000 A 
ATOM     11  C   UNL     1       3.385  -0.968   0.000  0.00  0.00    +0.000 C 
ATOM     12  C   UNL     1       1.279   0.286   0.000  0.00  0.00    +0.000 A 
ATOM     13  C   UNL     1       5.504   0.286   0.000  0.00  0.00    +0.000 A 
ATOM     14  N   UNL     1       0.823   0.010   0.000  0.00  0.00    +0.000 NA
ATOM     15  N   UNL     1       6.043  -0.128   0.000  0.00  0.00    +0.000 NA
ATOM     16  C   UNL     1       1.279   1.064   0.000  0.00  0.00    +0.000 A 
ATOM     17  C   UNL     1       5.504   1.093   0.000  0.00  0.00    +0.000 A 
ENDROOT
TORSDOF 0
REMARK  Name = 
REMARK  0 active torsions:
REMARK  status: ('A' for Active; 'I' for Inactive)
REMARK                            x       y       z     vdW  Elec       q    Type
REMARK                         _______ _______ _______ _____ _____    ______ ____
ROOT
ATOM      1  N   UNL     1      -3.548  -0.098   0.000  0.00  0.00    +0.000 NA
ATOM      2  C   UNL     1      -2.846   0.311   0.000  0.00  0.00    +0.000 A 
ATOM      3  C   UNL     1      -4.263   0.349   0.000  0.00  0.00    +0.000 A 
ATOM      4  C   UNL     1      -4.263   1.126   0.000  0.00  0.00    +0.000 A 
ATOM      5  C   UNL     1      -2.846   1.126   0.000  0.00  0.00    +0.000 A 
ATOM      6  C   UNL     1      -2.131  -0.111   0.000  0.00  0.00    +0.000 A 
ATOM      7  C   UNL     1      -4.990  -0.111   0.000  0.00  0.00    +0.000 A 
ATOM      8  C   UNL     1      -3.548   1.582   0.000  0.00  0.00    +0.000 A 
ATOM      9  C   UNL     1      -4.990   1.582   0.000  0.00  0.00    +0.000 A 
ATOM     10  C   UNL     1      -2.131   1.582   0.000  0.00  0.00    +0.000 A 
ATOM     11  C   UNL     1      -1.442   0.311   0.000  0.00  0.00    +0.000 A 
ATOM     12  C   UNL     1      -5.692   0.349   0.000  0.00  0.00    +0.000 A 
ATOM     13  N   UNL     1      -1.108  -0.010   0.000  0.00  0.00    +0.000 NA
ATOM     14  N   UNL     1      -6.043  -0.010   0.000  0.00  0.00    +0.000 NA
ATOM     15  C   UNL     1      -1.442   1.101   0.000  0.00  0.00    +0.000 A 
ATOM     16  C   UNL     1      -5.692   1.126   0.000  0.00  0.00    +0.000 A 
ENDROOT
TORSDOF 0
REMARK  Name = 
REMARK  0 active torsions:
REMARK  status: ('A' for Active; 'I' for Inactive)
REMARK                            x       y       z     vdW  Elec       q    Type
REMARK                         _______ _______ _______ _____ _____    ______ ____
ROOT
ATOM      1 CL   UNL     1       1.726  -1.582   0.000  0.00  0.00    +0.000 Cl
ENDROOT
TORSDOF 0
