REMARK  Name = 
REMARK  6 active torsions:
REMARK  status: ('A' for Active; 'I' for Inactive)
REMARK    1  A    between atoms: C_2  and  C_3
REMARK    2  A    between atoms: C_5  and  C_32
REMARK    3  A    between atoms: C_8  and  N_9
REMARK    4  A    between atoms: C_11  and  C_12
REMARK    5  A    between atoms: C_20  and  N_21
REMARK    6  A    between atoms: C_24  and  C_26
REMARK                            x       y       z     vdW  Elec       q    Type
REMARK                         _______ _______ _______ _____ _____    ______ ____
ROOT
ATOM      1  N   UNL     1      -0.143  -0.030   0.000  0.00  0.00    +0.000 N 
ATOM      2  N   UNL     1      -0.628  -0.698   0.000  0.00  0.00    +0.000 NA
ATOM      3  C   UNL     1      -0.143  -1.365   0.000  0.00  0.00    +0.000 A 
ATOM      4  C   UNL     1       0.641  -1.110   0.000  0.00  0.00    +0.000 A 
ATOM      5  C   UNL     1       0.641  -0.285   0.000  0.00  0.00    +0.000 A 
ATOM      6  N   UNL     1       1.356   0.127   0.000  0.00  0.00    +0.000 NA
ATOM      7  C   UNL     1       2.070  -0.285   0.000  0.00  0.00    +0.000 A 
ATOM      8  C   UNL     1       2.070  -1.110   0.000  0.00  0.00    +0.000 A 
ATOM      9  C   UNL     1       1.356  -1.523   0.000  0.00  0.00    +0.000 A 
ENDROOT
BRANCH   1  15
ATOM     10  C   UNL     1      -1.205   0.926   0.000  0.00  0.00    +0.000 A 
ATOM     11  C   UNL     1      -1.460   1.710   0.000  0.00  0.00    +0.000 A 
ATOM     12  C   UNL     1      -0.908   2.323   0.000  0.00  0.00    +0.000 A 
ATOM     13  C   UNL     1      -0.101   2.152   0.000  0.00  0.00    +0.000 A 
ATOM     14  C   UNL     1       0.154   1.367   0.000  0.00  0.00    +0.000 A 
ATOM     15  C   UNL     1      -0.398   0.754   0.000  0.00  0.00    +0.000 A 
BRANCH  12  16
ATOM     16  C   UNL     1      -1.163   3.108   0.000  0.00  0.00    +0.000 C 
ATOM     17  N   UNL     1      -1.970   3.280   0.000  0.00  0.00    +0.000 NA
ATOM     18  O   UNL     1      -0.611   3.721   0.000  0.00  0.00    +0.000 OA
ENDBRANCH  12  16
BRANCH  10  20
ATOM     19  C   UNL     1      -1.502  -0.472   0.000  0.00  0.00    +0.000 C 
ATOM     20  C   UNL     1      -1.758   0.313   0.000  0.00  0.00    +0.000 C 
ENDBRANCH  10  20
ENDBRANCH   1  15
BRANCH   9  21
ATOM     21  N   UNL     1       1.356  -2.348   0.000  0.00  0.00    +0.000 N 
ATOM     22  C   UNL     1       2.023  -2.833   0.000  0.00  0.00    +0.000 A 
ATOM     23  N   UNL     1       1.768  -3.618   0.000  0.00  0.00    +0.000 NA
ATOM     24  C   UNL     1       0.943  -3.618   0.000  0.00  0.00    +0.000 A 
ATOM     25  C   UNL     1       0.688  -2.833   0.000  0.00  0.00    +0.000 A 
BRANCH  24  26
ATOM     26  C   UNL     1       0.458  -4.285   0.000  0.00  0.00    +0.000 A 
ATOM     27  C   UNL     1       0.713  -5.069   0.000  0.00  0.00    +0.000 A 
ATOM     28  N   UNL     1       0.046  -5.554   0.000  0.00  0.00    +0.000 N 
ATOM     29  C   UNL     1       0.046  -6.380   0.000  0.00  0.00    +0.000 C 
ATOM     30  N   UNL     1      -0.622  -5.069   0.000  0.00  0.00    +0.000 NA
ATOM     31  C   UNL     1      -0.367  -4.285   0.000  0.00  0.00    +0.000 A 
ENDBRANCH  24  26
ENDBRANCH   9  21
BRANCH   3  32
ATOM     32  C   UNL     1      -0.398  -2.150   0.000  0.00  0.00    +0.000 C 
ATOM     33  C   UNL     1       0.154  -2.763   0.000  0.00  0.00    +0.000 C 
ATOM     34  C   UNL     1      -1.205  -2.321   0.000  0.00  0.00    +0.000 C 
ENDBRANCH   3  32
TORSDOF 6
