REMARK  Name = 
REMARK  5 active torsions:
REMARK  status: ('A' for Active; 'I' for Inactive)
REMARK    1  A    between atoms: C_10  and  C_11
REMARK    2  A    between atoms: C_10  and  N_16
REMARK    3  A    between atoms: C_12  and  O_17
REMARK    4  A    between atoms: C_13  and  O_18
REMARK    5  A    between atoms: C_14  and  O_19
REMARK                            x       y       z     vdW  Elec       q    Type
REMARK                         _______ _______ _______ _____ _____    ______ ____
ROOT
ATOM      1  C   UNL     1       4.287   0.000   0.000  0.00  0.00    +0.000 A 
ATOM      2  C   UNL     1       4.287   0.825   0.000  0.00  0.00    +0.000 A 
ATOM      3  C   UNL     1       3.572  -0.412   0.000  0.00  0.00    +0.000 A 
ATOM      4  C   UNL     1       3.572   1.238   0.000  0.00  0.00    +0.000 A 
ATOM      5  C   UNL     1       2.858   0.000   0.000  0.00  0.00    +0.000 A 
ATOM      6  C   UNL     1       2.858   0.825   0.000  0.00  0.00    +0.000 A 
ENDROOT
BRANCH   4   8
ATOM      7  C   UNL     1       2.858   2.475   0.000  0.00  0.00    +0.000 C 
ATOM      8  O   UNL     1       3.572   2.062   0.000  0.00  0.00    +0.000 OA
ENDBRANCH   4   8
BRANCH   5  10
ATOM      9  C   UNL     1       1.429   0.000   0.000  0.00  0.00    +0.000 C 
ATOM     10  O   UNL     1       2.143  -0.412   0.000  0.00  0.00    +0.000 OA
ENDBRANCH   5  10
BRANCH   6  12
ATOM     11  C   UNL     1       1.429   0.825   0.000  0.00  0.00    +0.000 C 
ATOM     12  O   UNL     1       2.143   1.238   0.000  0.00  0.00    +0.000 OA
ENDBRANCH   6  12
BRANCH   3  13
ATOM     13  C   UNL     1       3.572  -1.238   0.000  0.00  0.00    +0.000 C 
BRANCH  13  19
ATOM     14  C   UNL     1       2.143  -2.888   0.000  0.00  0.00    +0.000 C 
ATOM     15  C   UNL     1       1.429  -1.650   0.000  0.00  0.00    +0.000 C 
ATOM     16  C   UNL     1       2.858  -2.475   0.000  0.00  0.00    +0.000 C 
ATOM     17  C   UNL     1       2.143  -1.238   0.000  0.00  0.00    +0.000 C 
ATOM     18  N   UNL     1       1.429  -2.475   0.000  0.00  0.00    +0.000 NA
ATOM     19  N   UNL     1       2.858  -1.650   0.000  0.00  0.00    +0.000 NA
ENDBRANCH  13  19
ENDBRANCH   3  13
TORSDOF 5
