REMARK  Name = 
REMARK  8 active torsions:
REMARK  status: ('A' for Active; 'I' for Inactive)
REMARK    1  A    between atoms: C_3  and  C_30
REMARK    2  A    between atoms: C_5  and  N_8
REMARK    3  A    between atoms: C_9  and  C_11
REMARK    4  A    between atoms: C_11  and  O_12
REMARK    5  A    between atoms: O_12  and  C_13
REMARK    6  A    between atoms: C_13  and  C_14
REMARK    7  A    between atoms: N_16  and  C_17
REMARK    8  A    between atoms: C_21  and  C_24
REMARK                            x       y       z     vdW  Elec       q    Type
REMARK                         _______ _______ _______ _____ _____    ______ ____
ROOT
ATOM      1  O   UNL     1       5.001  -5.362   0.000  0.00  0.00    +0.000 OA
ENDROOT
BRANCH   1   2
ATOM      2  C   UNL     1       4.287  -4.950   0.000  0.00  0.00    +0.000 C 
BRANCH   2   4
ATOM      3  N   UNL     1       2.858  -4.950   0.000  0.00  0.00    +0.000 NA
ATOM      4  C   UNL     1       3.572  -5.362   0.000  0.00  0.00    +0.000 C 
ATOM      5  O   UNL     1       3.572  -6.188   0.000  0.00  0.00    +0.000 OA
BRANCH   3  10
ATOM      6  C   UNL     1       1.429  -6.600   0.000  0.00  0.00    +0.000 A 
ATOM      7  C   UNL     1       0.715  -6.188   0.000  0.00  0.00    +0.000 A 
ATOM      8  C   UNL     1       0.715  -5.362   0.000  0.00  0.00    +0.000 A 
ATOM      9  C   UNL     1       1.429  -4.950   0.000  0.00  0.00    +0.000 A 
ATOM     10  C   UNL     1       2.143  -5.362   0.000  0.00  0.00    +0.000 A 
ATOM     11  C   UNL     1       2.143  -6.188   0.000  0.00  0.00    +0.000 A 
ATOM     12  I   UNL     1       2.858  -6.600   0.000  0.00  0.00    +0.000 I 
ATOM     13  I   UNL     1       1.429  -4.125   0.000  0.00  0.00    +0.000 I 
ATOM     14  I   UNL     1       0.000  -6.600   0.000  0.00  0.00    +0.000 I 
BRANCH   8  15
ATOM     15  C   UNL     1       0.000  -4.950   0.000  0.00  0.00    +0.000 C 
ATOM     16  O   UNL     1      -0.715  -5.362   0.000  0.00  0.00    +0.000 OA
ATOM     17  O   UNL     1       0.000  -4.125   0.000  0.00  0.00    +0.000 OA
ENDBRANCH   8  15
ENDBRANCH   3  10
ENDBRANCH   2   4
ENDBRANCH   1   2
BRANCH   1  18
ATOM     18  C   UNL     1       5.716  -4.950   0.000  0.00  0.00    +0.000 C 
BRANCH  18  19
ATOM     19  C   UNL     1       6.430  -5.362   0.000  0.00  0.00    +0.000 C 
ATOM     20  O   UNL     1       6.430  -6.188   0.000  0.00  0.00    +0.000 OA
ATOM     21  N   UNL     1       7.145  -4.950   0.000  0.00  0.00    +0.000 NA
BRANCH  21  22
ATOM     22  C   UNL     1       7.859  -5.362   0.000  0.00  0.00    +0.000 A 
ATOM     23  C   UNL     1       8.574  -4.950   0.000  0.00  0.00    +0.000 A 
ATOM     24  C   UNL     1       9.288  -5.362   0.000  0.00  0.00    +0.000 A 
ATOM     25  C   UNL     1       9.288  -6.188   0.000  0.00  0.00    +0.000 A 
ATOM     26  C   UNL     1       8.574  -6.600   0.000  0.00  0.00    +0.000 A 
ATOM     27  C   UNL     1       7.859  -6.188   0.000  0.00  0.00    +0.000 A 
ATOM     28  I   UNL     1       7.145  -6.600   0.000  0.00  0.00    +0.000 I 
ATOM     29  I   UNL     1      10.003  -6.600   0.000  0.00  0.00    +0.000 I 
ATOM     30  I   UNL     1       8.574  -4.125   0.000  0.00  0.00    +0.000 I 
BRANCH  26  31
ATOM     31  C   UNL     1       8.574  -7.425   0.000  0.00  0.00    +0.000 C 
ATOM     32  O   UNL     1       9.288  -7.838   0.000  0.00  0.00    +0.000 OA
ATOM     33  O   UNL     1       7.859  -7.838   0.000  0.00  0.00    +0.000 OA
ENDBRANCH  26  31
ENDBRANCH  21  22
ENDBRANCH  18  19
ENDBRANCH   1  18
TORSDOF 8
