REMARK  Name = 
REMARK  2 active torsions:
REMARK  status: ('A' for Active; 'I' for Inactive)
REMARK    1  A    between atoms: CA_6  and  CB_7
REMARK    2  A    between atoms: CB_7  and  CG_8
REMARK                            x       y       z     vdW  Elec       q    Type
REMARK                         _______ _______ _______ _____ _____    ______ ____
ROOT
ATOM      1  CB  ALA A   1       0.715   2.062   0.000  0.00  0.00    +0.000 C 
ATOM      2  CA  ALA A   1       0.715   1.238   0.000  0.00  0.00    +0.000 C 
ATOM      3  N   ALA A   1       1.429   0.825   0.000  0.00  0.00    +0.000 NA
ATOM      4  C   ASP A   2       1.429   0.000   0.000  0.00  0.00    +0.000 C 
ATOM      5  O   ASP A   2       2.143  -0.412   0.000  0.00  0.00    +0.000 OA
ATOM      6  CA  ASP A   2       0.715  -0.412   0.000  0.00  0.00    +0.000 C 
ATOM      7  N   ASP A   2       0.000   0.000   0.000  0.00  0.00    +0.000 NA
ATOM      8  C   ALA A   1       0.000   0.825   0.000  0.00  0.00    +0.000 C 
ATOM      9  O   ALA A   1      -0.715   1.238   0.000  0.00  0.00    +0.000 OA
ENDROOT
BRANCH   6  10
ATOM     10  CB  ASP A   2       0.715  -1.238   0.000  0.00  0.00    +0.000 C 
BRANCH  10  11
ATOM     11  CG  ASP A   2       0.000  -1.650   0.000  0.00  0.00    +0.000 C 
ATOM     12  OD1 ASP A   2       0.000  -2.475   0.000  0.00  0.00    +0.000 OA
ATOM     13  OD2 ASP A   2      -0.715  -1.238   0.000  0.00  0.00    +0.000 OA
ENDBRANCH  10  11
ENDBRANCH   6  10
TORSDOF 2
