REMARK  Name = 
REMARK  6 active torsions:
REMARK  status: ('A' for Active; 'I' for Inactive)
REMARK    1  A    between atoms: C_3  and  N_6
REMARK    2  A    between atoms: N_6  and  C_7
REMARK    3  A    between atoms: C_14  and  C_15
REMARK    4  A    between atoms: N_16  and  O_17
REMARK    5  A    between atoms: O_17  and  C_19
REMARK    6  A    between atoms: C_19  and  C_20
REMARK                            x       y       z     vdW  Elec       q    Type
REMARK                         _______ _______ _______ _____ _____    ______ ____
ROOT
ATOM      1  C   UNL     1      -1.024  -0.617   0.000  0.00  0.00    +0.000 A 
ATOM      2  C   UNL     1      -0.310  -1.030   0.000  0.00  0.00    +0.000 A 
ATOM      3  C   UNL     1       0.403   0.213   0.000  0.00  0.00    +0.000 A 
ATOM      4  C   UNL     1       0.402  -0.619   0.000  0.00  0.00    +0.000 A 
ATOM      5  F   UNL     1       1.119  -1.034   0.000  0.00  0.00    +0.000 F 
ATOM      6  C   UNL     1      -1.023   0.209   0.000  0.00  0.00    +0.000 A 
ATOM      7  C   UNL     1      -0.310   0.620   0.000  0.00  0.00    +0.000 A 
ATOM      8  F   UNL     1      -0.310  -1.854   0.000  0.00  0.00    +0.000 F 
ENDROOT
BRANCH   7   9
ATOM      9  C   UNL     1      -0.309   1.438   0.000  0.00  0.00    +0.000 C 
ATOM     10  N   UNL     1      -1.020   1.852   0.000  0.00  0.00    +0.000 NA
ATOM     11  O   UNL     1       0.406   1.849   0.000  0.00  0.00    +0.000 OA
BRANCH  10  12
ATOM     12  O   UNL     1      -1.732   1.441   0.000  0.00  0.00    +0.000 OA
BRANCH  12  13
ATOM     13  C   UNL     1      -2.446   1.854   0.000  0.00  0.00    +0.000 C 
BRANCH  13  14
ATOM     14  C   UNL     1      -3.160   1.443   0.000  0.00  0.00    +0.000 C 
ATOM     15  C   UNL     1      -3.988   1.444   0.000  0.00  0.00    +0.000 C 
ATOM     16  C   UNL     1      -3.576   0.730   0.000  0.00  0.00    +0.000 C 
ENDBRANCH  13  14
ENDBRANCH  12  13
ENDBRANCH  10  12
ENDBRANCH   7   9
BRANCH   3  17
ATOM     17  N   UNL     1       1.121   0.631   0.000  0.00  0.00    +0.000 NA
BRANCH  17  18
ATOM     18  C   UNL     1       1.842   0.211   0.000  0.00  0.00    +0.000 A 
ATOM     19  C   UNL     1       1.841  -0.617   0.000  0.00  0.00    +0.000 A 
ATOM     20  C   UNL     1       2.556  -1.031   0.000  0.00  0.00    +0.000 A 
ATOM     21  C   UNL     1       3.274  -0.617   0.000  0.00  0.00    +0.000 A 
ATOM     22  C   UNL     1       3.271   0.214   0.000  0.00  0.00    +0.000 A 
ATOM     23  C   UNL     1       2.555   0.624   0.000  0.00  0.00    +0.000 A 
ATOM     24  I   UNL     1       3.988  -1.028   0.000  0.00  0.00    +0.000 I 
ATOM     25 CL   UNL     1       2.552   1.449   0.000  0.00  0.00    +0.000 Cl
ENDBRANCH  17  18
ENDBRANCH   3  17
TORSDOF 6
