REMARK  Name = 
REMARK  6 active torsions:
REMARK  status: ('A' for Active; 'I' for Inactive)
REMARK    1  A    between atoms: C_4  and  C_7
REMARK    2  A    between atoms: C_10  and  S_13
REMARK    3  A    between atoms: S_13  and  N_16
REMARK    4  A    between atoms: C_19  and  C_21
REMARK    5  A    between atoms: C_22  and  C_23
REMARK    6  A    between atoms: N_25  and  C_26
REMARK                            x       y       z     vdW  Elec       q    Type
REMARK                         _______ _______ _______ _____ _____    ______ ____
ROOT
ATOM      1  N   UNL     1       6.801 -12.792   0.000  0.00  0.00    +0.000 N 
ATOM      2  C   UNL     1       7.626 -12.792   0.000  0.00  0.00    +0.000 A 
ATOM      3  C   UNL     1       7.881 -13.577   0.000  0.00  0.00    +0.000 A 
ATOM      4  C   UNL     1       7.214 -14.062   0.000  0.00  0.00    +0.000 A 
ATOM      5  C   UNL     1       6.546 -13.577   0.000  0.00  0.00    +0.000 A 
ENDROOT
BRANCH   1   6
ATOM      6  S   UNL     1       6.316 -12.124   0.000  0.00  0.00    +0.000 S 
ATOM      7  O   UNL     1       5.649 -12.609   0.000  0.00  0.00    +0.000 OA
ATOM      8  O   UNL     1       6.984 -11.640   0.000  0.00  0.00    +0.000 OA
BRANCH   6  12
ATOM      9  C   UNL     1       4.862 -10.122   0.000  0.00  0.00    +0.000 A 
ATOM     10  C   UNL     1       5.682 -10.036   0.000  0.00  0.00    +0.000 A 
ATOM     11  C   UNL     1       6.167 -10.703   0.000  0.00  0.00    +0.000 A 
ATOM     12  C   UNL     1       5.831 -11.457   0.000  0.00  0.00    +0.000 A 
ATOM     13  C   UNL     1       5.011 -11.543   0.000  0.00  0.00    +0.000 A 
ATOM     14  C   UNL     1       4.526 -10.876   0.000  0.00  0.00    +0.000 A 
BRANCH   9  18
ATOM     15  C   UNL     1       3.964  -7.360   0.000  0.00  0.00    +0.000 C 
ATOM     16  N   UNL     1       3.964  -8.185   0.000  0.00  0.00    +0.000 N 
ATOM     17  C   UNL     1       4.631  -8.670   0.000  0.00  0.00    +0.000 A 
ATOM     18  C   UNL     1       4.377  -9.455   0.000  0.00  0.00    +0.000 A 
ATOM     19  C   UNL     1       3.552  -9.455   0.000  0.00  0.00    +0.000 A 
ATOM     20  N   UNL     1       3.297  -8.670   0.000  0.00  0.00    +0.000 NA
ENDBRANCH   9  18
ENDBRANCH   6  12
ENDBRANCH   1   6
BRANCH   4  21
ATOM     21  C   UNL     1       7.214 -14.886   0.000  0.00  0.00    +0.000 C 
ATOM     22  C   UNL     1       6.499 -15.299   0.000  0.00  0.00    +0.000 C 
BRANCH  22  23
ATOM     23  C   UNL     1       6.499 -16.124   0.000  0.00  0.00    +0.000 C 
ATOM     24  O   UNL     1       5.785 -16.537   0.000  0.00  0.00    +0.000 OA
ATOM     25  N   UNL     1       7.214 -16.537   0.000  0.00  0.00    +0.000 NA
BRANCH  25  26
ATOM     26  C   UNL     1       7.214 -17.361   0.000  0.00  0.00    +0.000 A 
ATOM     27  C   UNL     1       7.928 -17.774   0.000  0.00  0.00    +0.000 A 
ATOM     28  C   UNL     1       7.928 -18.599   0.000  0.00  0.00    +0.000 A 
ATOM     29  C   UNL     1       7.214 -19.012   0.000  0.00  0.00    +0.000 A 
ATOM     30  C   UNL     1       6.499 -18.599   0.000  0.00  0.00    +0.000 A 
ATOM     31  C   UNL     1       6.499 -17.774   0.000  0.00  0.00    +0.000 A 
ATOM     32  N   UNL     1       5.785 -17.361   0.000  0.00  0.00    +0.000 NA
ENDBRANCH  25  26
ENDBRANCH  22  23
ENDBRANCH   4  21
TORSDOF 6
