REMARK  Name = 
REMARK  3 active torsions:
REMARK  status: ('A' for Active; 'I' for Inactive)
REMARK    1  A    between atoms: C_1  and  C_4
REMARK    2  A    between atoms: C_8  and  C_17
REMARK    3  A    between atoms: C_15  and  C_29
REMARK                            x       y       z     vdW  Elec       q    Type
REMARK                         _______ _______ _______ _____ _____    ______ ____
ROOT
ATOM      1  C   UNL     1      -1.440  -0.402   0.000  0.00  0.00    +0.000 A 
ATOM      2  C   UNL     1      -0.718  -0.825   0.000  0.00  0.00    +0.000 A 
ATOM      3  C   UNL     1      -0.716  -1.650   0.000  0.00  0.00    +0.000 A 
ATOM      4  O   UNL     1       0.003  -0.423   0.000  0.00  0.00    +0.000 OA
ATOM      5  C   UNL     1       0.005  -2.073   0.000  0.00  0.00    +0.000 A 
ATOM      6  C   UNL     1       0.724  -0.846   0.000  0.00  0.00    +0.000 A 
ATOM      7  C   UNL     1       0.726  -1.671   0.000  0.00  0.00    +0.000 A 
ATOM      8  C   UNL     1      -2.160  -0.804   0.000  0.00  0.00    +0.000 A 
ATOM      9  C   UNL     1      -1.437  -2.052   0.000  0.00  0.00    +0.000 A 
ATOM     10  C   UNL     1      -2.159  -1.629   0.000  0.00  0.00    +0.000 A 
ATOM     11  O   UNL     1       0.006  -2.898   0.000  0.00  0.00    +0.000 OA
ATOM     12  O   UNL     1      -2.881  -0.381   0.000  0.00  0.00    +0.000 OA
ATOM     13  O   UNL     1      -1.433  -2.873   0.000  0.00  0.00    +0.000 OA
ENDROOT
BRANCH   1  14
ATOM     14  C   UNL     1      -1.441   0.423   0.000  0.00  0.00    +0.000 C 
ATOM     15  O   UNL     1      -2.162   0.846   0.000  0.00  0.00    +0.000 OA
ATOM     16  C   UNL     1      -0.720   0.825   0.000  0.00  0.00    +0.000 C 
ATOM     17  C   UNL     1      -0.722   1.650   0.000  0.00  0.00    +0.000 C 
ATOM     18  C   UNL     1      -1.443   2.073   0.000  0.00  0.00    +0.000 C 
ATOM     19  C   UNL     1      -2.164   1.671   0.000  0.00  0.00    +0.000 C 
ATOM     20  O   UNL     1       0.001   0.402   0.000  0.00  0.00    +0.000 OA
ATOM     21  O   UNL     1      -0.001   2.052   0.000  0.00  0.00    +0.000 OA
ATOM     22  O   UNL     1      -1.445   2.898   0.000  0.00  0.00    +0.000 OA
BRANCH  19  23
ATOM     23  C   UNL     1      -2.885   2.094   0.000  0.00  0.00    +0.000 C 
ATOM     24  O   UNL     1      -3.602   1.690   0.000  0.00  0.00    +0.000 OA
ENDBRANCH  19  23
ENDBRANCH   1  14
BRANCH   6  25
ATOM     25  C   UNL     1       1.445  -0.444   0.000  0.00  0.00    +0.000 A 
ATOM     26  C   UNL     1       2.166  -0.867   0.000  0.00  0.00    +0.000 A 
ATOM     27  C   UNL     1       1.443   0.381   0.000  0.00  0.00    +0.000 A 
ATOM     28  C   UNL     1       2.885   0.360   0.000  0.00  0.00    +0.000 A 
ATOM     29  C   UNL     1       2.164   0.783   0.000  0.00  0.00    +0.000 A 
ATOM     30  C   UNL     1       2.883  -0.463   0.000  0.00  0.00    +0.000 A 
ATOM     31  O   UNL     1       3.602   0.764   0.000  0.00  0.00    +0.000 OA
ENDBRANCH   6  25
TORSDOF 3
