REMARK  Name = 
REMARK  3 active torsions:
REMARK  status: ('A' for Active; 'I' for Inactive)
REMARK    1  A    between atoms: N_2  and  C_7
REMARK    2  A    between atoms: N_2  and  C_8
REMARK    3  A    between atoms: N_3  and  N_4
REMARK                            x       y       z     vdW  Elec       q    Type
REMARK                         _______ _______ _______ _____ _____    ______ ____
ROOT
ATOM      1  O   UNL     1      -1.429  -0.206   0.000  0.00  0.00    +0.000 OA
ATOM      2  N   UNL     1       0.000  -0.206   0.000  0.00  0.00    +0.000 N 
ATOM      3  N   UNL     1      -0.714   1.031   0.000  0.00  0.00    +0.000 NA
ATOM      4  C   UNL     1      -0.714   0.206   0.000  0.00  0.00    +0.000 C 
ENDROOT
BRANCH   2   5
ATOM      5  C   UNL     1       0.000  -1.031   0.000  0.00  0.00    +0.000 A 
ATOM      6  C   UNL     1      -0.714  -1.444   0.000  0.00  0.00    +0.000 A 
ATOM      7  C   UNL     1       0.714  -1.444   0.000  0.00  0.00    +0.000 A 
ATOM      8  C   UNL     1      -0.714  -2.269   0.000  0.00  0.00    +0.000 A 
ATOM      9  C   UNL     1       0.714  -2.269   0.000  0.00  0.00    +0.000 A 
ATOM     10  C   UNL     1       0.000  -2.681   0.000  0.00  0.00    +0.000 A 
ENDBRANCH   2   5
BRANCH   2  11
ATOM     11  C   UNL     1       0.714   0.206   0.000  0.00  0.00    +0.000 A 
ATOM     12  C   UNL     1       0.714   1.031   0.000  0.00  0.00    +0.000 A 
ATOM     13  C   UNL     1       1.429  -0.206   0.000  0.00  0.00    +0.000 A 
ATOM     14  C   UNL     1       1.429   1.444   0.000  0.00  0.00    +0.000 A 
ATOM     15  C   UNL     1       2.143   0.206   0.000  0.00  0.00    +0.000 A 
ATOM     16  C   UNL     1       2.143   1.031   0.000  0.00  0.00    +0.000 A 
ENDBRANCH   2  11
BRANCH   3  17
ATOM     17  N   UNL     1      -1.429   1.444   0.000  0.00  0.00    +0.000 NA
ATOM     18  N   UNL     1      -2.143   2.681   0.000  0.00  0.00    +0.000 NA
ATOM     19  N   UNL     1      -0.714   2.681   0.000  0.00  0.00    +0.000 NA
ATOM     20  C   UNL     1      -1.429   2.269   0.000  0.00  0.00    +0.000 C 
ENDBRANCH   3  17
TORSDOF 3
