REMARK  Name = 
REMARK  4 active torsions:
REMARK  status: ('A' for Active; 'I' for Inactive)
REMARK    1  A    between atoms: N_1  and  C_2
REMARK    2  A    between atoms: N_1  and  C_3
REMARK    3  A    between atoms: N_1  and  C_4
REMARK    4  A    between atoms: N_1  and  C_5
REMARK                            x       y       z     vdW  Elec       q    Type
REMARK                         _______ _______ _______ _____ _____    ______ ____
ROOT
ATOM      1  N   UNL     1       0.001  -0.011   0.000  0.00  0.00    +0.000 N 
ENDROOT
BRANCH   1   2
ATOM      2  C   UNL     1       0.416  -0.693   0.000  0.00  0.00    +0.000 C 
ATOM      3  C   UNL     1       1.234  -0.693   0.000  0.00  0.00    +0.000 C 
ENDBRANCH   1   2
BRANCH   1   4
ATOM      4  C   UNL     1      -0.691  -0.406   0.000  0.00  0.00    +0.000 C 
ATOM      5  C   UNL     1      -0.691  -1.231   0.000  0.00  0.00    +0.000 C 
ENDBRANCH   1   4
BRANCH   1   6
ATOM      6  C   UNL     1      -0.407   0.675   0.000  0.00  0.00    +0.000 C 
ATOM      7  C   UNL     1      -1.234   0.664   0.000  0.00  0.00    +0.000 C 
ENDBRANCH   1   6
BRANCH   1   8
ATOM      8  C   UNL     1       0.687   0.377   0.000  0.00  0.00    +0.000 C 
ATOM      9  C   UNL     1       0.692   1.231   0.000  0.00  0.00    +0.000 C 
ENDBRANCH   1   8
TORSDOF 4
