REMARK  Name = 
REMARK  13 active torsions:
REMARK  status: ('A' for Active; 'I' for Inactive)
REMARK    1  A    between atoms: C_2  and  C_3
REMARK    2  A    between atoms: C_3  and  C_4
REMARK    3  A    between atoms: C_4  and  C_5
REMARK    4  A    between atoms: C_5  and  C_6
REMARK    5  A    between atoms: C_6  and  C_7
REMARK    6  A    between atoms: C_10  and  N_13
REMARK    7  A    between atoms: C_14  and  C_19
REMARK    8  A    between atoms: C_19  and  O_20
REMARK    9  A    between atoms: O_20  and  C_21
REMARK   10  A    between atoms: C_21  and  C_22
REMARK   11  A    between atoms: C_25  and  C_27
REMARK   12  A    between atoms: C_27  and  O_29
REMARK   13  A    between atoms: O_29  and  C_30
REMARK                            x       y       z     vdW  Elec       q    Type
REMARK                         _______ _______ _______ _____ _____    ______ ____
ROOT
ATOM      1  N   UNL     1       7.859  -5.362   0.000  0.00  0.00    +0.000 N 
ATOM      2  C   UNL     1       8.613  -5.027   0.000  0.00  0.00    +0.000 C 
ATOM      3  C   UNL     1       9.165  -5.640   0.000  0.00  0.00    +0.000 C 
ATOM      4  C   UNL     1       8.752  -6.354   0.000  0.00  0.00    +0.000 C 
ATOM      5  C   UNL     1       7.945  -6.183   0.000  0.00  0.00    +0.000 C 
ATOM      6  O   UNL     1       7.332  -6.735   0.000  0.00  0.00    +0.000 OA
ENDROOT
BRANCH   1  10
ATOM      7  C   UNL     1       5.716  -4.125   0.000  0.00  0.00    +0.000 A 
ATOM      8  C   UNL     1       6.430  -3.712   0.000  0.00  0.00    +0.000 A 
ATOM      9  C   UNL     1       7.145  -4.125   0.000  0.00  0.00    +0.000 A 
ATOM     10  C   UNL     1       7.145  -4.950   0.000  0.00  0.00    +0.000 A 
ATOM     11  C   UNL     1       6.430  -5.362   0.000  0.00  0.00    +0.000 A 
ATOM     12  C   UNL     1       5.716  -4.950   0.000  0.00  0.00    +0.000 A 
BRANCH   7  13
ATOM     13  C   UNL     1       5.001  -3.712   0.000  0.00  0.00    +0.000 C 
ATOM     14  O   UNL     1       5.001  -2.888   0.000  0.00  0.00    +0.000 OA
BRANCH  13  15
ATOM     15  C   UNL     1       4.287  -4.125   0.000  0.00  0.00    +0.000 C 
BRANCH  15  16
ATOM     16  C   UNL     1       3.572  -3.712   0.000  0.00  0.00    +0.000 C 
BRANCH  16  17
ATOM     17  C   UNL     1       2.858  -4.125   0.000  0.00  0.00    +0.000 C 
BRANCH  17  19
ATOM     18  C   UNL     1       1.429  -4.125   0.000  0.00  0.00    +0.000 C 
ATOM     19  C   UNL     1       2.143  -3.712   0.000  0.00  0.00    +0.000 C 
ENDBRANCH  17  19
ENDBRANCH  16  17
ENDBRANCH  15  16
ENDBRANCH  13  15
ENDBRANCH   7  13
ENDBRANCH   1  10
BRANCH   2  20
ATOM     20  C   UNL     1       8.784  -4.220   0.000  0.00  0.00    +0.000 C 
BRANCH  20  21
ATOM     21  O   UNL     1       9.569  -3.965   0.000  0.00  0.00    +0.000 OA
BRANCH  21  22
ATOM     22  C   UNL     1      10.182  -4.517   0.000  0.00  0.00    +0.000 C 
BRANCH  22  23
ATOM     23  C   UNL     1      10.967  -4.262   0.000  0.00  0.00    +0.000 A 
ATOM     24  C   UNL     1      11.222  -3.478   0.000  0.00  0.00    +0.000 A 
ATOM     25  C   UNL     1      12.047  -3.478   0.000  0.00  0.00    +0.000 A 
ATOM     26  C   UNL     1      12.302  -4.262   0.000  0.00  0.00    +0.000 A 
ATOM     27  S   UNL     1      11.634  -4.747   0.000  0.00  0.00    +0.000 S 
BRANCH  26  28
ATOM     28  C   UNL     1      13.086  -4.517   0.000  0.00  0.00    +0.000 C 
ATOM     29  O   UNL     1      13.258  -5.324   0.000  0.00  0.00    +0.000 OA
BRANCH  28  30
ATOM     30  O   UNL     1      13.699  -3.965   0.000  0.00  0.00    +0.000 OA
BRANCH  30  31
ATOM     31  C   UNL     1      14.484  -4.220   0.000  0.00  0.00    +0.000 C 
ATOM     32  C   UNL     1      15.097  -3.668   0.000  0.00  0.00    +0.000 C 
ATOM     33  C   UNL     1      14.655  -5.027   0.000  0.00  0.00    +0.000 C 
ENDBRANCH  30  31
ENDBRANCH  28  30
ENDBRANCH  26  28
ENDBRANCH  22  23
ENDBRANCH  21  22
ENDBRANCH  20  21
ENDBRANCH   2  20
TORSDOF 13
