REMARK  Name = 
REMARK  6 active torsions:
REMARK  status: ('A' for Active; 'I' for Inactive)
REMARK    1  A    between atoms: N_4  and  C_14
REMARK    2  A    between atoms: C_5  and  C_6
REMARK    3  A    between atoms: C_5  and  C_7
REMARK    4  A    between atoms: C_5  and  C_8
REMARK    5  A    between atoms: C_5  and  C_9
REMARK    6  A    between atoms: C_9  and  C_14
REMARK                            x       y       z     vdW  Elec       q    Type
REMARK                         _______ _______ _______ _____ _____    ______ ____
ROOT
ATOM      1  C   UNL     1      -0.595   0.121   0.000  0.00  0.00    +0.000 C 
ENDROOT
BRANCH   1   4
ATOM      2  O   UNL     1       0.098   1.364   0.000  0.00  0.00    +0.000 OA
ATOM      3  N   UNL     1      -1.335   1.363   0.000  0.00  0.00    +0.000 N 
ATOM      4  C   UNL     1      -0.596   0.955   0.000  0.00  0.00    +0.000 C 
ATOM      5  C   UNL     1      -2.080   1.041   0.000  0.00  0.00    +0.000 C 
ATOM      6  C   UNL     1      -1.394   2.189   0.000  0.00  0.00    +0.000 C 
ATOM      7  C   UNL     1      -2.227   2.341   0.000  0.00  0.00    +0.000 C 
ATOM      8  C   UNL     1      -2.607   1.632   0.000  0.00  0.00    +0.000 C 
ENDBRANCH   1   4
BRANCH   1   9
ATOM      9  C   UNL     1      -1.428   0.120   0.000  0.00  0.00    +0.000 A 
ATOM     10  C   UNL     1      -1.866  -0.589   0.000  0.00  0.00    +0.000 A 
ATOM     11  C   UNL     1      -1.867   0.829   0.000  0.00  0.00    +0.000 A 
ATOM     12  C   UNL     1      -2.663  -0.590   0.000  0.00  0.00    +0.000 A 
ATOM     13  C   UNL     1      -2.664   0.828   0.000  0.00  0.00    +0.000 A 
ATOM     14  C   UNL     1      -3.087   0.119   0.000  0.00  0.00    +0.000 A 
ENDBRANCH   1   9
BRANCH   1  15
ATOM     15  C   UNL     1      -0.594  -0.683   0.000  0.00  0.00    +0.000 A 
ATOM     16  C   UNL     1       0.100  -1.128   0.000  0.00  0.00    +0.000 A 
ATOM     17  C   UNL     1      -1.332  -1.129   0.000  0.00  0.00    +0.000 A 
ATOM     18  C   UNL     1       0.101  -1.931   0.000  0.00  0.00    +0.000 A 
ATOM     19  C   UNL     1      -1.331  -1.933   0.000  0.00  0.00    +0.000 A 
ATOM     20  C   UNL     1      -0.593  -2.341   0.000  0.00  0.00    +0.000 A 
ENDBRANCH   1  15
BRANCH   1  21
ATOM     21  C   UNL     1       0.209   0.122   0.000  0.00  0.00    +0.000 C 
ATOM     22  C   UNL     1       0.626  -0.586   0.000  0.00  0.00    +0.000 C 
BRANCH  21  23
ATOM     23  C   UNL     1       0.624   0.832   0.000  0.00  0.00    +0.000 C 
BRANCH  23  25
ATOM     24  O   UNL     1       3.087   0.834   0.000  0.00  0.00    +0.000 OA
ATOM     25  N   UNL     1       1.458   0.832   0.000  0.00  0.00    +0.000 NA
ATOM     26  C   UNL     1       1.867   0.124   0.000  0.00  0.00    +0.000 C 
ATOM     27  C   UNL     1       1.866   1.578   0.000  0.00  0.00    +0.000 C 
ATOM     28  C   UNL     1       2.699   1.579   0.000  0.00  0.00    +0.000 C 
ATOM     29  C   UNL     1       2.701   0.125   0.000  0.00  0.00    +0.000 C 
ENDBRANCH  23  25
ENDBRANCH  21  23
ENDBRANCH   1  21
TORSDOF 6
