REMARK  Name = 
REMARK  3 active torsions:
REMARK  status: ('A' for Active; 'I' for Inactive)
REMARK    1  A    between atoms: C_1  and  S_13
REMARK    2  A    between atoms: N_6  and  C_8
REMARK    3  A    between atoms: N_10  and  C_15
REMARK                            x       y       z     vdW  Elec       q    Type
REMARK                         _______ _______ _______ _____ _____    ______ ____
ROOT
ATOM      1  C   UNL     1       0.000   0.206   0.000  0.00  0.00    +0.000 A 
ATOM      2  N   UNL     1       0.715  -0.206   0.000  0.00  0.00    +0.000 NA
ATOM      3  N   UNL     1      -0.715  -0.206   0.000  0.00  0.00    +0.000 NA
ATOM      4  C   UNL     1      -0.715  -1.031   0.000  0.00  0.00    +0.000 A 
ATOM      5  N   UNL     1       0.000  -1.444   0.000  0.00  0.00    +0.000 NA
ATOM      6  N   UNL     1      -1.429  -1.444   0.000  0.00  0.00    +0.000 NA
ATOM      7  C   UNL     1       0.715  -1.031   0.000  0.00  0.00    +0.000 A 
ATOM      8  N   UNL     1       1.429  -1.444   0.000  0.00  0.00    +0.000 NA
ENDROOT
BRANCH   8  11
ATOM      9  C   UNL     1       2.143  -0.206   0.000  0.00  0.00    +0.000 C 
ATOM     10  C   UNL     1       2.858  -1.444   0.000  0.00  0.00    +0.000 C 
ATOM     11  C   UNL     1       2.143  -1.031   0.000  0.00  0.00    +0.000 C 
ATOM     12  C   UNL     1       2.858  -0.619   0.000  0.00  0.00    +0.000 C 
ENDBRANCH   8  11
BRANCH   6  14
ATOM     13  C   UNL     1      -2.858  -1.444   0.000  0.00  0.00    +0.000 C 
ATOM     14  C   UNL     1      -2.143  -1.031   0.000  0.00  0.00    +0.000 C 
ENDBRANCH   6  14
BRANCH   1  15
ATOM     15  S   UNL     1       0.000   1.031   0.000  0.00  0.00    +0.000 S 
ATOM     16  C   UNL     1       0.715   1.444   0.000  0.00  0.00    +0.000 C 
ENDBRANCH   1  15
TORSDOF 3
