REMARK  Name = 
REMARK  7 active torsions:
REMARK  status: ('A' for Active; 'I' for Inactive)
REMARK    1  A    between atoms: N_5  and  C_6
REMARK    2  A    between atoms: C_6  and  C_7
REMARK    3  A    between atoms: N_9  and  CA_10
REMARK    4  A    between atoms: CA_15  and  C_26
REMARK    5  A    between atoms: C_16  and  C_19
REMARK    6  A    between atoms: C_19  and  S_20
REMARK    7  A    between atoms: S_20  and  C_21
REMARK                            x       y       z     vdW  Elec       q    Type
REMARK                         _______ _______ _______ _____ _____    ______ ____
ROOT
ATOM      1  CA  UNL     1      -0.262  -0.976   0.000  0.00  0.00    +0.000 C 
ATOM      2  C   UNL     1       0.564  -0.976   0.000  0.00  0.00    +0.000 C 
ATOM      3  N   UNL     1       0.564  -0.151   0.000  0.00  0.00    +0.000 N 
ATOM      4  C   UNL     1      -0.262  -0.151   0.000  0.00  0.00    +0.000 C 
ATOM      5  O   UNL     1      -0.845   0.432   0.000  0.00  0.00    +0.000 OA
ATOM      6  CA  UNL     1       1.278   0.262   0.000  0.00  0.00    +0.000 C 
ATOM      7  C   UNL     1       1.992  -0.151   0.000  0.00  0.00    +0.000 C 
ATOM      8  C   UNL     1       1.992  -0.976   0.000  0.00  0.00    +0.000 C 
ATOM      9  S   UNL     1       1.278  -1.389   0.000  0.00  0.00    +0.000 S 
ENDROOT
BRANCH   1  12
ATOM     10  C   UNL     1      -1.642  -1.346   0.000  0.00  0.00    +0.000 C 
ATOM     11  O   UNL     1      -1.855  -0.549   0.000  0.00  0.00    +0.000 OA
ATOM     12  N   UNL     1      -0.845  -1.559   0.000  0.00  0.00    +0.000 NA
BRANCH  10  13
ATOM     13  C   UNL     1      -2.225  -1.929   0.000  0.00  0.00    +0.000 C 
BRANCH  13  18
ATOM     14  C   UNL     1      -3.663  -2.235   0.000  0.00  0.00    +0.000 A 
ATOM     15  N   UNL     1      -4.355  -1.786   0.000  0.00  0.00    +0.000 NA
ATOM     16  N   UNL     1      -4.141  -0.989   0.000  0.00  0.00    +0.000 NA
ATOM     17  N   UNL     1      -3.318  -0.946   0.000  0.00  0.00    +0.000 NA
ATOM     18  N   UNL     1      -3.022  -1.716   0.000  0.00  0.00    +0.000 N 
ENDBRANCH  13  18
ENDBRANCH  10  13
ENDBRANCH   1  12
BRANCH   6  19
ATOM     19  C   UNL     1       1.278   1.087   0.000  0.00  0.00    +0.000 C 
ATOM     20  O   UNL     1       1.992   1.499   0.000  0.00  0.00    +0.000 OA
ATOM     21  OXT UNL     1       0.564   1.499   0.000  0.00  0.00    +0.000 OA
ENDBRANCH   6  19
BRANCH   7  22
ATOM     22  C   UNL     1       2.707   0.262   0.000  0.00  0.00    +0.000 C 
BRANCH  22  23
ATOM     23  S   UNL     1       2.707   1.087   0.000  0.00  0.00    +0.000 S 
BRANCH  23  24
ATOM     24  C   UNL     1       3.421   1.499   0.000  0.00  0.00    +0.000 A 
ATOM     25  N   UNL     1       3.508   2.320   0.000  0.00  0.00    +0.000 NA
ATOM     26  N   UNL     1       4.315   2.491   0.000  0.00  0.00    +0.000 NA
ATOM     27  C   UNL     1       4.727   1.777   0.000  0.00  0.00    +0.000 A 
ATOM     28  S   UNL     1       4.175   1.163   0.000  0.00  0.00    +0.000 S 
ENDBRANCH  23  24
ENDBRANCH  22  23
ENDBRANCH   7  22
TORSDOF 7
