REMARK  Name = 
REMARK  6 active torsions:
REMARK  status: ('A' for Active; 'I' for Inactive)
REMARK    1  A    between atoms: C_1  and  C_2
REMARK    2  A    between atoms: N_5  and  C_10
REMARK    3  A    between atoms: N_5  and  C_17
REMARK    4  A    between atoms: N_12  and  C_18
REMARK    5  A    between atoms: C_18  and  C_19
REMARK    6  A    between atoms: C_19  and  C_23
REMARK                            x       y       z     vdW  Elec       q    Type
REMARK                         _______ _______ _______ _____ _____    ______ ____
ROOT
ATOM      1  N   UNL     1       0.000  -0.367   0.000  0.00  0.00    +0.000 NA
ATOM      2  C   UNL     1       0.712   0.000   0.000  0.00  0.00    +0.000 C 
ATOM      3  C   UNL     1      -0.713   0.000   0.000  0.00  0.00    +0.000 C 
ATOM      4  C   UNL     1       0.712   0.862   0.000  0.00  0.00    +0.000 C 
ATOM      5  C   UNL     1      -0.713   0.862   0.000  0.00  0.00    +0.000 C 
ATOM      6  C   UNL     1       0.000   1.275   0.000  0.00  0.00    +0.000 C 
ENDROOT
BRANCH   6   9
ATOM      7  C   UNL     1      -0.713   2.512   0.000  0.00  0.00    +0.000 C 
ATOM      8  O   UNL     1      -0.713   3.337   0.000  0.00  0.00    +0.000 OA
ATOM      9  N   UNL     1       0.000   2.100   0.000  0.00  0.00    +0.000 N 
BRANCH   9  14
ATOM     10  C   UNL     1       1.432   3.750   0.000  0.00  0.00    +0.000 A 
ATOM     11  C   UNL     1       2.183   3.337   0.000  0.00  0.00    +0.000 A 
ATOM     12  C   UNL     1       2.183   2.512   0.000  0.00  0.00    +0.000 A 
ATOM     13  C   UNL     1       1.470   2.100   0.000  0.00  0.00    +0.000 A 
ATOM     14  C   UNL     1       0.712   2.512   0.000  0.00  0.00    +0.000 A 
ATOM     15  C   UNL     1       0.712   3.337   0.000  0.00  0.00    +0.000 A 
ENDBRANCH   9  14
BRANCH   7  16
ATOM     16  C   UNL     1      -1.470   2.100   0.000  0.00  0.00    +0.000 C 
ATOM     17  C   UNL     1      -2.183   2.512   0.000  0.00  0.00    +0.000 C 
ENDBRANCH   7  16
ENDBRANCH   6   9
BRANCH   1  18
ATOM     18  C   UNL     1       0.000  -1.237   0.000  0.00  0.00    +0.000 C 
BRANCH  18  19
ATOM     19  C   UNL     1       0.712  -1.650   0.000  0.00  0.00    +0.000 C 
ATOM     20  O   UNL     1       1.432  -1.237   0.000  0.00  0.00    +0.000 OA
BRANCH  19  23
ATOM     21  S   UNL     1       0.045  -2.970   0.000  0.00  0.00    +0.000 S 
ATOM     22  C   UNL     1       0.307  -3.750   0.000  0.00  0.00    +0.000 A 
ATOM     23  C   UNL     1       0.712  -2.475   0.000  0.00  0.00    +0.000 A 
ATOM     24  C   UNL     1       1.387  -2.970   0.000  0.00  0.00    +0.000 A 
ATOM     25  C   UNL     1       1.125  -3.750   0.000  0.00  0.00    +0.000 A 
ENDBRANCH  19  23
ENDBRANCH  18  19
ENDBRANCH   1  18
TORSDOF 6
