REMARK  Name = 
REMARK  7 active torsions:
REMARK  status: ('A' for Active; 'I' for Inactive)
REMARK    1  A    between atoms: C_2  and  O_3
REMARK    2  A    between atoms: C_2  and  O_7
REMARK    3  A    between atoms: O_3  and  C_4
REMARK    4  A    between atoms: O_7  and  C_8
REMARK    5  A    between atoms: C_8  and  C_10
REMARK    6  A    between atoms: C_10  and  C_12
REMARK    7  A    between atoms: C_16  and  C_19
REMARK                            x       y       z     vdW  Elec       q    Type
REMARK                         _______ _______ _______ _____ _____    ______ ____
ROOT
ATOM      1  C   UNL     1       5.716  -6.600   0.000  0.00  0.00    +0.000 A 
ATOM      2  C   UNL     1       6.430  -6.188   0.000  0.00  0.00    +0.000 A 
ATOM      3  C   UNL     1       7.145  -6.600   0.000  0.00  0.00    +0.000 A 
ATOM      4  F   UNL     1       7.859  -6.188   0.000  0.00  0.00    +0.000 F 
ATOM      5  C   UNL     1       7.145  -7.425   0.000  0.00  0.00    +0.000 A 
ATOM      6  C   UNL     1       6.430  -7.838   0.000  0.00  0.00    +0.000 A 
ATOM      7  C   UNL     1       5.716  -7.425   0.000  0.00  0.00    +0.000 A 
ENDROOT
BRANCH   5   8
ATOM      8  C   UNL     1       7.859  -7.838   0.000  0.00  0.00    +0.000 A 
ATOM      9  C   UNL     1       8.574  -7.425   0.000  0.00  0.00    +0.000 A 
ATOM     10  C   UNL     1       9.288  -7.838   0.000  0.00  0.00    +0.000 A 
ATOM     11  C   UNL     1       9.288  -8.662   0.000  0.00  0.00    +0.000 A 
ATOM     12  C   UNL     1       8.574  -9.075   0.000  0.00  0.00    +0.000 A 
ATOM     13  C   UNL     1       7.859  -8.662   0.000  0.00  0.00    +0.000 A 
ENDBRANCH   5   8
BRANCH   1  14
ATOM     14  C   UNL     1       5.001  -6.188   0.000  0.00  0.00    +0.000 C 
ATOM     15  C   UNL     1       5.001  -5.362   0.000  0.00  0.00    +0.000 C 
BRANCH  14  16
ATOM     16  C   UNL     1       4.287  -6.600   0.000  0.00  0.00    +0.000 C 
ATOM     17  O   UNL     1       4.287  -7.425   0.000  0.00  0.00    +0.000 OA
BRANCH  16  18
ATOM     18  O   UNL     1       3.572  -6.188   0.000  0.00  0.00    +0.000 OA
BRANCH  18  20
ATOM     19  C   UNL     1       2.858  -7.425   0.000  0.00  0.00    +0.000 C 
ATOM     20  C   UNL     1       2.858  -6.600   0.000  0.00  0.00    +0.000 C 
BRANCH  20  21
ATOM     21  O   UNL     1       2.143  -6.188   0.000  0.00  0.00    +0.000 OA
BRANCH  21  22
ATOM     22  C   UNL     1       1.429  -6.600   0.000  0.00  0.00    +0.000 C 
ATOM     23  C   UNL     1       0.715  -6.188   0.000  0.00  0.00    +0.000 C 
ATOM     24  O   UNL     1       1.429  -7.425   0.000  0.00  0.00    +0.000 OA
ENDBRANCH  21  22
ENDBRANCH  20  21
ENDBRANCH  18  20
ENDBRANCH  16  18
ENDBRANCH  14  16
ENDBRANCH   1  14
TORSDOF 7
