REMARK  Name = 
REMARK  5 active torsions:
REMARK  status: ('A' for Active; 'I' for Inactive)
REMARK    1  A    between atoms: N_4  and  C_5
REMARK    2  A    between atoms: C_8  and  S_11
REMARK    3  A    between atoms: S_11  and  N_14
REMARK    4  A    between atoms: N_14  and  C_15
REMARK    5  A    between atoms: C_18  and  N_21
REMARK                            x       y       z     vdW  Elec       q    Type
REMARK                         _______ _______ _______ _____ _____    ______ ____
ROOT
ATOM      1  S   UNL     1       2.858  -4.125   0.000  0.00  0.00    +0.000 S 
ATOM      2  O   UNL     1       2.033  -4.125   0.000  0.00  0.00    +0.000 OA
ATOM      3  O   UNL     1       3.683  -4.125   0.000  0.00  0.00    +0.000 OA
ENDROOT
BRANCH   1   7
ATOM      4  C   UNL     1       2.858  -1.650   0.000  0.00  0.00    +0.000 A 
ATOM      5  C   UNL     1       3.572  -2.062   0.000  0.00  0.00    +0.000 A 
ATOM      6  C   UNL     1       3.572  -2.888   0.000  0.00  0.00    +0.000 A 
ATOM      7  C   UNL     1       2.858  -3.300   0.000  0.00  0.00    +0.000 A 
ATOM      8  C   UNL     1       2.143  -2.888   0.000  0.00  0.00    +0.000 A 
ATOM      9  C   UNL     1       2.143  -2.062   0.000  0.00  0.00    +0.000 A 
BRANCH   4  13
ATOM     10  C   UNL     1       2.143   0.412   0.000  0.00  0.00    +0.000 C 
ATOM     11  C   UNL     1       2.143  -0.412   0.000  0.00  0.00    +0.000 C 
ATOM     12  O   UNL     1       1.429  -0.825   0.000  0.00  0.00    +0.000 OA
ATOM     13  N   UNL     1       2.858  -0.825   0.000  0.00  0.00    +0.000 NA
ENDBRANCH   4  13
ENDBRANCH   1   7
BRANCH   1  14
ATOM     14  N   UNL     1       2.858  -4.950   0.000  0.00  0.00    +0.000 NA
BRANCH  14  15
ATOM     15  C   UNL     1       2.143  -5.362   0.000  0.00  0.00    +0.000 A 
ATOM     16  C   UNL     1       2.143  -6.188   0.000  0.00  0.00    +0.000 A 
ATOM     17  C   UNL     1       1.429  -6.600   0.000  0.00  0.00    +0.000 A 
ATOM     18  C   UNL     1       0.715  -6.188   0.000  0.00  0.00    +0.000 A 
ATOM     19  C   UNL     1       0.715  -5.362   0.000  0.00  0.00    +0.000 A 
ATOM     20  C   UNL     1       1.429  -4.950   0.000  0.00  0.00    +0.000 A 
BRANCH  18  21
ATOM     21  N   UNL     1       0.000  -6.600   0.000  0.00  0.00    +0.000 N 
ATOM     22  O   UNL     1       0.000  -7.425   0.000  0.00  0.00    +0.000 OA
ATOM     23  O   UNL     1      -0.715  -6.188   0.000  0.00  0.00    +0.000 OA
ENDBRANCH  18  21
ENDBRANCH  14  15
ENDBRANCH   1  14
TORSDOF 5
