REMARK  Name = 
REMARK  7 active torsions:
REMARK  status: ('A' for Active; 'I' for Inactive)
REMARK    1  A    between atoms: C_2  and  C_18
REMARK    2  A    between atoms: C_5  and  C_6
REMARK    3  A    between atoms: N_8  and  C_9
REMARK    4  A    between atoms: C_9  and  C_10
REMARK    5  A    between atoms: C_10  and  N_11
REMARK    6  A    between atoms: N_11  and  C_12
REMARK    7  A    between atoms: N_11  and  C_14
REMARK                            x       y       z     vdW  Elec       q    Type
REMARK                         _______ _______ _______ _____ _____    ______ ____
ROOT
ATOM      1  N   UNL     1       1.083  -1.808   0.000  0.00  0.00    +0.000 NA
ATOM      2  C   UNL     1       0.411  -1.312   0.000  0.00  0.00    +0.000 A 
ATOM      3  C   UNL     1       1.754  -1.312   0.000  0.00  0.00    +0.000 A 
ATOM      4  C   UNL     1       0.658  -0.535   0.000  0.00  0.00    +0.000 A 
ATOM      5  C   UNL     1       1.507  -0.535   0.000  0.00  0.00    +0.000 A 
ATOM      6  C   UNL     1       2.568  -1.595   0.000  0.00  0.00    +0.000 C 
ATOM      7  C   UNL     1       0.199   0.137   0.000  0.00  0.00    +0.000 C 
ENDROOT
BRANCH   2   8
ATOM      8  C   UNL     1      -0.365  -1.565   0.000  0.00  0.00    +0.000 C 
ATOM      9  N   UNL     1      -0.641  -3.718   0.000  0.00  0.00    +0.000 NA
ATOM     10  C   UNL     1      -0.124  -3.055   0.000  0.00  0.00    +0.000 C 
ATOM     11  C   UNL     1      -1.431  -3.477   0.000  0.00  0.00    +0.000 A 
ATOM     12  C   UNL     1      -1.431  -2.621   0.000  0.00  0.00    +0.000 A 
ATOM     13  C   UNL     1      -0.637  -2.371   0.000  0.00  0.00    +0.000 C 
ATOM     14  C   UNL     1      -2.154  -3.849   0.000  0.00  0.00    +0.000 A 
ATOM     15  C   UNL     1      -2.150  -2.218   0.000  0.00  0.00    +0.000 A 
ATOM     16  C   UNL     1      -2.856  -2.621   0.000  0.00  0.00    +0.000 A 
ATOM     17  C   UNL     1      -2.856  -3.477   0.000  0.00  0.00    +0.000 A 
ATOM     18 CL   UNL     1      -3.593  -2.187   0.000  0.00  0.00    +0.000 Cl
ATOM     19  O   UNL     1       0.683  -3.042   0.000  0.00  0.00    +0.000 OA
ENDBRANCH   2   8
BRANCH   5  20
ATOM     20  C   UNL     1       1.967   0.137   0.000  0.00  0.00    +0.000 C 
ATOM     21  O   UNL     1       2.815   0.066   0.000  0.00  0.00    +0.000 OA
ATOM     22  N   UNL     1       1.648   0.879   0.000  0.00  0.00    +0.000 NA
BRANCH  22  23
ATOM     23  C   UNL     1       2.143   1.551   0.000  0.00  0.00    +0.000 C 
BRANCH  23  24
ATOM     24  C   UNL     1       1.790   2.329   0.000  0.00  0.00    +0.000 C 
BRANCH  24  25
ATOM     25  N   UNL     1       2.285   3.001   0.000  0.00  0.00    +0.000 NA
BRANCH  25  26
ATOM     26  C   UNL     1       3.098   2.930   0.000  0.00  0.00    +0.000 C 
ATOM     27  C   UNL     1       3.593   3.602   0.000  0.00  0.00    +0.000 C 
ENDBRANCH  25  26
BRANCH  25  28
ATOM     28  C   UNL     1       1.931   3.743   0.000  0.00  0.00    +0.000 C 
ATOM     29  C   UNL     1       1.118   3.849   0.000  0.00  0.00    +0.000 C 
ENDBRANCH  25  28
ENDBRANCH  24  25
ENDBRANCH  23  24
ENDBRANCH  22  23
ENDBRANCH   5  20
TORSDOF 7
