REMARK  Name = 
REMARK  10 active torsions:
REMARK  status: ('A' for Active; 'I' for Inactive)
REMARK    1  A    between atoms: C_1  and  C_4
REMARK    2  A    between atoms: N_2  and  CA_24
REMARK    3  A    between atoms: C_6  and  N_19
REMARK    4  A    between atoms: C_8  and  C_13
REMARK    5  A    between atoms: N_14  and  CA_15
REMARK    6  A    between atoms: CA_15  and  CB_16
REMARK    7  A    between atoms: CA_15  and  C_22
REMARK    8  A    between atoms: C_20  and  C_21
REMARK    9  A    between atoms: CA_24  and  CB_25
REMARK   10  A    between atoms: CA_24  and  C_26
REMARK                            x       y       z     vdW  Elec       q    Type
REMARK                         _______ _______ _______ _____ _____    ______ ____
ROOT
ATOM      1  C   UNK A   0       0.358   0.825   0.000  0.00  0.00    +0.000 A 
ATOM      2  C   UNK A   0      -0.359   0.412   0.000  0.00  0.00    +0.000 A 
ATOM      3  C   UNK A   0      -0.359  -0.413   0.000  0.00  0.00    +0.000 A 
ATOM      4  C   UNK A   0       0.357  -0.825   0.000  0.00  0.00    +0.000 A 
ATOM      5  C   UNK A   0       1.070  -0.413   0.000  0.00  0.00    +0.000 A 
ATOM      6  C   UNK A   0       1.070   0.412   0.000  0.00  0.00    +0.000 A 
ATOM      7  I   UNK A   0       0.358  -1.650   0.000  0.00  0.00    +0.000 I 
ATOM      8  I   UNK A   0       1.784   0.824   0.000  0.00  0.00    +0.000 I 
ATOM      9  I   UNK A   0      -1.073   0.825   0.000  0.00  0.00    +0.000 I 
ENDROOT
BRANCH   1  10
ATOM     10  C   UNK A   0       0.357   1.646   0.000  0.00  0.00    +0.000 C 
ATOM     11  N   SER A   1      -0.358   2.057   0.000  0.00  0.00    +0.000 NA
ATOM     12  O   UNK A   0       1.071   2.059   0.000  0.00  0.00    +0.000 OA
BRANCH  11  13
ATOM     13  CA  SER A   1      -0.359   2.882   0.000  0.00  0.00    +0.000 C 
BRANCH  13  14
ATOM     14  CB  SER A   1      -1.074   3.294   0.000  0.00  0.00    +0.000 C 
ATOM     15  OG  SER A   1      -1.788   2.881   0.000  0.00  0.00    +0.000 OA
ENDBRANCH  13  14
BRANCH  13  16
ATOM     16  C   SER A   1       0.355   3.296   0.000  0.00  0.00    +0.000 C 
ATOM     17  O   SER A   1       1.070   2.884   0.000  0.00  0.00    +0.000 OA
ENDBRANCH  13  16
ENDBRANCH  11  13
ENDBRANCH   1  10
BRANCH   5  18
ATOM     18  C   UNK A   0       1.784  -0.825   0.000  0.00  0.00    +0.000 C 
ATOM     19  N   SER A   1       1.781  -1.649   0.000  0.00  0.00    +0.000 NA
ATOM     20  O   UNK A   0       2.500  -0.414   0.000  0.00  0.00    +0.000 OA
BRANCH  19  21
ATOM     21  CA  SER A   1       2.492  -2.064   0.000  0.00  0.00    +0.000 C 
BRANCH  21  22
ATOM     22  CB  SER A   1       2.489  -2.887   0.000  0.00  0.00    +0.000 C 
ATOM     23  OG  SER A   1       1.774  -3.296   0.000  0.00  0.00    +0.000 OA
ENDBRANCH  21  22
BRANCH  21  24
ATOM     24  C   SER A   1       3.207  -1.655   0.000  0.00  0.00    +0.000 C 
ATOM     25  O   SER A   1       3.211  -0.832   0.000  0.00  0.00    +0.000 OA
ENDBRANCH  21  24
ENDBRANCH  19  21
ENDBRANCH   5  18
BRANCH   3  26
ATOM     26  N   UNK A   0      -1.071  -0.825   0.000  0.00  0.00    +0.000 NA
ATOM     27  C   UNK A   0      -1.785  -0.414   0.000  0.00  0.00    +0.000 C 
ATOM     28  O   UNK A   0      -1.786   0.409   0.000  0.00  0.00    +0.000 OA
BRANCH  27  29
ATOM     29  C   UNK A   0      -2.497  -0.827   0.000  0.00  0.00    +0.000 C 
ATOM     30  O   UNK A   0      -2.496  -1.650   0.000  0.00  0.00    +0.000 OA
ATOM     31  C   UNK A   0      -3.211  -0.416   0.000  0.00  0.00    +0.000 C 
ENDBRANCH  27  29
ENDBRANCH   3  26
TORSDOF 10
