REMARK  Name = 
REMARK  5 active torsions:
REMARK  status: ('A' for Active; 'I' for Inactive)
REMARK    1  A    between atoms: C_1  and  C_21
REMARK    2  A    between atoms: C_2  and  C_4
REMARK    3  A    between atoms: C_2  and  C_11
REMARK    4  A    between atoms: C_11  and  O_12
REMARK    5  A    between atoms: O_12  and  C_13
REMARK                            x       y       z     vdW  Elec       q    Type
REMARK                         _______ _______ _______ _____ _____    ______ ____
ROOT
ATOM      1  C   UNL     1       0.698   0.346   0.000  0.00  0.00    +0.000 C 
ATOM      2  C   UNL     1      -0.016   0.757   0.000  0.00  0.00    +0.000 C 
ATOM      3  C   UNL     1       0.698   1.169   0.000  0.00  0.00    +0.000 C 
ENDROOT
BRANCH   1   4
ATOM      4  C   UNL     1       1.110  -0.369   0.000  0.00  0.00    +0.000 C 
ATOM      5  O   UNL     1       0.698  -1.084   0.000  0.00  0.00    +0.000 OA
ATOM      6  N   UNL     1       1.939  -0.369   0.000  0.00  0.00    +0.000 NA
ATOM      7  C   UNL     1       2.351  -1.084   0.000  0.00  0.00    +0.000 A 
ATOM      8  C   UNL     1       3.175  -1.084   0.000  0.00  0.00    +0.000 A 
ATOM      9  C   UNL     1       3.587  -1.799   0.000  0.00  0.00    +0.000 A 
ATOM     10  C   UNL     1       3.175  -2.514   0.000  0.00  0.00    +0.000 A 
ATOM     11  C   UNL     1       2.351  -2.514   0.000  0.00  0.00    +0.000 A 
ATOM     12  N   UNL     1       1.939  -1.799   0.000  0.00  0.00    +0.000 NA
ATOM     13  F   UNL     1       3.587  -3.229   0.000  0.00  0.00    +0.000 F 
ENDBRANCH   1   4
BRANCH   2  14
ATOM     14  C   UNL     1      -0.727   1.169   0.000  0.00  0.00    +0.000 A 
ATOM     15  C   UNL     1      -0.727   1.993   0.000  0.00  0.00    +0.000 A 
ATOM     16  C   UNL     1      -1.442   2.405   0.000  0.00  0.00    +0.000 A 
ATOM     17  C   UNL     1      -2.157   1.993   0.000  0.00  0.00    +0.000 A 
ATOM     18  C   UNL     1      -2.157   1.169   0.000  0.00  0.00    +0.000 A 
ATOM     19  C   UNL     1      -1.442   0.757   0.000  0.00  0.00    +0.000 A 
ATOM     20  F   UNL     1      -1.442   3.229   0.000  0.00  0.00    +0.000 F 
ENDBRANCH   2  14
BRANCH   2  21
ATOM     21  C   UNL     1      -0.727   0.346   0.000  0.00  0.00    +0.000 C 
BRANCH  21  22
ATOM     22  O   UNL     1      -0.727  -0.483   0.000  0.00  0.00    +0.000 OA
BRANCH  22  23
ATOM     23  C   UNL     1      -1.442  -0.895   0.000  0.00  0.00    +0.000 A 
ATOM     24  C   UNL     1      -2.157  -0.483   0.000  0.00  0.00    +0.000 A 
ATOM     25  N   UNL     1      -2.872  -0.895   0.000  0.00  0.00    +0.000 NA
ATOM     26  C   UNL     1      -2.872  -1.718   0.000  0.00  0.00    +0.000 A 
ATOM     27  N   UNL     1      -2.157  -2.131   0.000  0.00  0.00    +0.000 NA
ATOM     28  C   UNL     1      -1.442  -1.718   0.000  0.00  0.00    +0.000 A 
ATOM     29  C   UNL     1      -3.587  -2.131   0.000  0.00  0.00    +0.000 C 
ATOM     30  C   UNL     1      -2.157   0.346   0.000  0.00  0.00    +0.000 C 
ENDBRANCH  22  23
ENDBRANCH  21  22
ENDBRANCH   2  21
TORSDOF 5
