REMARK  Name = 
REMARK  17 active torsions:
REMARK  status: ('A' for Active; 'I' for Inactive)
REMARK    1  A    between atoms: C_2  and  C_3
REMARK    2  A    between atoms: C_3  and  C_5
REMARK    3  A    between atoms: C_9  and  C_64
REMARK    4  A    between atoms: C_13  and  C_60
REMARK    5  A    between atoms: C_17  and  C_38
REMARK    6  A    between atoms: C_26  and  C_30
REMARK    7  A    between atoms: C_30  and  C_31
REMARK    8  A    between atoms: C_44  and  C_45
REMARK    9  A    between atoms: N_47  and  C_48
REMARK   10  A    between atoms: C_48  and  C_49
REMARK   11  A    between atoms: C_48  and  C_53
REMARK   12  A    between atoms: C_49  and  C_50
REMARK   13  A    between atoms: N_55  and  C_56
REMARK   14  A    between atoms: C_56  and  C_57
REMARK   15  A    between atoms: C_60  and  C_61
REMARK   16  A    between atoms: C_64  and  C_65
REMARK   17  A    between atoms: C_65  and  C_66
REMARK                            x       y       z     vdW  Elec       q    Type
REMARK                         _______ _______ _______ _____ _____    ______ ____
ROOT
ATOM      1  C   UNL     1      -2.985   6.851   0.000  0.00  0.00    +0.000 C 
ATOM      2  C   UNL     1      -2.730   7.636   0.000  0.00  0.00    +0.000 C 
ATOM      3  O   UNL     1      -2.816   8.456   0.000  0.00  0.00    +0.000 OA
ATOM      4  N   UNL     1      -1.923   7.807   0.000  0.00  0.00    +0.000 NA
ATOM      5  C   UNL     1      -1.371   7.194   0.000  0.00  0.00    +0.000 C 
ATOM      6  C   UNL     1      -1.626   6.410   0.000  0.00  0.00    +0.000 C 
ATOM      7  O   UNL     1      -2.433   6.238   0.000  0.00  0.00    +0.000 OA
ATOM      8  N   UNL     1      -1.074   5.796   0.000  0.00  0.00    +0.000 NA
ATOM      9  C   UNL     1      -1.329   5.012   0.000  0.00  0.00    +0.000 C 
ATOM     10  C   UNL     1      -0.777   4.399   0.000  0.00  0.00    +0.000 C 
ATOM     11  O   UNL     1       0.030   4.570   0.000  0.00  0.00    +0.000 OA
ATOM     12  N   UNL     1      -1.032   3.614   0.000  0.00  0.00    +0.000 NA
ATOM     13  C   UNL     1      -0.480   3.001   0.000  0.00  0.00    +0.000 C 
ATOM     14  C   UNL     1      -0.735   2.216   0.000  0.00  0.00    +0.000 C 
ATOM     15  S   UNL     1      -1.542   2.045   0.000  0.00  0.00    +0.000 S 
ATOM     16  S   UNL     1      -2.094   2.658   0.000  0.00  0.00    +0.000 S 
ATOM     17  C   UNL     1      -2.901   2.486   0.000  0.00  0.00    +0.000 C 
ATOM     18  C   UNL     1      -3.453   3.100   0.000  0.00  0.00    +0.000 C 
ATOM     19  C   UNL     1      -3.198   3.884   0.000  0.00  0.00    +0.000 C 
ATOM     20  O   UNL     1      -2.391   4.056   0.000  0.00  0.00    +0.000 OA
ATOM     21  N   UNL     1      -3.750   4.497   0.000  0.00  0.00    +0.000 NA
ATOM     22  C   UNL     1      -3.495   5.282   0.000  0.00  0.00    +0.000 C 
ATOM     23  C   UNL     1      -4.047   5.895   0.000  0.00  0.00    +0.000 C 
ATOM     24  O   UNL     1      -4.854   5.723   0.000  0.00  0.00    +0.000 OA
ATOM     25  N   UNL     1      -3.792   6.680   0.000  0.00  0.00    +0.000 NA
ENDROOT
BRANCH  13  26
ATOM     26  C   UNL     1       0.327   3.173   0.000  0.00  0.00    +0.000 C 
ATOM     27  O   UNL     1       0.582   3.957   0.000  0.00  0.00    +0.000 OA
ATOM     28  N   UNL     1       0.879   2.559   0.000  0.00  0.00    +0.000 N 
ATOM     29  C   UNL     1       0.708   1.752   0.000  0.00  0.00    +0.000 C 
ATOM     30  C   UNL     1       1.422   1.340   0.000  0.00  0.00    +0.000 C 
ATOM     31  C   UNL     1       2.035   1.892   0.000  0.00  0.00    +0.000 C 
ATOM     32  C   UNL     1       1.700   2.646   0.000  0.00  0.00    +0.000 C 
BRANCH  32  33
ATOM     33  C   UNL     1       2.112   3.360   0.000  0.00  0.00    +0.000 C 
ATOM     34  O   UNL     1       1.700   4.075   0.000  0.00  0.00    +0.000 OA
ATOM     35  N   UNL     1       2.937   3.360   0.000  0.00  0.00    +0.000 NA
BRANCH  35  36
ATOM     36  C   UNL     1       3.350   4.075   0.000  0.00  0.00    +0.000 C 
BRANCH  36  37
ATOM     37  C   UNL     1       4.175   4.075   0.000  0.00  0.00    +0.000 C 
ATOM     38  O   UNL     1       4.587   3.360   0.000  0.00  0.00    +0.000 OA
ATOM     39  N   UNL     1       4.587   4.789   0.000  0.00  0.00    +0.000 NA
BRANCH  39  40
ATOM     40  C   UNL     1       5.412   4.789   0.000  0.00  0.00    +0.000 C 
BRANCH  40  41
ATOM     41  C   UNL     1       5.825   5.504   0.000  0.00  0.00    +0.000 C 
ATOM     42  O   UNL     1       6.650   5.504   0.000  0.00  0.00    +0.000 OA
ATOM     43  N   UNL     1       5.412   6.218   0.000  0.00  0.00    +0.000 NA
ENDBRANCH  40  41
ENDBRANCH  39  40
ENDBRANCH  36  37
BRANCH  36  44
ATOM     44  C   UNL     1       2.937   4.789   0.000  0.00  0.00    +0.000 C 
BRANCH  44  45
ATOM     45  C   UNL     1       3.350   5.504   0.000  0.00  0.00    +0.000 C 
ATOM     46  C   UNL     1       4.175   5.504   0.000  0.00  0.00    +0.000 C 
ATOM     47  C   UNL     1       2.937   6.218   0.000  0.00  0.00    +0.000 C 
ENDBRANCH  44  45
ENDBRANCH  36  44
ENDBRANCH  35  36
ENDBRANCH  32  33
ENDBRANCH  13  26
BRANCH   1  48
ATOM     48  C   UNL     1      -3.537   7.464   0.000  0.00  0.00    +0.000 C 
ATOM     49  C   UNL     1      -3.282   8.249   0.000  0.00  0.00    +0.000 C 
BRANCH  48  51
ATOM     50  C   UNL     1      -4.599   6.508   0.000  0.00  0.00    +0.000 C 
ATOM     51  C   UNL     1      -4.344   7.293   0.000  0.00  0.00    +0.000 C 
ENDBRANCH  48  51
ENDBRANCH   1  48
BRANCH  22  52
ATOM     52  C   UNL     1      -4.302   5.110   0.000  0.00  0.00    +0.000 C 
BRANCH  52  53
ATOM     53  C   UNL     1      -4.557   4.326   0.000  0.00  0.00    +0.000 A 
ATOM     54  C   UNL     1      -4.005   3.713   0.000  0.00  0.00    +0.000 A 
ATOM     55  C   UNL     1      -4.260   2.928   0.000  0.00  0.00    +0.000 A 
ATOM     56  C   UNL     1      -5.067   2.756   0.000  0.00  0.00    +0.000 A 
ATOM     57  C   UNL     1      -5.619   3.370   0.000  0.00  0.00    +0.000 A 
ATOM     58  C   UNL     1      -5.364   4.154   0.000  0.00  0.00    +0.000 A 
ATOM     59  O   UNL     1      -5.322   1.972   0.000  0.00  0.00    +0.000 OA
ENDBRANCH  52  53
ENDBRANCH  22  52
BRANCH   9  60
ATOM     60  C   UNL     1      -0.522   5.183   0.000  0.00  0.00    +0.000 C 
BRANCH  60  61
ATOM     61  C   UNL     1      -0.267   5.968   0.000  0.00  0.00    +0.000 C 
ATOM     62  O   UNL     1      -0.819   6.581   0.000  0.00  0.00    +0.000 OA
ATOM     63  N   UNL     1       0.540   6.139   0.000  0.00  0.00    +0.000 NA
ENDBRANCH  60  61
ENDBRANCH   9  60
BRANCH   5  64
ATOM     64  C   UNL     1      -0.564   7.366   0.000  0.00  0.00    +0.000 C 
BRANCH  64  65
ATOM     65  C   UNL     1      -0.309   8.150   0.000  0.00  0.00    +0.000 C 
BRANCH  65  66
ATOM     66  C   UNL     1      -0.861   8.764   0.000  0.00  0.00    +0.000 C 
ATOM     67  O   UNL     1      -1.668   8.592   0.000  0.00  0.00    +0.000 OA
ATOM     68  N   UNL     1      -0.606   9.548   0.000  0.00  0.00    +0.000 NA
ENDBRANCH  65  66
ENDBRANCH  64  65
ENDBRANCH   5  64
TORSDOF 17
