REMARK  Name = 
REMARK  4 active torsions:
REMARK  status: ('A' for Active; 'I' for Inactive)
REMARK    1  A    between atoms: C_1  and  CA_2
REMARK    2  A    between atoms: CA_2  and  CB_3
REMARK    3  A    between atoms: CA_2  and  N_7
REMARK    4  A    between atoms: CB_3  and  CG_4
REMARK                            x       y       z     vdW  Elec       q    Type
REMARK                         _______ _______ _______ _____ _____    ______ ____
ROOT
ATOM      1  CA  LEU A   1      -0.359  -0.412   0.000  0.00  0.00    +0.000 C 
ENDROOT
BRANCH   1   2
ATOM      2  C   LEU A   1       0.359  -0.821   0.000  0.00  0.00    +0.000 C 
ATOM      3  O   LEU A   1       0.364  -1.646   0.000  0.00  0.00    +0.000 OA
ATOM      4  OXT LEU A   1       1.070  -0.404   0.000  0.00  0.00    +0.000 OA
ENDBRANCH   1   2
BRANCH   1   5
ATOM      5  N   LEU A   1      -1.070  -0.830   0.000  0.00  0.00    +0.000 NA
ATOM      6  C   ACE A   0      -1.065  -1.655   0.000  0.00  0.00    +0.000 C 
ENDBRANCH   1   5
BRANCH   1   7
ATOM      7  CB  LEU A   1      -0.364   0.412   0.000  0.00  0.00    +0.000 C 
BRANCH   7   8
ATOM      8  CG  LEU A   1       0.348   0.830   0.000  0.00  0.00    +0.000 C 
ATOM      9  CD1 LEU A   1       1.065   0.421   0.000  0.00  0.00    +0.000 C 
ATOM     10  CD2 LEU A   1       0.343   1.655   0.000  0.00  0.00    +0.000 C 
ENDBRANCH   7   8
ENDBRANCH   1   7
TORSDOF 4
