REMARK  Name = 
REMARK  5 active torsions:
REMARK  status: ('A' for Active; 'I' for Inactive)
REMARK    1  A    between atoms: C_9  and  C_11
REMARK    2  A    between atoms: C_11  and  O_12
REMARK    3  A    between atoms: O_12  and  C_13
REMARK    4  A    between atoms: C_16  and  C_19
REMARK    5  A    between atoms: C_20  and  C_24
REMARK                            x       y       z     vdW  Elec       q    Type
REMARK                         _______ _______ _______ _____ _____    ______ ____
ROOT
ATOM      1  C   UNL     1       0.696  -0.646   0.000  0.00  0.00    +0.000 A 
ATOM      2  C   UNL     1       1.410  -1.059   0.000  0.00  0.00    +0.000 A 
ATOM      3  C   UNL     1       2.121  -0.645   0.000  0.00  0.00    +0.000 A 
ATOM      4  C   UNL     1       2.119   0.179   0.000  0.00  0.00    +0.000 A 
ATOM      5  C   UNL     1       1.399   0.588   0.000  0.00  0.00    +0.000 A 
ATOM      6  C   UNL     1       0.691   0.172   0.000  0.00  0.00    +0.000 A 
ENDROOT
BRANCH   4   7
ATOM      7  C   UNL     1       2.831   0.596   0.000  0.00  0.00    +0.000 A 
ATOM      8  C   UNL     1       3.589   0.269   0.000  0.00  0.00    +0.000 A 
ATOM      9  C   UNL     1       4.137   0.885   0.000  0.00  0.00    +0.000 A 
ATOM     10  N   UNL     1       3.720   1.598   0.000  0.00  0.00    +0.000 N 
ATOM     11  N   UNL     1       2.914   1.421   0.000  0.00  0.00    +0.000 NA
ATOM     12  C   UNL     1       4.129   2.317   0.000  0.00  0.00    +0.000 C 
BRANCH   8  13
ATOM     13  C   UNL     1       3.583  -0.556   0.000  0.00  0.00    +0.000 A 
ATOM     14  C   UNL     1       2.864  -0.962   0.000  0.00  0.00    +0.000 A 
ATOM     15  C   UNL     1       2.858  -1.787   0.000  0.00  0.00    +0.000 A 
ATOM     16  N   UNL     1       3.571  -2.204   0.000  0.00  0.00    +0.000 NA
ATOM     17  C   UNL     1       4.290  -1.792   0.000  0.00  0.00    +0.000 A 
ATOM     18  C   UNL     1       4.292  -0.969   0.000  0.00  0.00    +0.000 A 
ENDBRANCH   8  13
ENDBRANCH   4   7
BRANCH   1  19
ATOM     19  O   UNL     1      -0.015  -1.061   0.000  0.00  0.00    +0.000 OA
BRANCH  19  20
ATOM     20  C   UNL     1      -0.730  -0.652   0.000  0.00  0.00    +0.000 C 
BRANCH  20  29
ATOM     21  C   UNL     1      -4.292  -1.075   0.000  0.00  0.00    +0.000 A 
ATOM     22  C   UNL     1      -4.292  -1.902   0.000  0.00  0.00    +0.000 A 
ATOM     23  C   UNL     1      -3.579  -2.317   0.000  0.00  0.00    +0.000 A 
ATOM     24  C   UNL     1      -3.580  -0.664   0.000  0.00  0.00    +0.000 A 
ATOM     25  C   UNL     1      -2.864  -1.073   0.000  0.00  0.00    +0.000 A 
ATOM     26  C   UNL     1      -2.864  -1.898   0.000  0.00  0.00    +0.000 A 
ATOM     27  C   UNL     1      -2.150  -2.309   0.000  0.00  0.00    +0.000 A 
ATOM     28  C   UNL     1      -1.436  -1.896   0.000  0.00  0.00    +0.000 A 
ATOM     29  C   UNL     1      -1.440  -1.067   0.000  0.00  0.00    +0.000 A 
ATOM     30  N   UNL     1      -2.154  -0.660   0.000  0.00  0.00    +0.000 NA
ENDBRANCH  20  29
ENDBRANCH  19  20
ENDBRANCH   1  19
TORSDOF 5
