REMARK  Name = 
REMARK  2 active torsions:
REMARK  status: ('A' for Active; 'I' for Inactive)
REMARK    1  A    between atoms: CB_2  and  CA_4
REMARK    2  A    between atoms: CA_4  and  C_6
REMARK                            x       y       z     vdW  Elec       q    Type
REMARK                         _______ _______ _______ _____ _____    ______ ____
ROOT
ATOM      1  CA  THR A   1       0.000  -0.357   0.000  0.00  0.00    +0.000 C 
ATOM      2  N   THR A   1      -0.414  -1.073   0.000  0.00  0.00    +0.000 NA
ENDROOT
BRANCH   1   4
ATOM      3  CG2 THR A   1      -1.239   0.357   0.000  0.00  0.00    +0.000 C 
ATOM      4  CB  THR A   1      -0.414   0.357   0.000  0.00  0.00    +0.000 C 
ATOM      5  OG1 THR A   1       0.000   1.073   0.000  0.00  0.00    +0.000 OA
ENDBRANCH   1   4
BRANCH   1   6
ATOM      6  C   THR A   1       0.825  -0.357   0.000  0.00  0.00    +0.000 C 
ATOM      7  O   THR A   1       1.239  -1.073   0.000  0.00  0.00    +0.000 OA
ENDBRANCH   1   6
TORSDOF 2
