REMARK  Name = 
REMARK  10 active torsions:
REMARK  status: ('A' for Active; 'I' for Inactive)
REMARK    1  A    between atoms: C_1  and  C_9
REMARK    2  A    between atoms: N_2  and  N_4
REMARK    3  A    between atoms: N_2  and  C_5
REMARK    4  A    between atoms: C_5  and  C_6
REMARK    5  A    between atoms: C_9  and  C_10
REMARK    6  A    between atoms: C_10  and  C_12
REMARK    7  A    between atoms: N_13  and  C_15
REMARK    8  A    between atoms: N_13  and  C_16
REMARK    9  A    between atoms: C_15  and  C_23
REMARK   10  A    between atoms: C_16  and  C_17
REMARK                            x       y       z     vdW  Elec       q    Type
REMARK                         _______ _______ _______ _____ _____    ______ ____
ROOT
ATOM      1  C   UNL     1      -0.426   0.824   0.000  0.00  0.00    +0.000 C 
ATOM      2  N   UNL     1       0.290   1.236   0.000  0.00  0.00    +0.000 N 
ATOM      3  O   UNL     1      -0.997   1.156   0.000  0.00  0.00    +0.000 OA
ENDROOT
BRANCH   1   4
ATOM      4  C   UNL     1      -0.428  -0.001   0.000  0.00  0.00    +0.000 C 
ATOM      5  O   UNL     1      -1.156   0.420   0.000  0.00  0.00    +0.000 OA
BRANCH   4   6
ATOM      6  C   UNL     1      -1.143  -0.412   0.000  0.00  0.00    +0.000 C 
BRANCH   6   7
ATOM      7  C   UNL     1      -1.145  -1.238   0.000  0.00  0.00    +0.000 C 
ATOM      8  N   UNL     1      -1.861  -1.649   0.000  0.00  0.00    +0.000 N 
ATOM      9  O   UNL     1      -0.574  -1.569   0.000  0.00  0.00    +0.000 OA
BRANCH   8  10
ATOM     10  N   UNL     1      -2.574  -1.234   0.000  0.00  0.00    +0.000 NA
ATOM     11  H   UNL     1      -2.572  -0.684   0.000  0.00  0.00    +0.000 HD
ATOM     12  H   UNL     1      -3.051  -1.507   0.000  0.00  0.00    +0.000 HD
ENDBRANCH   8  10
BRANCH   8  13
ATOM     13  C   UNL     1      -1.863  -2.475   0.000  0.00  0.00    +0.000 C 
BRANCH  13  14
ATOM     14  C   UNL     1      -2.578  -2.886   0.000  0.00  0.00    +0.000 C 
ATOM     15  O   UNL     1      -2.580  -3.712   0.000  0.00  0.00    +0.000 OA
ATOM     16  O   UNL     1      -3.149  -2.555   0.000  0.00  0.00    +0.000 OA
ENDBRANCH  13  14
ENDBRANCH   8  13
ENDBRANCH   6   7
ENDBRANCH   4   6
ENDBRANCH   1   4
BRANCH   2  17
ATOM     17  C   UNL     1       0.289   2.061   0.000  0.00  0.00    +0.000 C 
BRANCH  17  18
ATOM     18  C   UNL     1      -0.425   2.474   0.000  0.00  0.00    +0.000 A 
ATOM     19  C   UNL     1      -0.425   3.299   0.000  0.00  0.00    +0.000 A 
ATOM     20  C   UNL     1      -1.140   3.712   0.000  0.00  0.00    +0.000 A 
ATOM     21  C   UNL     1      -1.854   3.299   0.000  0.00  0.00    +0.000 A 
ATOM     22  C   UNL     1      -1.854   2.474   0.000  0.00  0.00    +0.000 A 
ATOM     23  C   UNL     1      -1.140   2.062   0.000  0.00  0.00    +0.000 A 
ENDBRANCH  17  18
ENDBRANCH   2  17
BRANCH   2  24
ATOM     24  C   UNL     1       1.005   0.823   0.000  0.00  0.00    +0.000 C 
BRANCH  24  25
ATOM     25  C   UNL     1       1.720   1.236   0.000  0.00  0.00    +0.000 A 
ATOM     26  C   UNL     1       1.720   2.061   0.000  0.00  0.00    +0.000 A 
ATOM     27  C   UNL     1       2.435   2.473   0.000  0.00  0.00    +0.000 A 
ATOM     28  C   UNL     1       3.149   2.060   0.000  0.00  0.00    +0.000 A 
ATOM     29  C   UNL     1       3.148   1.235   0.000  0.00  0.00    +0.000 A 
ATOM     30  C   UNL     1       2.434   0.823   0.000  0.00  0.00    +0.000 A 
ENDBRANCH  24  25
ENDBRANCH   2  24
TORSDOF 10
