REMARK  Name = 
REMARK  11 active torsions:
REMARK  status: ('A' for Active; 'I' for Inactive)
REMARK    1  A    between atoms: C_2  and  C_16
REMARK    2  A    between atoms: C_4  and  N_10
REMARK    3  A    between atoms: C_6  and  C_7
REMARK    4  A    between atoms: C_11  and  C_12
REMARK    5  A    between atoms: C_12  and  O_13
REMARK    6  A    between atoms: N_17  and  C_18
REMARK    7  A    between atoms: C_18  and  C_19
REMARK    8  A    between atoms: C_19  and  C_20
REMARK    9  A    between atoms: N_25  and  C_27
REMARK   10  A    between atoms: C_27  and  C_29
REMARK   11  A    between atoms: C_29  and  C_30
REMARK                            x       y       z     vdW  Elec       q    Type
REMARK                         _______ _______ _______ _____ _____    ______ ____
ROOT
ATOM      1  C   UNL     1      -0.356  -0.203   0.000  0.00  0.00    +0.000 A 
ATOM      2  C   UNL     1      -0.356  -1.028   0.000  0.00  0.00    +0.000 A 
ATOM      3  C   UNL     1       0.360  -1.441   0.000  0.00  0.00    +0.000 A 
ATOM      4  C   UNL     1       1.072  -1.028   0.000  0.00  0.00    +0.000 A 
ATOM      5  C   UNL     1       1.072  -0.203   0.000  0.00  0.00    +0.000 A 
ATOM      6  C   UNL     1       0.360   0.209   0.000  0.00  0.00    +0.000 A 
ATOM      7  I   UNL     1       0.361  -2.266   0.000  0.00  0.00    +0.000 I 
ATOM      8  I   UNL     1      -1.071   0.210   0.000  0.00  0.00    +0.000 I 
ATOM      9  I   UNL     1       1.786   0.204   0.000  0.00  0.00    +0.000 I 
ENDROOT
BRANCH   2  10
ATOM     10  C   UNL     1      -1.069  -1.441   0.000  0.00  0.00    +0.000 C 
ATOM     11  N   UNL     1      -1.781  -1.032   0.000  0.00  0.00    +0.000 N 
ATOM     12  C   UNL     1      -1.783  -0.207   0.000  0.00  0.00    +0.000 C 
ATOM     13  O   UNL     1      -1.067  -2.266   0.000  0.00  0.00    +0.000 OA
BRANCH  11  14
ATOM     14  C   UNL     1      -2.494  -1.445   0.000  0.00  0.00    +0.000 C 
BRANCH  14  15
ATOM     15  C   UNL     1      -3.207  -1.037   0.000  0.00  0.00    +0.000 C 
ATOM     16  O   UNL     1      -3.208  -0.211   0.000  0.00  0.00    +0.000 OA
BRANCH  15  17
ATOM     17  C   UNL     1      -3.919  -1.449   0.000  0.00  0.00    +0.000 C 
ATOM     18  O   UNL     1      -4.632  -1.041   0.000  0.00  0.00    +0.000 OA
ENDBRANCH  15  17
ENDBRANCH  14  15
ENDBRANCH  11  14
ENDBRANCH   2  10
BRANCH   6  19
ATOM     19  C   UNL     1       0.361   1.034   0.000  0.00  0.00    +0.000 C 
ATOM     20  N   UNL     1       1.073   1.443   0.000  0.00  0.00    +0.000 NA
ATOM     21  O   UNL     1      -0.353   1.448   0.000  0.00  0.00    +0.000 OA
BRANCH  20  22
ATOM     22  C   UNL     1       1.787   1.029   0.000  0.00  0.00    +0.000 C 
BRANCH  22  23
ATOM     23  C   UNL     1       2.502   1.441   0.000  0.00  0.00    +0.000 C 
ATOM     24  O   UNL     1       2.503   2.266   0.000  0.00  0.00    +0.000 OA
BRANCH  23  25
ATOM     25  C   UNL     1       3.216   1.027   0.000  0.00  0.00    +0.000 C 
ATOM     26  O   UNL     1       3.931   1.439   0.000  0.00  0.00    +0.000 OA
ENDBRANCH  23  25
ENDBRANCH  22  23
ENDBRANCH  20  22
ENDBRANCH   6  19
BRANCH   4  27
ATOM     27  N   UNL     1       1.781  -1.437   0.000  0.00  0.00    +0.000 NA
ATOM     28  C   UNL     1       2.494  -1.024   0.000  0.00  0.00    +0.000 C 
ATOM     29  O   UNL     1       2.478  -0.199   0.000  0.00  0.00    +0.000 OA
BRANCH  28  30
ATOM     30  C   UNL     1       3.207  -1.432   0.000  0.00  0.00    +0.000 C 
BRANCH  30  31
ATOM     31  O   UNL     1       3.919  -1.020   0.000  0.00  0.00    +0.000 OA
ATOM     32  C   UNL     1       4.632  -1.428   0.000  0.00  0.00    +0.000 C 
ENDBRANCH  30  31
ENDBRANCH  28  30
ENDBRANCH   4  27
TORSDOF 11
