REMARK  Name = 
REMARK  2 active torsions:
REMARK  status: ('A' for Active; 'I' for Inactive)
REMARK    1  A    between atoms: C_7  and  C_9
REMARK    2  A    between atoms: C_8  and  O_11
REMARK                            x       y       z     vdW  Elec       q    Type
REMARK                         _______ _______ _______ _____ _____    ______ ____
ROOT
ATOM      1  C   UNL     1      -0.608   3.528   0.000  0.00  0.00    +0.000 A 
ATOM      2  C   UNL     1      -2.037   3.528   0.000  0.00  0.00    +0.000 A 
ATOM      3  C   UNL     1      -0.608   4.353   0.000  0.00  0.00    +0.000 A 
ATOM      4  C   UNL     1      -2.037   4.353   0.000  0.00  0.00    +0.000 A 
ATOM      5  C   UNL     1      -1.322   3.115   0.000  0.00  0.00    +0.000 A 
ATOM      6  C   UNL     1      -1.322   4.765   0.000  0.00  0.00    +0.000 A 
ENDROOT
BRANCH   5   8
ATOM      7  C   UNL     1      -0.655   1.805   0.000  0.00  0.00    +0.000 A 
ATOM      8  C   UNL     1      -1.322   2.290   0.000  0.00  0.00    +0.000 A 
ATOM      9  C   UNL     1      -0.910   1.021   0.000  0.00  0.00    +0.000 A 
ATOM     10  S   UNL     1      -0.425   0.353   0.000  0.00  0.00    +0.000 S 
ATOM     11  S   UNL     1      -1.990   1.805   0.000  0.00  0.00    +0.000 S 
ATOM     12  S   UNL     1      -1.735   1.021   0.000  0.00  0.00    +0.000 S 
ENDBRANCH   5   8
BRANCH   6  14
ATOM     13  C   UNL     1      -2.037   6.003   0.000  0.00  0.00    +0.000 C 
ATOM     14  O   UNL     1      -1.322   5.590   0.000  0.00  0.00    +0.000 OA
ENDBRANCH   6  14
TORSDOF 2
