REMARK  Name = 
REMARK  4 active torsions:
REMARK  status: ('A' for Active; 'I' for Inactive)
REMARK    1  A    between atoms: C_6  and  C_7
REMARK    2  A    between atoms: C_6  and  C_8
REMARK    3  A    between atoms: C_7  and  C_9
REMARK    4  A    between atoms: C_8  and  C_10
REMARK                            x       y       z     vdW  Elec       q    Type
REMARK                         _______ _______ _______ _____ _____    ______ ____
ROOT
ATOM      1  C   UNL     1      -0.222  -0.205   0.000  0.00  0.00    +0.000 C 
ENDROOT
BRANCH   1   3
ATOM      2  N   UNL     1      -0.935   1.032   0.000  0.00  0.00    +0.000 NA
ATOM      3  C   UNL     1      -0.222   0.619   0.000  0.00  0.00    +0.000 C 
BRANCH   3   6
ATOM      4  O   UNL     1       0.492   1.856   0.000  0.00  0.00    +0.000 OA
ATOM      5  N   UNL     1       1.210   0.619   0.000  0.00  0.00    +0.000 NA
ATOM      6  C   UNL     1       0.492   1.032   0.000  0.00  0.00    +0.000 C 
ENDBRANCH   3   6
ENDBRANCH   1   3
BRANCH   1   7
ATOM      7  C   UNL     1      -0.935  -0.619   0.000  0.00  0.00    +0.000 C 
BRANCH   7  10
ATOM      8  O   UNL     1      -1.649  -1.856   0.000  0.00  0.00    +0.000 OA
ATOM      9  O   UNL     1      -0.222  -1.856   0.000  0.00  0.00    +0.000 OA
ATOM     10  C   UNL     1      -0.935  -1.442   0.000  0.00  0.00    +0.000 C 
ENDBRANCH   7  10
ENDBRANCH   1   7
TORSDOF 4
