REMARK  Name = 
REMARK  2 active torsions:
REMARK  status: ('A' for Active; 'I' for Inactive)
REMARK    1  A    between atoms: C_3  and  C_7
REMARK    2  A    between atoms: C_16  and  C_17
REMARK                            x       y       z     vdW  Elec       q    Type
REMARK                         _______ _______ _______ _____ _____    ______ ____
ROOT
ATOM      1  C   UNL     1       1.429   0.000   0.000  0.00  0.00    +0.000 C 
ATOM      2  C   UNL     1       2.143  -0.412   0.000  0.00  0.00    +0.000 A 
ATOM      3  C   UNL     1       2.143  -1.238   0.000  0.00  0.00    +0.000 A 
ATOM      4  C   UNL     1       2.858  -1.650   0.000  0.00  0.00    +0.000 A 
ATOM      5  C   UNL     1       2.858  -2.475   0.000  0.00  0.00    +0.000 A 
ATOM      6  C   UNL     1       2.143  -2.888   0.000  0.00  0.00    +0.000 A 
ATOM      7  C   UNL     1       1.429  -2.475   0.000  0.00  0.00    +0.000 A 
ATOM      8  C   UNL     1       1.429  -1.650   0.000  0.00  0.00    +0.000 A 
ATOM      9  N   UNL     1       0.715  -1.238   0.000  0.00  0.00    +0.000 NA
ATOM     10  C   UNL     1       0.715  -0.412   0.000  0.00  0.00    +0.000 C 
ATOM     11  F   UNL     1       2.143  -3.712   0.000  0.00  0.00    +0.000 F 
ATOM     12  C   UNL     1       3.572  -1.238   0.000  0.00  0.00    +0.000 A 
ATOM     13  O   UNL     1       4.287  -1.650   0.000  0.00  0.00    +0.000 OA
ATOM     14  N   UNL     1       3.572  -0.412   0.000  0.00  0.00    +0.000 NA
ATOM     15  N   UNL     1       2.858   0.000   0.000  0.00  0.00    +0.000 NA
ENDROOT
BRANCH  10  16
ATOM     16  C   UNL     1       0.000   0.000   0.000  0.00  0.00    +0.000 A 
ATOM     17  C   UNL     1      -0.715  -0.412   0.000  0.00  0.00    +0.000 A 
ATOM     18  C   UNL     1      -1.429   0.000   0.000  0.00  0.00    +0.000 A 
ATOM     19  C   UNL     1      -1.429   0.825   0.000  0.00  0.00    +0.000 A 
ATOM     20  C   UNL     1      -0.715   1.238   0.000  0.00  0.00    +0.000 A 
ATOM     21  C   UNL     1       0.000   0.825   0.000  0.00  0.00    +0.000 A 
ATOM     22  F   UNL     1      -2.143   1.238   0.000  0.00  0.00    +0.000 F 
ENDBRANCH  10  16
BRANCH   1  25
ATOM     23  C   UNL     1       2.881   1.055   0.000  0.00  0.00    +0.000 C 
ATOM     24  N   UNL     1       2.096   1.310   0.000  0.00  0.00    +0.000 N 
ATOM     25  C   UNL     1       1.429   0.825   0.000  0.00  0.00    +0.000 A 
ATOM     26  N   UNL     1       0.761   1.310   0.000  0.00  0.00    +0.000 NA
ATOM     27  C   UNL     1       1.016   2.095   0.000  0.00  0.00    +0.000 A 
ATOM     28  N   UNL     1       1.841   2.095   0.000  0.00  0.00    +0.000 NA
ENDBRANCH   1  25
TORSDOF 2
