REMARK  Name = 
REMARK  23 active torsions:
REMARK  status: ('A' for Active; 'I' for Inactive)
REMARK    1  A    between atoms: C_3  and  C_4
REMARK    2  A    between atoms: C_5  and  C_6
REMARK    3  A    between atoms: C_11  and  C_12
REMARK    4  A    between atoms: C_21  and  C_22
REMARK    5  A    between atoms: C_22  and  C_23
REMARK    6  A    between atoms: C_23  and  C_24
REMARK    7  A    between atoms: C_24  and  O_26
REMARK    8  A    between atoms: O_26  and  C_27
REMARK    9  A    between atoms: C_27  and  C_28
REMARK   10  A    between atoms: C_29  and  C_31
REMARK   11  A    between atoms: C_31  and  C_32
REMARK   12  A    between atoms: C_32  and  C_33
REMARK   13  A    between atoms: C_33  and  C_34
REMARK   14  A    between atoms: C_34  and  C_36
REMARK   15  A    between atoms: C_36  and  C_37
REMARK   16  A    between atoms: C_37  and  C_38
REMARK   17  A    between atoms: C_38  and  C_39
REMARK   18  A    between atoms: C_39  and  C_41
REMARK   19  A    between atoms: C_41  and  C_42
REMARK   20  A    between atoms: C_42  and  C_43
REMARK   21  A    between atoms: C_43  and  C_44
REMARK   22  A    between atoms: C_60  and  C_61
REMARK   23  A    between atoms: C_61  and  O_63
REMARK                            x       y       z     vdW  Elec       q    Type
REMARK                         _______ _______ _______ _____ _____    ______ ____
ROOT
ATOM      1 MG   UNL     1      -6.407   0.264   0.000  0.00  0.00    +0.000 Mg
ENDROOT
TORSDOF 0
REMARK  Name = 
REMARK  23 active torsions:
REMARK  status: ('A' for Active; 'I' for Inactive)
REMARK    1  A    between atoms: C_3  and  C_4
REMARK    2  A    between atoms: C_5  and  C_6
REMARK    3  A    between atoms: C_11  and  C_12
REMARK    4  A    between atoms: C_21  and  C_22
REMARK    5  A    between atoms: C_22  and  C_23
REMARK    6  A    between atoms: C_23  and  C_24
REMARK    7  A    between atoms: C_24  and  O_26
REMARK    8  A    between atoms: O_26  and  C_27
REMARK    9  A    between atoms: C_27  and  C_28
REMARK   10  A    between atoms: C_29  and  C_31
REMARK   11  A    between atoms: C_31  and  C_32
REMARK   12  A    between atoms: C_32  and  C_33
REMARK   13  A    between atoms: C_33  and  C_34
REMARK   14  A    between atoms: C_34  and  C_36
REMARK   15  A    between atoms: C_36  and  C_37
REMARK   16  A    between atoms: C_37  and  C_38
REMARK   17  A    between atoms: C_38  and  C_39
REMARK   18  A    between atoms: C_39  and  C_41
REMARK   19  A    between atoms: C_41  and  C_42
REMARK   20  A    between atoms: C_42  and  C_43
REMARK   21  A    between atoms: C_43  and  C_44
REMARK   22  A    between atoms: C_60  and  C_61
REMARK   23  A    between atoms: C_61  and  O_63
REMARK                            x       y       z     vdW  Elec       q    Type
REMARK                         _______ _______ _______ _____ _____    ______ ____
ROOT
ATOM      1  C   UNL     1      -8.897  -0.627   0.000  0.00  0.00    +0.000 C 
ATOM      2  C   UNL     1      -8.897   0.197   0.000  0.00  0.00    +0.000 C 
ATOM      3  C   UNL     1      -8.114   0.451   0.000  0.00  0.00    +0.000 C 
ATOM      4  C   UNL     1      -7.825   1.238   0.000  0.00  0.00    +0.000 C 
ATOM      5  C   UNL     1      -7.073   1.573   0.000  0.00  0.00    +0.000 A 
ATOM      6  C   UNL     1      -6.819   2.356   0.000  0.00  0.00    +0.000 A 
ATOM      7  C   UNL     1      -5.995   2.356   0.000  0.00  0.00    +0.000 A 
ATOM      8  C   UNL     1      -5.740   1.573   0.000  0.00  0.00    +0.000 A 
ATOM      9  N   UNL     1      -6.407   1.089   0.000  0.00  0.00    +0.000 NA
ATOM     10  C   UNL     1      -4.957   1.318   0.000  0.00  0.00    +0.000 C 
ATOM     11  C   UNL     1      -4.700   0.561   0.000  0.00  0.00    +0.000 C 
ATOM     12  N   UNL     1      -5.184  -0.105   0.000  0.00  0.00    +0.000 NA
ATOM     13  C   UNL     1      -4.700  -0.771   0.000  0.00  0.00    +0.000 C 
ATOM     14  C   UNL     1      -3.917  -0.517   0.000  0.00  0.00    +0.000 C 
ATOM     15  C   UNL     1      -3.917   0.307   0.000  0.00  0.00    +0.000 C 
ATOM     16  C   UNL     1      -3.304   0.859   0.000  0.00  0.00    +0.000 C 
ATOM     17  C   UNL     1      -4.901  -1.627   0.000  0.00  0.00    +0.000 C 
ATOM     18  C   UNL     1      -5.721  -1.708   0.000  0.00  0.00    +0.000 A 
ATOM     19  N   UNL     1      -6.431  -1.291   0.000  0.00  0.00    +0.000 NA
ATOM     20  C   UNL     1      -7.047  -1.839   0.000  0.00  0.00    +0.000 A 
ATOM     21  C   UNL     1      -7.850  -1.663   0.000  0.00  0.00    +0.000 C 
ATOM     22  C   UNL     1      -8.114  -0.881   0.000  0.00  0.00    +0.000 C 
ATOM     23  N   UNL     1      -7.629  -0.215   0.000  0.00  0.00    +0.000 NA
ATOM     24  C   UNL     1      -6.716  -2.593   0.000  0.00  0.00    +0.000 A 
ATOM     25  C   UNL     1      -5.897  -2.512   0.000  0.00  0.00    +0.000 A 
ATOM     26  C   UNL     1      -5.186  -2.929   0.000  0.00  0.00    +0.000 C 
ATOM     27  O   UNL     1      -5.192  -3.754   0.000  0.00  0.00    +0.000 OA
ATOM     28  C   UNL     1      -4.571  -2.381   0.000  0.00  0.00    +0.000 C 
ATOM     29  C   UNL     1      -7.134  -3.305   0.000  0.00  0.00    +0.000 C 
ATOM     30  C   UNL     1      -5.510   3.023   0.000  0.00  0.00    +0.000 C 
ENDROOT
BRANCH   6  31
ATOM     31  C   UNL     1      -7.371   2.969   0.000  0.00  0.00    +0.000 C 
ATOM     32  C   UNL     1      -7.116   3.754   0.000  0.00  0.00    +0.000 C 
ENDBRANCH   6  31
BRANCH  28  33
ATOM     33  C   UNL     1      -3.765  -2.558   0.000  0.00  0.00    +0.000 C 
ATOM     34  O   UNL     1      -3.209  -1.948   0.000  0.00  0.00    +0.000 OA
BRANCH  33  35
ATOM     35  O   UNL     1      -3.515  -3.344   0.000  0.00  0.00    +0.000 OA
ATOM     36  C   UNL     1      -2.709  -3.521   0.000  0.00  0.00    +0.000 C 
ENDBRANCH  33  35
ENDBRANCH  28  33
BRANCH   1  38
ATOM     37  C   UNL     1     -10.295  -0.924   0.000  0.00  0.00    +0.000 C 
ATOM     38  C   UNL     1      -9.510  -1.179   0.000  0.00  0.00    +0.000 C 
ENDBRANCH   1  38
BRANCH   2  39
ATOM     39  C   UNL     1      -9.564   0.682   0.000  0.00  0.00    +0.000 C 
ATOM     40  O   UNL     1      -9.478   1.502   0.000  0.00  0.00    +0.000 OA
ENDBRANCH   2  39
BRANCH  14  41
ATOM     41  C   UNL     1      -3.249  -1.002   0.000  0.00  0.00    +0.000 C 
BRANCH  41  42
ATOM     42  C   UNL     1      -2.496  -0.666   0.000  0.00  0.00    +0.000 C 
BRANCH  42  43
ATOM     43  C   UNL     1      -1.828  -1.151   0.000  0.00  0.00    +0.000 C 
ATOM     44  O   UNL     1      -1.914  -1.972   0.000  0.00  0.00    +0.000 OA
BRANCH  43  45
ATOM     45  O   UNL     1      -1.074  -0.816   0.000  0.00  0.00    +0.000 OA
BRANCH  45  46
ATOM     46  C   UNL     1      -0.407  -1.301   0.000  0.00  0.00    +0.000 C 
BRANCH  46  47
ATOM     47  C   UNL     1       0.347  -0.965   0.000  0.00  0.00    +0.000 C 
ATOM     48  C   UNL     1       1.014  -1.450   0.000  0.00  0.00    +0.000 C 
ATOM     49  C   UNL     1       0.928  -2.271   0.000  0.00  0.00    +0.000 C 
BRANCH  48  50
ATOM     50  C   UNL     1       1.768  -1.115   0.000  0.00  0.00    +0.000 C 
BRANCH  50  51
ATOM     51  C   UNL     1       2.435  -1.599   0.000  0.00  0.00    +0.000 C 
BRANCH  51  52
ATOM     52  C   UNL     1       3.189  -1.264   0.000  0.00  0.00    +0.000 C 
BRANCH  52  53
ATOM     53  C   UNL     1       3.856  -1.749   0.000  0.00  0.00    +0.000 C 
ATOM     54  C   UNL     1       3.770  -2.569   0.000  0.00  0.00    +0.000 C 
BRANCH  53  55
ATOM     55  C   UNL     1       4.610  -1.413   0.000  0.00  0.00    +0.000 C 
BRANCH  55  56
ATOM     56  C   UNL     1       5.277  -1.898   0.000  0.00  0.00    +0.000 C 
BRANCH  56  57
ATOM     57  C   UNL     1       6.031  -1.563   0.000  0.00  0.00    +0.000 C 
BRANCH  57  58
ATOM     58  C   UNL     1       6.699  -2.048   0.000  0.00  0.00    +0.000 C 
ATOM     59  C   UNL     1       6.612  -2.868   0.000  0.00  0.00    +0.000 C 
BRANCH  58  60
ATOM     60  C   UNL     1       7.452  -1.712   0.000  0.00  0.00    +0.000 C 
BRANCH  60  61
ATOM     61  C   UNL     1       8.120  -2.197   0.000  0.00  0.00    +0.000 C 
BRANCH  61  62
ATOM     62  C   UNL     1       8.873  -1.861   0.000  0.00  0.00    +0.000 C 
BRANCH  62  63
ATOM     63  C   UNL     1       9.541  -2.346   0.000  0.00  0.00    +0.000 C 
ATOM     64  C   UNL     1      10.295  -2.011   0.000  0.00  0.00    +0.000 C 
ATOM     65  C   UNL     1       9.455  -3.167   0.000  0.00  0.00    +0.000 C 
ENDBRANCH  62  63
ENDBRANCH  61  62
ENDBRANCH  60  61
ENDBRANCH  58  60
ENDBRANCH  57  58
ENDBRANCH  56  57
ENDBRANCH  55  56
ENDBRANCH  53  55
ENDBRANCH  52  53
ENDBRANCH  51  52
ENDBRANCH  50  51
ENDBRANCH  48  50
ENDBRANCH  46  47
ENDBRANCH  45  46
ENDBRANCH  43  45
ENDBRANCH  42  43
ENDBRANCH  41  42
ENDBRANCH  14  41
TORSDOF 23
