REMARK  Name = 
REMARK  18 active torsions:
REMARK  status: ('A' for Active; 'I' for Inactive)
REMARK    1  A    between atoms: N_2  and  C_3
REMARK    2  A    between atoms: C_3  and  C_4
REMARK    3  A    between atoms: C_3  and  C_12
REMARK    4  A    between atoms: C_4  and  C_5
REMARK    5  A    between atoms: N_14  and  C_15
REMARK    6  A    between atoms: N_14  and  C_22
REMARK    7  A    between atoms: C_15  and  C_16
REMARK    8  A    between atoms: C_22  and  C_23
REMARK    9  A    between atoms: C_22  and  C_31
REMARK   10  A    between atoms: C_23  and  C_24
REMARK   11  A    between atoms: C_24  and  C_25
REMARK   12  A    between atoms: C_31  and  C_32
REMARK   13  A    between atoms: C_32  and  C_33
REMARK   14  A    between atoms: C_39  and  C_41
REMARK   15  A    between atoms: C_41  and  C_43
REMARK   16  A    between atoms: C_45  and  O_53
REMARK   17  A    between atoms: C_46  and  O_51
REMARK   18  A    between atoms: C_47  and  O_49
REMARK                            x       y       z     vdW  Elec       q    Type
REMARK                         _______ _______ _______ _____ _____    ______ ____
ROOT
ATOM      1  C   UNL     1       5.314  -7.103   0.000  0.00  0.00    +0.000 C 
ENDROOT
BRANCH   1   3
ATOM      2  C   UNL     1       5.710  -5.730   0.000  0.00  0.00    +0.000 C 
ATOM      3  N   UNL     1       5.908  -6.531   0.000  0.00  0.00    +0.000 N 
ATOM      4  C   UNL     1       6.701  -6.760   0.000  0.00  0.00    +0.000 C 
ATOM      5  O   UNL     1       7.332  -7.291   0.000  0.00  0.00    +0.000 OA
BRANCH   4   6
ATOM      6  C   UNL     1       7.295  -6.188   0.000  0.00  0.00    +0.000 C 
ATOM      7  O   UNL     1       7.097  -5.387   0.000  0.00  0.00    +0.000 OA
BRANCH   6   8
ATOM      8  C   UNL     1       8.088  -6.416   0.000  0.00  0.00    +0.000 A 
ATOM      9  C   UNL     1       8.683  -5.844   0.000  0.00  0.00    +0.000 A 
ATOM     10  C   UNL     1       9.475  -6.073   0.000  0.00  0.00    +0.000 A 
ATOM     11  C   UNL     1       9.673  -6.874   0.000  0.00  0.00    +0.000 A 
ATOM     12  C   UNL     1       9.079  -7.446   0.000  0.00  0.00    +0.000 A 
ATOM     13  C   UNL     1       8.286  -7.217   0.000  0.00  0.00    +0.000 A 
BRANCH  10  14
ATOM     14  O   UNL     1      10.070  -5.501   0.000  0.00  0.00    +0.000 OA
ATOM     15  C   UNL     1       9.872  -4.700   0.000  0.00  0.00    +0.000 C 
ENDBRANCH  10  14
BRANCH  11  16
ATOM     16  O   UNL     1      10.466  -7.103   0.000  0.00  0.00    +0.000 OA
ATOM     17  C   UNL     1      11.060  -6.531   0.000  0.00  0.00    +0.000 C 
ENDBRANCH  11  16
BRANCH  12  18
ATOM     18  O   UNL     1       9.277  -8.247   0.000  0.00  0.00    +0.000 OA
ATOM     19  C   UNL     1      10.070  -8.476   0.000  0.00  0.00    +0.000 C 
ENDBRANCH  12  18
ENDBRANCH   6   8
ENDBRANCH   4   6
ENDBRANCH   1   3
BRANCH   1  20
ATOM     20  C   UNL     1       4.521  -6.874   0.000  0.00  0.00    +0.000 C 
ATOM     21  O   UNL     1       4.323  -6.073   0.000  0.00  0.00    +0.000 OA
ATOM     22  N   UNL     1       3.927  -7.446   0.000  0.00  0.00    +0.000 N 
BRANCH  22  23
ATOM     23  C   UNL     1       4.125  -8.247   0.000  0.00  0.00    +0.000 C 
BRANCH  23  24
ATOM     24  C   UNL     1       3.530  -8.819   0.000  0.00  0.00    +0.000 A 
ATOM     25  C   UNL     1       3.729  -9.620   0.000  0.00  0.00    +0.000 A 
ATOM     26  C   UNL     1       3.134 -10.192   0.000  0.00  0.00    +0.000 A 
ATOM     27  C   UNL     1       2.342  -9.963   0.000  0.00  0.00    +0.000 A 
ATOM     28  C   UNL     1       2.143  -9.162   0.000  0.00  0.00    +0.000 A 
ATOM     29  C   UNL     1       2.738  -8.590   0.000  0.00  0.00    +0.000 A 
ENDBRANCH  23  24
ENDBRANCH  22  23
BRANCH  22  30
ATOM     30  C   UNL     1       3.134  -7.217   0.000  0.00  0.00    +0.000 C 
BRANCH  30  31
ATOM     31  C   UNL     1       2.936  -6.416   0.000  0.00  0.00    +0.000 C 
BRANCH  31  32
ATOM     32  C   UNL     1       2.143  -6.188   0.000  0.00  0.00    +0.000 C 
BRANCH  32  33
ATOM     33  C   UNL     1       1.945  -5.387   0.000  0.00  0.00    +0.000 A 
ATOM     34  C   UNL     1       1.153  -5.158   0.000  0.00  0.00    +0.000 A 
ATOM     35  C   UNL     1       0.955  -4.357   0.000  0.00  0.00    +0.000 A 
ATOM     36  N   UNL     1       1.549  -3.785   0.000  0.00  0.00    +0.000 NA
ATOM     37  C   UNL     1       2.342  -4.014   0.000  0.00  0.00    +0.000 A 
ATOM     38  C   UNL     1       2.540  -4.815   0.000  0.00  0.00    +0.000 A 
ENDBRANCH  32  33
ENDBRANCH  31  32
ENDBRANCH  30  31
BRANCH  30  39
ATOM     39  C   UNL     1       2.540  -7.789   0.000  0.00  0.00    +0.000 C 
BRANCH  39  40
ATOM     40  C   UNL     1       1.747  -7.560   0.000  0.00  0.00    +0.000 C 
BRANCH  40  41
ATOM     41  C   UNL     1       1.153  -8.132   0.000  0.00  0.00    +0.000 A 
ATOM     42  C   UNL     1       1.351  -8.933   0.000  0.00  0.00    +0.000 A 
ATOM     43  C   UNL     1       0.756  -9.505   0.000  0.00  0.00    +0.000 A 
ATOM     44  N   UNL     1      -0.036  -9.277   0.000  0.00  0.00    +0.000 NA
ATOM     45  C   UNL     1      -0.234  -8.476   0.000  0.00  0.00    +0.000 A 
ATOM     46  C   UNL     1       0.360  -7.904   0.000  0.00  0.00    +0.000 A 
ENDBRANCH  40  41
ENDBRANCH  39  40
ENDBRANCH  30  39
ENDBRANCH  22  30
ENDBRANCH   1  20
BRANCH   1  47
ATOM     47  C   UNL     1       5.512  -7.904   0.000  0.00  0.00    +0.000 C 
BRANCH  47  48
ATOM     48  C   UNL     1       6.305  -8.132   0.000  0.00  0.00    +0.000 A 
ATOM     49  C   UNL     1       6.899  -7.560   0.000  0.00  0.00    +0.000 A 
ATOM     50  C   UNL     1       7.692  -7.789   0.000  0.00  0.00    +0.000 A 
ATOM     51  C   UNL     1       7.890  -8.590   0.000  0.00  0.00    +0.000 A 
ATOM     52  C   UNL     1       7.295  -9.162   0.000  0.00  0.00    +0.000 A 
ATOM     53  C   UNL     1       6.503  -8.933   0.000  0.00  0.00    +0.000 A 
ATOM     54 CL   UNL     1       8.683  -8.819   0.000  0.00  0.00    +0.000 Cl
ENDBRANCH  47  48
ENDBRANCH   1  47
TORSDOF 18
