REMARK  Name = 
REMARK  2 active torsions:
REMARK  status: ('A' for Active; 'I' for Inactive)
REMARK    1  A    between atoms: C_11  and  C_19
REMARK    2  A    between atoms: C_19  and  C_27
REMARK                            x       y       z     vdW  Elec       q    Type
REMARK                         _______ _______ _______ _____ _____    ______ ____
ROOT
ATOM      1  F   UNL     1      -0.872  -2.885   0.000  0.00  0.00    +0.000 F 
ATOM      2  O   UNL     1       2.132   1.230   0.000  0.00  0.00    +0.000 OA
ATOM      3  O   UNL     1       2.893   0.395   0.000  0.00  0.00    +0.000 OA
ATOM      4  O   UNL     1      -1.566   0.843   0.000  0.00  0.00    +0.000 OA
ATOM      5  O   UNL     1      -3.728  -2.058   0.000  0.00  0.00    +0.000 OA
ATOM      6  C   UNL     1       0.567  -0.417   0.000  0.00  0.00    +0.000 C 
ATOM      7  C   UNL     1       0.574   0.403   0.000  0.00  0.00    +0.000 C 
ATOM      8  C   UNL     1      -0.149  -0.820   0.000  0.00  0.00    +0.000 C 
ATOM      9  C   UNL     1       1.290   0.813   0.000  0.00  0.00    +0.000 C 
ATOM     10  C   UNL     1      -0.865  -0.403   0.000  0.00  0.00    +0.000 C 
ATOM     11  C   UNL     1       1.998   0.388   0.000  0.00  0.00    +0.000 C 
ATOM     12  C   UNL     1      -1.581  -0.813   0.000  0.00  0.00    +0.000 C 
ATOM     13  C   UNL     1       1.991  -0.432   0.000  0.00  0.00    +0.000 C 
ATOM     14  C   UNL     1      -0.857   0.417   0.000  0.00  0.00    +0.000 C 
ATOM     15  C   UNL     1      -0.141   0.828   0.000  0.00  0.00    +0.000 C 
ATOM     16  C   UNL     1      -0.149  -1.648   0.000  0.00  0.00    +0.000 C 
ATOM     17  C   UNL     1      -1.581  -1.640   0.000  0.00  0.00    +0.000 C 
ATOM     18  C   UNL     1       2.930   1.230   0.000  0.00  0.00    +0.000 C 
ATOM     19  C   UNL     1       0.552   1.275   0.000  0.00  0.00    +0.000 C 
ATOM     20  C   UNL     1      -0.872  -2.058   0.000  0.00  0.00    +0.000 C 
ATOM     21  C   UNL     1      -2.296  -0.403   0.000  0.00  0.00    +0.000 C 
ATOM     22  C   UNL     1      -1.581  -0.067   0.000  0.00  0.00    +0.000 C 
ATOM     23  C   UNL     1      -2.296  -2.058   0.000  0.00  0.00    +0.000 C 
ATOM     24  C   UNL     1      -3.012  -0.813   0.000  0.00  0.00    +0.000 C 
ATOM     25  C   UNL     1       2.893   1.946   0.000  0.00  0.00    +0.000 C 
ATOM     26  C   UNL     1       3.728   1.230   0.000  0.00  0.00    +0.000 C 
ATOM     27  C   UNL     1      -3.012  -1.640   0.000  0.00  0.00    +0.000 C 
ENDROOT
BRANCH   9  29
ATOM     28  O   UNL     1       2.021   2.043   0.000  0.00  0.00    +0.000 OA
ATOM     29  C   UNL     1       1.297   1.640   0.000  0.00  0.00    +0.000 C 
BRANCH  29  31
ATOM     30  O   UNL     1       0.597   2.885   0.000  0.00  0.00    +0.000 OA
ATOM     31  C   UNL     1       0.589   2.058   0.000  0.00  0.00    +0.000 C 
ENDBRANCH  29  31
ENDBRANCH   9  29
TORSDOF 2
