REMARK  Name = 
REMARK  4 active torsions:
REMARK  status: ('A' for Active; 'I' for Inactive)
REMARK    1  A    between atoms: C_2  and  C_3
REMARK    2  A    between atoms: C_3  and  C_4
REMARK    3  A    between atoms: C_3  and  N_6
REMARK    4  A    between atoms: C_14  and  C_16
REMARK                            x       y       z     vdW  Elec       q    Type
REMARK                         _______ _______ _______ _____ _____    ______ ____
ROOT
ATOM      1  N   UNL     1      -0.143  -1.365   0.000  0.00  0.00    +0.000 N 
ATOM      2  C   UNL     1       0.641  -1.110   0.000  0.00  0.00    +0.000 A 
ATOM      3  C   UNL     1       0.641  -0.285   0.000  0.00  0.00    +0.000 A 
ATOM      4  N   UNL     1      -0.143  -0.030   0.000  0.00  0.00    +0.000 NA
ATOM      5  C   UNL     1      -0.628  -0.698   0.000  0.00  0.00    +0.000 A 
ATOM      6  O   UNL     1      -1.453  -0.698   0.000  0.00  0.00    +0.000 OA
ATOM      7  N   UNL     1       1.356   0.127   0.000  0.00  0.00    +0.000 NA
ATOM      8  C   UNL     1       2.070  -0.285   0.000  0.00  0.00    +0.000 A 
ATOM      9  C   UNL     1       2.070  -1.110   0.000  0.00  0.00    +0.000 A 
ATOM     10  N   UNL     1       1.356  -1.523   0.000  0.00  0.00    +0.000 NA
ENDROOT
BRANCH   9  11
ATOM     11  C   UNL     1       2.784  -1.523   0.000  0.00  0.00    +0.000 C 
ATOM     12  C   UNL     1       3.499  -1.935   0.000  0.00  0.00    +0.000 C 
ENDBRANCH   9  11
BRANCH   1  13
ATOM     13  C   UNL     1      -0.398  -2.150   0.000  0.00  0.00    +0.000 C 
BRANCH  13  15
ATOM     14  C   UNL     1      -1.460  -3.106   0.000  0.00  0.00    +0.000 C 
ATOM     15  C   UNL     1      -1.205  -2.321   0.000  0.00  0.00    +0.000 C 
ENDBRANCH  13  15
BRANCH  13  16
ATOM     16  C   UNL     1       0.154  -2.763   0.000  0.00  0.00    +0.000 C 
ATOM     17  C   UNL     1       0.961  -2.592   0.000  0.00  0.00    +0.000 C 
ENDBRANCH  13  16
ENDBRANCH   1  13
TORSDOF 4
