REMARK  Name = 
REMARK  5 active torsions:
REMARK  status: ('A' for Active; 'I' for Inactive)
REMARK    1  A    between atoms: C_6  and  C_7
REMARK    2  A    between atoms: C_7  and  C_9
REMARK    3  A    between atoms: C_12  and  C_16
REMARK    4  A    between atoms: C_16  and  N_17
REMARK    5  A    between atoms: C_19  and  C_22
REMARK                            x       y       z     vdW  Elec       q    Type
REMARK                         _______ _______ _______ _____ _____    ______ ____
ROOT
ATOM      1  C   UNL     1      -0.107   5.590   0.000  0.00  0.00    +0.000 A 
ATOM      2  C   UNL     1       0.608   6.003   0.000  0.00  0.00    +0.000 A 
ATOM      3  C   UNL     1       1.322   5.590   0.000  0.00  0.00    +0.000 A 
ATOM      4  C   UNL     1       1.322   4.765   0.000  0.00  0.00    +0.000 A 
ATOM      5  C   UNL     1       0.608   4.353   0.000  0.00  0.00    +0.000 A 
ATOM      6  C   UNL     1      -0.107   4.765   0.000  0.00  0.00    +0.000 A 
ATOM      7 CL   UNL     1      -0.821   4.353   0.000  0.00  0.00    +0.000 Cl
ATOM      8 CL   UNL     1       0.608   6.828   0.000  0.00  0.00    +0.000 Cl
ENDROOT
BRANCH   1   9
ATOM      9  C   UNL     1      -0.821   6.003   0.000  0.00  0.00    +0.000 C 
ATOM     10  O   UNL     1      -1.536   5.590   0.000  0.00  0.00    +0.000 OA
BRANCH   9  16
ATOM     11  C   UNL     1      -1.536   7.240   0.000  0.00  0.00    +0.000 A 
ATOM     12  C   UNL     1      -1.536   8.065   0.000  0.00  0.00    +0.000 A 
ATOM     13  C   UNL     1      -0.821   8.478   0.000  0.00  0.00    +0.000 A 
ATOM     14  C   UNL     1      -0.107   8.065   0.000  0.00  0.00    +0.000 A 
ATOM     15  C   UNL     1      -0.107   7.240   0.000  0.00  0.00    +0.000 A 
ATOM     16  C   UNL     1      -0.821   6.828   0.000  0.00  0.00    +0.000 A 
ATOM     17 CL   UNL     1      -0.821   9.303   0.000  0.00  0.00    +0.000 Cl
ENDBRANCH   9  16
ENDBRANCH   1   9
BRANCH   4  18
ATOM     18  C   UNL     1       2.037   4.353   0.000  0.00  0.00    +0.000 C 
BRANCH  18  19
ATOM     19  N   UNL     1       2.037   3.528   0.000  0.00  0.00    +0.000 N 
ATOM     20  C   UNL     1       2.704   3.043   0.000  0.00  0.00    +0.000 A 
ATOM     21  C   UNL     1       2.449   2.258   0.000  0.00  0.00    +0.000 A 
ATOM     22  N   UNL     1       1.624   2.258   0.000  0.00  0.00    +0.000 NA
ATOM     23  N   UNL     1       1.369   3.043   0.000  0.00  0.00    +0.000 NA
ATOM     24  N   UNL     1       3.489   3.298   0.000  0.00  0.00    +0.000 NA
BRANCH  21  25
ATOM     25  C   UNL     1       2.934   1.591   0.000  0.00  0.00    +0.000 C 
ATOM     26  O   UNL     1       2.599   0.837   0.000  0.00  0.00    +0.000 OA
ATOM     27  N   UNL     1       3.755   1.677   0.000  0.00  0.00    +0.000 NA
ENDBRANCH  21  25
ENDBRANCH  18  19
ENDBRANCH   4  18
TORSDOF 5
