REMARK  Name = 
REMARK  2 active torsions:
REMARK  status: ('A' for Active; 'I' for Inactive)
REMARK    1  A    between atoms: C_1  and  C_8
REMARK    2  A    between atoms: C_1  and  N_9
REMARK                            x       y       z     vdW  Elec       q    Type
REMARK                         _______ _______ _______ _____ _____    ______ ____
ROOT
ATOM      1  C   UNL     1       0.502  -0.019   0.000  0.00  0.00    +0.000 C 
ATOM      2  C   UNL     1       1.329  -0.196   0.000  0.00  0.00    +0.000 C 
ATOM      3  O   UNL     1       1.584  -0.981   0.000  0.00  0.00    +0.000 OA
ATOM      4  C   UNL     1       0.247   0.765   0.000  0.00  0.00    +0.000 C 
ATOM      5  C   UNL     1       1.882   0.415   0.000  0.00  0.00    +0.000 C 
ATOM      6  C   UNL     1       0.800   1.377   0.000  0.00  0.00    +0.000 C 
ATOM      7  C   UNL     1       1.627   1.200   0.000  0.00  0.00    +0.000 C 
ENDROOT
BRANCH   1   8
ATOM      8  C   UNL     1      -0.324  -0.060   0.000  0.00  0.00    +0.000 A 
ATOM      9  C   UNL     1      -0.701  -0.793   0.000  0.00  0.00    +0.000 A 
ATOM     10  C   UNL     1      -1.525  -0.834   0.000  0.00  0.00    +0.000 A 
ATOM     11  C   UNL     1      -1.972  -0.140   0.000  0.00  0.00    +0.000 A 
ATOM     12  C   UNL     1      -0.771   0.634   0.000  0.00  0.00    +0.000 A 
ATOM     13  C   UNL     1      -1.594   0.593   0.000  0.00  0.00    +0.000 A 
ATOM     14 CL   UNL     1      -0.394   1.367   0.000  0.00  0.00    +0.000 Cl
ENDBRANCH   1   8
BRANCH   1  15
ATOM     15  N   UNL     1       0.546  -0.847   0.000  0.00  0.00    +0.000 NA
ATOM     16  C   UNL     1      -0.145  -1.296   0.000  0.00  0.00    +0.000 C 
ENDBRANCH   1  15
TORSDOF 2
