REMARK  Name = 
REMARK  3 active torsions:
REMARK  status: ('A' for Active; 'I' for Inactive)
REMARK    1  A    between atoms: C_2  and  C_18
REMARK    2  A    between atoms: N_8  and  C1*_9
REMARK    3  A    between atoms: C4*_12  and  C5*_14
REMARK                            x       y       z     vdW  Elec       q    Type
REMARK                         _______ _______ _______ _____ _____    ______ ____
ROOT
ATOM      1  C   UNL     1       2.037   1.176   0.000  0.00  0.00    +0.000 A 
ATOM      2  C   UNL     1       2.037   2.001   0.000  0.00  0.00    +0.000 A 
ATOM      3  C   UNL     1       2.751   2.413   0.000  0.00  0.00    +0.000 A 
ATOM      4  O   UNL     1       2.751   3.238   0.000  0.00  0.00    +0.000 OA
ATOM      5  N   UNL     1       3.466   2.001   0.000  0.00  0.00    +0.000 NA
ATOM      6  C   UNL     1       3.466   1.176   0.000  0.00  0.00    +0.000 A 
ATOM      7  O   UNL     1       4.180   0.763   0.000  0.00  0.00    +0.000 OA
ATOM      8  N   UNL     1       2.751   0.763   0.000  0.00  0.00    +0.000 N 
ENDROOT
BRANCH   8   9
ATOM      9  C1* UNL     1       2.751  -0.062   0.000  0.00  0.00    +0.000 C 
ATOM     10  C2* UNL     1       3.419  -0.546   0.000  0.00  0.00    +0.000 C 
ATOM     11  C3* UNL     1       3.164  -1.331   0.000  0.00  0.00    +0.000 C 
ATOM     12  C4* UNL     1       2.339  -1.331   0.000  0.00  0.00    +0.000 C 
ATOM     13  O4* UNL     1       2.084  -0.546   0.000  0.00  0.00    +0.000 OA
ATOM     14  O3* UNL     1       3.649  -1.999   0.000  0.00  0.00    +0.000 OA
ATOM     15  O2* UNL     1       4.203  -0.292   0.000  0.00  0.00    +0.000 OA
BRANCH  12  16
ATOM     16  C5* UNL     1       1.854  -1.999   0.000  0.00  0.00    +0.000 C 
ATOM     17  O5* UNL     1       2.189  -2.752   0.000  0.00  0.00    +0.000 OA
ENDBRANCH  12  16
ENDBRANCH   8   9
BRANCH   2  18
ATOM     18  C   UNL     1       1.322   2.413   0.000  0.00  0.00    +0.000 C 
ATOM     19  C   UNL     1       1.322   3.238   0.000  0.00  0.00    +0.000 C 
ATOM     20 BR   UNL     1       0.608   3.651   0.000  0.00  0.00    +0.000 Br
ENDBRANCH   2  18
TORSDOF 3
