REMARK  Name = 
REMARK  0 active torsions:
REMARK  status: ('A' for Active; 'I' for Inactive)
REMARK                            x       y       z     vdW  Elec       q    Type
REMARK                         _______ _______ _______ _____ _____    ______ ____
ROOT
ATOM      1  V   UNL     1       0.000   0.604   0.000  0.00  0.00    +0.000 V 
ATOM      2  O   UNL     1       0.715   1.017   0.000  0.00  0.00    +0.000 OA
ATOM      3  O   UNL     1      -0.715   1.017   0.000  0.00  0.00    +0.000 OA
ATOM      4  O   UNL     1       0.000  -0.221   0.000  0.00  0.00    +0.000 OA
ENDROOT
TORSDOF 0
REMARK  Name = 
REMARK  0 active torsions:
REMARK  status: ('A' for Active; 'I' for Inactive)
REMARK                            x       y       z     vdW  Elec       q    Type
REMARK                         _______ _______ _______ _____ _____    ______ ____
ROOT
ATOM      1 NA   UNL     1       0.000  -1.017   0.000  0.00  0.00    +0.000 Na
ENDROOT
TORSDOF 0
