REMARK  Name = 
REMARK  2 active torsions:
REMARK  status: ('A' for Active; 'I' for Inactive)
REMARK    1  A    between atoms: C_6  and  C_11
REMARK    2  A    between atoms: C_14  and  C_20
REMARK                            x       y       z     vdW  Elec       q    Type
REMARK                         _______ _______ _______ _____ _____    ______ ____
ROOT
ATOM      1  C   UNL     1       2.070   1.110   0.000  0.00  0.00    +0.000 A 
ATOM      2  C   UNL     1       1.356   0.698   0.000  0.00  0.00    +0.000 A 
ATOM      3  N   UNL     1       0.641   1.110   0.000  0.00  0.00    +0.000 N 
ATOM      4  C   UNL     1      -0.143   0.856   0.000  0.00  0.00    +0.000 A 
ATOM      5  C   UNL     1      -0.628   1.523   0.000  0.00  0.00    +0.000 A 
ATOM      6  N   UNL     1      -0.143   2.190   0.000  0.00  0.00    +0.000 NA
ATOM      7  C   UNL     1       0.641   1.935   0.000  0.00  0.00    +0.000 A 
ATOM      8  C   UNL     1       1.356   2.348   0.000  0.00  0.00    +0.000 A 
ATOM      9  C   UNL     1       2.070   1.935   0.000  0.00  0.00    +0.000 A 
ENDROOT
BRANCH   1  15
ATOM     10  N   UNL     1       4.904  -2.147   0.000  0.00  0.00    +0.000 NA
ATOM     11  C   UNL     1       4.491  -1.433   0.000  0.00  0.00    +0.000 A 
ATOM     12  N   UNL     1       3.671  -1.347   0.000  0.00  0.00    +0.000 NA
ATOM     13  C   UNL     1       3.499  -0.540   0.000  0.00  0.00    +0.000 A 
ATOM     14  C   UNL     1       2.784  -0.127   0.000  0.00  0.00    +0.000 A 
ATOM     15  C   UNL     1       2.784   0.698   0.000  0.00  0.00    +0.000 A 
ATOM     16  C   UNL     1       3.499   1.110   0.000  0.00  0.00    +0.000 A 
ATOM     17  C   UNL     1       4.213   0.698   0.000  0.00  0.00    +0.000 A 
ATOM     18  C   UNL     1       4.213  -0.127   0.000  0.00  0.00    +0.000 A 
ATOM     19  O   UNL     1       4.827  -0.679   0.000  0.00  0.00    +0.000 OA
ENDBRANCH   1  15
BRANCH   4  20
ATOM     20  C   UNL     1      -0.398   0.071   0.000  0.00  0.00    +0.000 C 
ATOM     21  O   UNL     1       0.154  -0.542   0.000  0.00  0.00    +0.000 OA
ATOM     22  N   UNL     1      -1.205  -0.101   0.000  0.00  0.00    +0.000 N 
ATOM     23  C   UNL     1      -1.460  -0.885   0.000  0.00  0.00    +0.000 C 
ATOM     24  C   UNL     1      -2.267  -1.057   0.000  0.00  0.00    +0.000 C 
ATOM     25  O   UNL     1      -2.819  -0.444   0.000  0.00  0.00    +0.000 OA
ATOM     26  C   UNL     1      -2.564   0.341   0.000  0.00  0.00    +0.000 C 
ATOM     27  C   UNL     1      -1.758   0.512   0.000  0.00  0.00    +0.000 C 
ENDBRANCH   4  20
TORSDOF 2
