REMARK  Name = 
REMARK  6 active torsions:
REMARK  status: ('A' for Active; 'I' for Inactive)
REMARK    1  A    between atoms: C_2  and  N_3
REMARK    2  A    between atoms: C_5  and  O_7
REMARK    3  A    between atoms: O_7  and  C_8
REMARK    4  A    between atoms: C_14  and  N_15
REMARK    5  A    between atoms: N_15  and  C_16
REMARK    6  A    between atoms: C_16  and  C_17
REMARK                            x       y       z     vdW  Elec       q    Type
REMARK                         _______ _______ _______ _____ _____    ______ ____
ROOT
ATOM      1  C   UNL     1       3.572  -2.888   0.000  0.00  0.00    +0.000 A 
ATOM      2  C   UNL     1       4.287  -2.475   0.000  0.00  0.00    +0.000 A 
ATOM      3  C   UNL     1       5.001  -2.888   0.000  0.00  0.00    +0.000 A 
ATOM      4  C   UNL     1       5.001  -3.712   0.000  0.00  0.00    +0.000 A 
ATOM      5  C   UNL     1       5.786  -3.967   0.000  0.00  0.00    +0.000 C 
ATOM      6  C   UNL     1       6.271  -3.300   0.000  0.00  0.00    +0.000 C 
ATOM      7  C   UNL     1       5.786  -2.633   0.000  0.00  0.00    +0.000 C 
ATOM      8  C   UNL     1       4.287  -4.125   0.000  0.00  0.00    +0.000 A 
ATOM      9  C   UNL     1       3.572  -3.712   0.000  0.00  0.00    +0.000 A 
ENDROOT
BRANCH   1  10
ATOM     10  O   UNL     1       2.858  -2.475   0.000  0.00  0.00    +0.000 OA
BRANCH  10  13
ATOM     11  N   UNL     1       1.429  -2.475   0.000  0.00  0.00    +0.000 N 
ATOM     12  C   UNL     1       1.429  -1.650   0.000  0.00  0.00    +0.000 C 
ATOM     13  C   UNL     1       2.143  -2.888   0.000  0.00  0.00    +0.000 C 
ATOM     14  O   UNL     1       2.143  -3.712   0.000  0.00  0.00    +0.000 OA
BRANCH  11  16
ATOM     15  C   UNL     1       0.000  -2.475   0.000  0.00  0.00    +0.000 C 
ATOM     16  C   UNL     1       0.715  -2.888   0.000  0.00  0.00    +0.000 C 
ENDBRANCH  11  16
ENDBRANCH  10  13
ENDBRANCH   1  10
BRANCH   7  17
ATOM     17  N   UNL     1       6.041  -1.848   0.000  0.00  0.00    +0.000 NA
BRANCH  17  18
ATOM     18  C   UNL     1       6.848  -1.676   0.000  0.00  0.00    +0.000 C 
BRANCH  18  19
ATOM     19  C   UNL     1       7.103  -0.892   0.000  0.00  0.00    +0.000 C 
ATOM     20  C   UNL     1       7.358  -0.107   0.000  0.00  0.00    +0.000 C 
ENDBRANCH  18  19
ENDBRANCH  17  18
ENDBRANCH   7  17
TORSDOF 6
