REMARK  Name = 
REMARK  0 active torsions:
REMARK  status: ('A' for Active; 'I' for Inactive)
REMARK                            x       y       z     vdW  Elec       q    Type
REMARK                         _______ _______ _______ _____ _____    ______ ____
ROOT
ATOM      1  C   UNL     1       0.080  -1.581   0.000  0.00  0.00    +0.000 C 
ATOM      2  C   UNL     1       0.794  -1.168   0.000  0.00  0.00    +0.000 C 
ATOM      3  C   UNL     1      -0.635  -1.168   0.000  0.00  0.00    +0.000 C 
ATOM      4  C   UNL     1      -0.635  -0.343   0.000  0.00  0.00    +0.000 C 
ATOM      5  C   UNL     1       0.080   0.069   0.000  0.00  0.00    +0.000 C 
ATOM      6  C   UNL     1       0.794  -0.343   0.000  0.00  0.00    +0.000 C 
ATOM      7  C   UNL     1       0.080   0.894   0.000  0.00  0.00    +0.000 C 
ATOM      8  C   UNL     1       2.293  -0.185   0.000  0.00  0.00    +0.000 C 
ATOM      9  C   UNL     1      -1.349   0.069   0.000  0.00  0.00    +0.000 C 
ATOM     10  C   UNL     1       0.794   1.307   0.000  0.00  0.00    +0.000 C 
ATOM     11  C   UNL     1       2.293   1.149   0.000  0.00  0.00    +0.000 C 
ATOM     12  C   UNL     1       2.778   0.482   0.000  0.00  0.00    +0.000 C 
ATOM     13  C   UNL     1      -1.349  -1.581   0.000  0.00  0.00    +0.000 C 
ATOM     14  C   UNL     1      -2.064  -0.343   0.000  0.00  0.00    +0.000 C 
ATOM     15  O   UNL     1       2.548   1.934   0.000  0.00  0.00    +0.000 OA
ATOM     16  C   UNL     1      -2.064  -1.168   0.000  0.00  0.00    +0.000 C 
ATOM     17  O   UNL     1      -2.778  -1.581   0.000  0.00  0.00    +0.000 OA
ATOM     18  C   UNL     1      -0.635   0.482   0.000  0.00  0.00    +0.000 C 
ATOM     19  C   UNL     1       1.509   0.069   0.000  0.00  0.00    +0.000 C 
ATOM     20  C   UNL     1       1.509   0.894   0.000  0.00  0.00    +0.000 C 
ATOM     21  C   UNL     1       1.509   1.720   0.000  0.00  0.00    +0.000 C 
ENDROOT
TORSDOF 0
