REMARK  Name = 
REMARK  8 active torsions:
REMARK  status: ('A' for Active; 'I' for Inactive)
REMARK    1  A    between atoms: N_1  and  C_2
REMARK    2  A    between atoms: C_2  and  C_3
REMARK    3  A    between atoms: C_3  and  C_4
REMARK    4  A    between atoms: C_4  and  N_5
REMARK    5  A    between atoms: C_4  and  C_8
REMARK    6  A    between atoms: C_6  and  C_7
REMARK    7  A    between atoms: C_21  and  N_25
REMARK    8  A    between atoms: C_27  and  C_30
REMARK                            x       y       z     vdW  Elec       q    Type
REMARK                         _______ _______ _______ _____ _____    ______ ____
ROOT
ATOM      1  C   UNL     1      -1.038  -0.709   0.000  0.00  0.00    +0.000 C 
ENDROOT
BRANCH   1   2
ATOM      2  C   UNL     1      -1.752  -0.296   0.000  0.00  0.00    +0.000 C 
BRANCH   2   3
ATOM      3  C   UNL     1      -2.467  -0.709   0.000  0.00  0.00    +0.000 A 
ATOM      4  C   UNL     1      -2.467  -1.545   0.000  0.00  0.00    +0.000 A 
ATOM      5  C   UNL     1      -3.182  -1.957   0.000  0.00  0.00    +0.000 A 
ATOM      6  C   UNL     1      -3.896  -1.545   0.000  0.00  0.00    +0.000 A 
ATOM      7  C   UNL     1      -3.896  -0.708   0.000  0.00  0.00    +0.000 A 
ATOM      8  C   UNL     1      -3.181  -0.296   0.000  0.00  0.00    +0.000 A 
ENDBRANCH   2   3
BRANCH   2   9
ATOM      9  N   UNL     1      -1.752   0.529   0.000  0.00  0.00    +0.000 NA
ATOM     10  C   UNL     1      -1.038   0.941   0.000  0.00  0.00    +0.000 C 
ATOM     11  O   UNL     1      -0.324   0.529   0.000  0.00  0.00    +0.000 OA
BRANCH  10  12
ATOM     12  C   UNL     1      -1.038   1.766   0.000  0.00  0.00    +0.000 C 
ATOM     13  C   UNL     1      -0.332   2.174   0.000  0.00  0.00    +0.000 C 
ATOM     14  C   UNL     1      -0.332   2.998   0.000  0.00  0.00    +0.000 C 
ATOM     15  C   UNL     1      -1.046   3.411   0.000  0.00  0.00    +0.000 C 
ATOM     16  C   UNL     1      -1.752   3.004   0.000  0.00  0.00    +0.000 C 
ATOM     17  C   UNL     1      -1.752   2.179   0.000  0.00  0.00    +0.000 C 
ATOM     18  F   UNL     1      -1.459   4.126   0.000  0.00  0.00    +0.000 F 
ATOM     19  F   UNL     1      -0.634   4.126   0.000  0.00  0.00    +0.000 F 
ENDBRANCH  10  12
ENDBRANCH   2   9
ENDBRANCH   1   2
BRANCH   1  20
ATOM     20  C   UNL     1      -0.296  -0.296   0.000  0.00  0.00    +0.000 C 
BRANCH  20  21
ATOM     21  N   UNL     1       0.447  -0.709   0.000  0.00  0.00    +0.000 NA
ATOM     22  C   UNL     1       1.876  -0.709   0.000  0.00  0.00    +0.000 C 
ATOM     23  C   UNL     1       1.876  -1.534   0.000  0.00  0.00    +0.000 C 
ATOM     24  C   UNL     1       1.161  -0.296   0.000  0.00  0.00    +0.000 C 
ATOM     25  C   UNL     1       1.161  -1.946   0.000  0.00  0.00    +0.000 C 
ATOM     26  C   UNL     1       0.447  -1.534   0.000  0.00  0.00    +0.000 C 
ATOM     27  C   UNL     1       1.471  -0.936   0.000  0.00  0.00    +0.000 C 
ATOM     28  C   UNL     1       1.170  -1.535   0.000  0.00  0.00    +0.000 C 
BRANCH  23  29
ATOM     29  N   UNL     1       2.590  -1.946   0.000  0.00  0.00    +0.000 N 
ATOM     30  C   UNL     1       3.344  -1.611   0.000  0.00  0.00    +0.000 A 
ATOM     31  C   UNL     1       2.677  -2.767   0.000  0.00  0.00    +0.000 A 
ATOM     32  N   UNL     1       3.896  -2.224   0.000  0.00  0.00    +0.000 NA
ATOM     33  N   UNL     1       3.484  -2.938   0.000  0.00  0.00    +0.000 NA
ATOM     34  C   UNL     1       3.516  -0.804   0.000  0.00  0.00    +0.000 C 
BRANCH  31  35
ATOM     35  C   UNL     1       2.063  -3.319   0.000  0.00  0.00    +0.000 C 
ATOM     36  C   UNL     1       1.279  -3.064   0.000  0.00  0.00    +0.000 C 
ATOM     37  C   UNL     1       2.235  -4.126   0.000  0.00  0.00    +0.000 C 
ENDBRANCH  31  35
ENDBRANCH  23  29
ENDBRANCH  20  21
ENDBRANCH   1  20
TORSDOF 8
