REMARK  Name = 
REMARK  12 active torsions:
REMARK  status: ('A' for Active; 'I' for Inactive)
REMARK    1  A    between atoms: C_2  and  C_7
REMARK    2  A    between atoms: C_7  and  O_8
REMARK    3  A    between atoms: O_8  and  C_9
REMARK    4  A    between atoms: N_10  and  C_11
REMARK    5  A    between atoms: C_11  and  C_12
REMARK    6  A    between atoms: C_11  and  C_18
REMARK    7  A    between atoms: N_13  and  C_14
REMARK    8  A    between atoms: C_14  and  C_15
REMARK    9  A    between atoms: C_14  and  C_23
REMARK   10  A    between atoms: C_15  and  S_30
REMARK   11  A    between atoms: C_18  and  C_19
REMARK   12  A    between atoms: C_23  and  C_24
REMARK                            x       y       z     vdW  Elec       q    Type
REMARK                         _______ _______ _______ _____ _____    ______ ____
ROOT
ATOM      1  C   UNL     1       1.132   0.083   0.000  0.00  0.00    +0.000 C 
ATOM      2  N   UNL     1       1.847   0.495   0.000  0.00  0.00    +0.000 NA
ATOM      3  O   UNL     1       1.132  -0.742   0.000  0.00  0.00    +0.000 OA
ENDROOT
BRANCH   1   4
ATOM      4  C   UNL     1       0.418   0.495   0.000  0.00  0.00    +0.000 C 
BRANCH   4   6
ATOM      5  C   UNL     1      -1.011   0.495   0.000  0.00  0.00    +0.000 C 
ATOM      6  N   UNL     1      -0.296   0.083   0.000  0.00  0.00    +0.000 NA
ATOM      7  O   UNL     1      -1.011   1.320   0.000  0.00  0.00    +0.000 OA
BRANCH   5   8
ATOM      8  O   UNL     1      -1.726   0.083   0.000  0.00  0.00    +0.000 OA
BRANCH   8   9
ATOM      9  C   UNL     1      -2.440   0.495   0.000  0.00  0.00    +0.000 C 
BRANCH   9  11
ATOM     10  C   UNL     1      -4.581   0.083   0.000  0.00  0.00    +0.000 A 
ATOM     11  C   UNL     1      -3.155   0.083   0.000  0.00  0.00    +0.000 A 
ATOM     12  C   UNL     1      -3.866   0.495   0.000  0.00  0.00    +0.000 A 
ATOM     13  C   UNL     1      -3.155  -0.742   0.000  0.00  0.00    +0.000 A 
ATOM     14  C   UNL     1      -4.581  -0.746   0.000  0.00  0.00    +0.000 A 
ATOM     15  C   UNL     1      -3.865  -1.154   0.000  0.00  0.00    +0.000 A 
ENDBRANCH   9  11
ENDBRANCH   8   9
ENDBRANCH   5   8
ENDBRANCH   4   6
BRANCH   4  16
ATOM     16  C   UNL     1       0.418   1.320   0.000  0.00  0.00    +0.000 C 
BRANCH  16  17
ATOM     17  C   UNL     1       1.132   1.733   0.000  0.00  0.00    +0.000 C 
ATOM     18  C   UNL     1       1.132   2.558   0.000  0.00  0.00    +0.000 C 
ATOM     19  C   UNL     1       1.847   1.320   0.000  0.00  0.00    +0.000 C 
ENDBRANCH  16  17
ENDBRANCH   4  16
ENDBRANCH   1   4
BRANCH   2  20
ATOM     20  C   UNL     1       2.561   0.083   0.000  0.00  0.00    +0.000 C 
BRANCH  20  21
ATOM     21  C   UNL     1       3.276   0.495   0.000  0.00  0.00    +0.000 C 
ATOM     22  O   UNL     1       3.990   0.083   0.000  0.00  0.00    +0.000 OA
BRANCH  21  23
ATOM     23  S   UNL     1       3.276   1.320   0.000  0.00  0.00    +0.000 S 
ATOM     24  O   UNL     1       2.692   1.904   0.000  0.00  0.00    +0.000 OA
ATOM     25  O   UNL     1       3.489   2.117   0.000  0.00  0.00    +0.000 OA
ATOM     26  O   UNL     1       4.073   1.534   0.000  0.00  0.00    +0.000 OA
ENDBRANCH  21  23
ENDBRANCH  20  21
BRANCH  20  27
ATOM     27  C   UNL     1       2.561  -0.742   0.000  0.00  0.00    +0.000 C 
BRANCH  27  28
ATOM     28  C   UNL     1       3.276  -1.155   0.000  0.00  0.00    +0.000 C 
ATOM     29  C   UNL     1       4.029  -0.819   0.000  0.00  0.00    +0.000 C 
ATOM     30  C   UNL     1       4.581  -1.432   0.000  0.00  0.00    +0.000 C 
ATOM     31  N   UNL     1       4.169  -2.146   0.000  0.00  0.00    +0.000 NA
ATOM     32  C   UNL     1       3.362  -1.975   0.000  0.00  0.00    +0.000 C 
ATOM     33  O   UNL     1       2.779  -2.558   0.000  0.00  0.00    +0.000 OA
ENDBRANCH  27  28
ENDBRANCH  20  27
ENDBRANCH   2  20
TORSDOF 12
