REMARK  Name = 
REMARK  0 active torsions:
REMARK  status: ('A' for Active; 'I' for Inactive)
REMARK                            x       y       z     vdW  Elec       q    Type
REMARK                         _______ _______ _______ _____ _____    ______ ____
ROOT
ATOM      1  N   UNL     1       0.355  -0.411   0.000  0.00  0.00    +0.000 N 
ATOM      2  C   UNL     1       0.365   0.411   0.000  0.00  0.00    +0.000 A 
ATOM      3  O   UNL     1       1.080  -0.834   0.000  0.00  0.00    +0.000 OA
ATOM      4  S   UNL     1       1.070   0.815   0.000  0.00  0.00    +0.000 S 
ATOM      5  C   UNL     1      -0.374  -0.819   0.000  0.00  0.00    +0.000 A 
ATOM      6  C   UNL     1      -0.360   0.834   0.000  0.00  0.00    +0.000 A 
ATOM      7  C   UNL     1      -1.080  -0.396   0.000  0.00  0.00    +0.000 A 
ATOM      8  C   UNL     1      -1.080   0.425   0.000  0.00  0.00    +0.000 A 
ENDROOT
TORSDOF 0
