REMARK  Name = 
REMARK  3 active torsions:
REMARK  status: ('A' for Active; 'I' for Inactive)
REMARK    1  A    between atoms: C_3  and  C_18
REMARK    2  A    between atoms: N_20  and  C_22
REMARK    3  A    between atoms: C_22  and  C_23
REMARK                            x       y       z     vdW  Elec       q    Type
REMARK                         _______ _______ _______ _____ _____    ______ ____
ROOT
ATOM      1  N   UNL     1      -1.955  -1.527   0.000  0.00  0.00    +0.000 N 
ATOM      2  C   UNL     1      -1.316  -2.048   0.000  0.00  0.00    +0.000 A 
ATOM      3  C   UNL     1      -0.545  -1.754   0.000  0.00  0.00    +0.000 A 
ATOM      4  C   UNL     1      -0.413  -0.940   0.000  0.00  0.00    +0.000 A 
ATOM      5  C   UNL     1      -1.053  -0.419   0.000  0.00  0.00    +0.000 A 
ATOM      6  C   UNL     1      -0.921   0.396   0.000  0.00  0.00    +0.000 A 
ATOM      7  C   UNL     1      -1.561   0.917   0.000  0.00  0.00    +0.000 A 
ATOM      8  C   UNL     1      -2.332   0.623   0.000  0.00  0.00    +0.000 A 
ATOM      9  N   UNL     1      -2.463  -0.191   0.000  0.00  0.00    +0.000 NA
ATOM     10  C   UNL     1      -1.824  -0.712   0.000  0.00  0.00    +0.000 A 
ATOM     11  S   UNL     1      -1.614  -2.817   0.000  0.00  0.00    +0.000 S 
ATOM     12  C   UNL     1      -2.649  -1.974   0.000  0.00  0.00    +0.000 A 
ATOM     13  C   UNL     1      -2.438  -2.771   0.000  0.00  0.00    +0.000 A 
ATOM     14  C   UNL     1      -3.023  -3.353   0.000  0.00  0.00    +0.000 A 
ATOM     15  C   UNL     1      -3.819  -3.137   0.000  0.00  0.00    +0.000 A 
ATOM     16  C   UNL     1      -4.030  -2.340   0.000  0.00  0.00    +0.000 A 
ATOM     17  C   UNL     1      -3.445  -1.758   0.000  0.00  0.00    +0.000 A 
ATOM     18  O   UNL     1       0.358  -0.646   0.000  0.00  0.00    +0.000 OA
ATOM     19  N   UNL     1      -2.971   1.145   0.000  0.00  0.00    +0.000 N 
ATOM     20  C   UNL     1      -2.780   1.947   0.000  0.00  0.00    +0.000 C 
ATOM     21  C   UNL     1      -3.287   2.597   0.000  0.00  0.00    +0.000 C 
ATOM     22  N   UNL     1      -4.112   2.606   0.000  0.00  0.00    +0.000 NA
ATOM     23  C   UNL     1      -4.633   1.966   0.000  0.00  0.00    +0.000 C 
ATOM     24  C   UNL     1      -4.458   1.160   0.000  0.00  0.00    +0.000 C 
ATOM     25  C   UNL     1      -3.719   0.794   0.000  0.00  0.00    +0.000 C 
ATOM     26  C   UNL     1      -4.462   3.353   0.000  0.00  0.00    +0.000 C 
ENDROOT
BRANCH   3  27
ATOM     27  C   UNL     1       0.095  -2.276   0.000  0.00  0.00    +0.000 C 
ATOM     28  O   UNL     1      -0.079  -3.082   0.000  0.00  0.00    +0.000 OA
ATOM     29  N   UNL     1       0.880  -2.023   0.000  0.00  0.00    +0.000 NA
BRANCH  29  30
ATOM     30  C   UNL     1       1.492  -2.577   0.000  0.00  0.00    +0.000 C 
BRANCH  30  31
ATOM     31  C   UNL     1       2.277  -2.324   0.000  0.00  0.00    +0.000 A 
ATOM     32  C   UNL     1       2.451  -1.518   0.000  0.00  0.00    +0.000 A 
ATOM     33  N   UNL     1       2.888  -2.878   0.000  0.00  0.00    +0.000 NA
ATOM     34  N   UNL     1       3.236  -1.265   0.000  0.00  0.00    +0.000 NA
ATOM     35  C   UNL     1       3.848  -1.819   0.000  0.00  0.00    +0.000 A 
ATOM     36  C   UNL     1       3.674  -2.626   0.000  0.00  0.00    +0.000 A 
ATOM     37  C   UNL     1       4.633  -1.567   0.000  0.00  0.00    +0.000 C 
ENDBRANCH  30  31
ENDBRANCH  29  30
ENDBRANCH   3  27
TORSDOF 3
