REMARK  Name = 
REMARK  2 active torsions:
REMARK  status: ('A' for Active; 'I' for Inactive)
REMARK    1  A    between atoms: C_3  and  N_9
REMARK    2  A    between atoms: C_6  and  C_7
REMARK                            x       y       z     vdW  Elec       q    Type
REMARK                         _______ _______ _______ _____ _____    ______ ____
ROOT
ATOM      1  C   UNL     1       0.410  -1.071   0.000  0.00  0.00    +0.000 A 
ATOM      2  C   UNL     1       0.826  -0.355   0.000  0.00  0.00    +0.000 A 
ATOM      3  C   UNL     1       0.410   0.355   0.000  0.00  0.00    +0.000 A 
ATOM      4  C   UNL     1      -0.415   0.355   0.000  0.00  0.00    +0.000 A 
ATOM      5  C   UNL     1      -0.826  -0.355   0.000  0.00  0.00    +0.000 A 
ATOM      6  C   UNL     1      -0.415  -1.071   0.000  0.00  0.00    +0.000 A 
ENDROOT
BRANCH   3   7
ATOM      7  N   UNL     1       0.826   1.071   0.000  0.00  0.00    +0.000 NA
ATOM      8  C   UNL     1       0.410   1.786   0.000  0.00  0.00    +0.000 C 
ATOM      9  N   UNL     1       0.826   2.502   0.000  0.00  0.00    +0.000 NA
ATOM     10  N   UNL     1      -0.415   1.786   0.000  0.00  0.00    +0.000 NA
ENDBRANCH   3   7
BRANCH   6  11
ATOM     11  C   UNL     1      -0.826  -1.786   0.000  0.00  0.00    +0.000 C 
ATOM     12  O   UNL     1      -0.415  -2.502   0.000  0.00  0.00    +0.000 OA
ENDBRANCH   6  11
TORSDOF 2
