REMARK  Name = 
REMARK  8 active torsions:
REMARK  status: ('A' for Active; 'I' for Inactive)
REMARK    1  A    between atoms: N_8  and  CA_16
REMARK    2  A    between atoms: N_9  and  CA_18
REMARK    3  A    between atoms: CA_10  and  C_14
REMARK    4  A    between atoms: C_15  and  CA_18
REMARK    5  A    between atoms: CA_16  and  CB_17
REMARK    6  A    between atoms: CA_16  and  C_20
REMARK    7  A    between atoms: CB_17  and  CG_19
REMARK    8  A    between atoms: CG_19  and  CD_21
REMARK                            x       y       z     vdW  Elec       q    Type
REMARK                         _______ _______ _______ _____ _____    ______ ____
ROOT
ATOM      1  O   PRO A   2      -0.179  -0.361   0.000  0.00  0.00    +0.000 OA
ATOM      2  N   GLU A   3       0.263   0.998   0.000  0.00  0.00    +0.000 N 
ATOM      3  C   PRO A   2      -0.350   0.446   0.000  0.00  0.00    +0.000 C 
ATOM      4  H   GLU A   3       0.156   1.498   0.000  0.00  0.00    +0.000 HD
ENDROOT
BRANCH   3   7
ATOM      5  O   GLY A   1      -1.088  -1.021   0.000  0.00  0.00    +0.000 OA
ATOM      6  N   PRO A   2      -1.802   0.216   0.000  0.00  0.00    +0.000 N 
ATOM      7  CA  PRO A   2      -1.135   0.701   0.000  0.00  0.00    +0.000 C 
ATOM      8  CB  PRO A   2      -1.390   1.486   0.000  0.00  0.00    +0.000 C 
ATOM      9  CG  PRO A   2      -2.215   1.486   0.000  0.00  0.00    +0.000 C 
ATOM     10  CD  PRO A   2      -2.470   0.701   0.000  0.00  0.00    +0.000 C 
ATOM     11  C   GLY A   1      -1.802  -0.609   0.000  0.00  0.00    +0.000 C 
BRANCH  11  12
ATOM     12  CA  GLY A   1      -2.517  -1.021   0.000  0.00  0.00    +0.000 C 
BRANCH  12  13
ATOM     13  N   GLY A   1      -2.517  -1.846   0.000  0.00  0.00    +0.000 NA
ATOM     14  H1  GLY A   1      -2.074  -2.102   0.000  0.00  0.00    +0.000 HD
ATOM     15  H2  GLY A   1      -2.960  -2.102   0.000  0.00  0.00    +0.000 HD
ENDBRANCH  12  13
ENDBRANCH  11  12
ENDBRANCH   3   7
BRANCH   2  16
ATOM     16  CA  GLU A   3       1.047   0.743   0.000  0.00  0.00    +0.000 C 
BRANCH  16  19
ATOM     17  O   GLU A   3       2.445   1.040   0.000  0.00  0.00    +0.000 OA
ATOM     18  OXT GLU A   3       1.489   2.102   0.000  0.00  0.00    +0.000 OA
ATOM     19  C   GLU A   3       1.660   1.295   0.000  0.00  0.00    +0.000 C 
ENDBRANCH  16  19
BRANCH  16  20
ATOM     20  CB  GLU A   3       1.219  -0.064   0.000  0.00  0.00    +0.000 C 
BRANCH  20  21
ATOM     21  CG  GLU A   3       2.003  -0.319   0.000  0.00  0.00    +0.000 C 
BRANCH  21  24
ATOM     22  OE1 GLU A   3       2.960  -1.381   0.000  0.00  0.00    +0.000 OA
ATOM     23  OE2 GLU A   3       1.562  -1.678   0.000  0.00  0.00    +0.000 OA
ATOM     24  CD  GLU A   3       2.175  -1.126   0.000  0.00  0.00    +0.000 C 
ENDBRANCH  21  24
ENDBRANCH  20  21
ENDBRANCH  16  20
ENDBRANCH   2  16
TORSDOF 8
