REMARK  Name = 
REMARK  4 active torsions:
REMARK  status: ('A' for Active; 'I' for Inactive)
REMARK    1  A    between atoms: C_6  and  C_13
REMARK    2  A    between atoms: C_10  and  C_13
REMARK    3  A    between atoms: C_12  and  C_16
REMARK    4  A    between atoms: C_16  and  C_17
REMARK                            x       y       z     vdW  Elec       q    Type
REMARK                         _______ _______ _______ _____ _____    ______ ____
ROOT
ATOM      1  C   UNL     1       1.033   0.824   0.000  0.00  0.00    +0.000 A 
ATOM      2  C   UNL     1       0.317   1.238   0.000  0.00  0.00    +0.000 A 
ATOM      3  C   UNL     1      -0.397   0.826   0.000  0.00  0.00    +0.000 A 
ATOM      4  C   UNL     1      -0.397  -0.001   0.000  0.00  0.00    +0.000 A 
ATOM      5  C   UNL     1       0.323  -0.413   0.000  0.00  0.00    +0.000 A 
ATOM      6  C   UNL     1       1.035   0.002   0.000  0.00  0.00    +0.000 A 
ATOM      7  N   UNL     1       0.327  -1.238   0.000  0.00  0.00    +0.000 NA
ENDROOT
BRANCH   4   8
ATOM      8  C   UNL     1      -1.110  -0.415   0.000  0.00  0.00    +0.000 C 
ATOM      9  O   UNL     1      -1.113  -1.239   0.000  0.00  0.00    +0.000 OA
BRANCH   8  15
ATOM     10  C   UNL     1      -1.823   0.825   0.000  0.00  0.00    +0.000 A 
ATOM     11  C   UNL     1      -2.538   1.239   0.000  0.00  0.00    +0.000 A 
ATOM     12  C   UNL     1      -3.253   0.827   0.000  0.00  0.00    +0.000 A 
ATOM     13  C   UNL     1      -3.253  -0.000   0.000  0.00  0.00    +0.000 A 
ATOM     14  C   UNL     1      -2.533  -0.412   0.000  0.00  0.00    +0.000 A 
ATOM     15  C   UNL     1      -1.821   0.003   0.000  0.00  0.00    +0.000 A 
ENDBRANCH   8  15
ENDBRANCH   4   8
BRANCH   6  16
ATOM     16  C   UNL     1       1.825  -0.568   0.000  0.00  0.00    +0.000 C 
BRANCH  16  17
ATOM     17  C   UNL     1       2.541  -0.159   0.000  0.00  0.00    +0.000 C 
ATOM     18  O   UNL     1       2.545   0.665   0.000  0.00  0.00    +0.000 OA
ATOM     19  O   UNL     1       3.253  -0.575   0.000  0.00  0.00    +0.000 OA
ENDBRANCH  16  17
ENDBRANCH   6  16
TORSDOF 4
