REMARK  Name = 
REMARK  17 active torsions:
REMARK  status: ('A' for Active; 'I' for Inactive)
REMARK    1  A    between atoms: C_2  and  C_3
REMARK    2  A    between atoms: C_3  and  C_4
REMARK    3  A    between atoms: C_4  and  C_5
REMARK    4  A    between atoms: C_5  and  C_6
REMARK    5  A    between atoms: C_6  and  C_7
REMARK    6  A    between atoms: C_7  and  C_8
REMARK    7  A    between atoms: C_8  and  C_9
REMARK    8  A    between atoms: C_9  and  C_10
REMARK    9  A    between atoms: C_11  and  C_12
REMARK   10  A    between atoms: C_13  and  C_14
REMARK   11  A    between atoms: N_16  and  C_17
REMARK   12  A    between atoms: C_17  and  C_18
REMARK   13  A    between atoms: N_20  and  C_21
REMARK   14  A    between atoms: C_26  and  N_27
REMARK   15  A    between atoms: N_27  and  C_28
REMARK   16  A    between atoms: C_38  and  C_39
REMARK   17  A    between atoms: C_39  and  C_41
REMARK                            x       y       z     vdW  Elec       q    Type
REMARK                         _______ _______ _______ _____ _____    ______ ____
ROOT
ATOM      1  C   UNL     1       9.288 -11.137   0.000  0.00  0.00    +0.000 C 
ATOM      2  C   UNL     1       8.574 -10.725   0.000  0.00  0.00    +0.000 C 
ATOM      3  O   UNL     1       7.859 -11.137   0.000  0.00  0.00    +0.000 OA
ATOM      4  C   UNL     1       8.574  -9.900   0.000  0.00  0.00    +0.000 C 
ATOM      5  O   UNL     1       7.859  -9.488   0.000  0.00  0.00    +0.000 OA
ATOM      6  C   UNL     1       9.288  -9.488   0.000  0.00  0.00    +0.000 C 
ATOM      7  O   UNL     1      10.003  -9.900   0.000  0.00  0.00    +0.000 OA
ATOM      8  C   UNL     1      10.003 -10.725   0.000  0.00  0.00    +0.000 C 
ENDROOT
BRANCH   1  11
ATOM      9  C   UNL     1       8.574 -12.375   0.000  0.00  0.00    +0.000 C 
ATOM     10  O   UNL     1       8.574 -13.200   0.000  0.00  0.00    +0.000 OA
ATOM     11  N   UNL     1       9.288 -11.963   0.000  0.00  0.00    +0.000 NA
BRANCH   9  12
ATOM     12  C   UNL     1       7.859 -11.963   0.000  0.00  0.00    +0.000 C 
BRANCH  12  15
ATOM     13  C   UNL     1       6.430 -11.963   0.000  0.00  0.00    +0.000 C 
ATOM     14  O   UNL     1       6.430 -11.137   0.000  0.00  0.00    +0.000 OA
ATOM     15  N   UNL     1       7.145 -12.375   0.000  0.00  0.00    +0.000 NA
BRANCH  13  17
ATOM     16  C   UNL     1       5.001 -11.963   0.000  0.00  0.00    +0.000 C 
ATOM     17  C   UNL     1       5.716 -12.375   0.000  0.00  0.00    +0.000 C 
BRANCH  16  19
ATOM     18  C   UNL     1       3.572 -11.963   0.000  0.00  0.00    +0.000 C 
ATOM     19  C   UNL     1       4.287 -12.375   0.000  0.00  0.00    +0.000 C 
BRANCH  18  20
ATOM     20  C   UNL     1       2.858 -12.375   0.000  0.00  0.00    +0.000 C 
BRANCH  20  21
ATOM     21  C   UNL     1       2.143 -11.963   0.000  0.00  0.00    +0.000 C 
BRANCH  21  22
ATOM     22  C   UNL     1       1.429 -12.375   0.000  0.00  0.00    +0.000 C 
BRANCH  22  23
ATOM     23  C   UNL     1       0.715 -11.963   0.000  0.00  0.00    +0.000 C 
BRANCH  23  24
ATOM     24  C   UNL     1       0.000 -12.375   0.000  0.00  0.00    +0.000 C 
BRANCH  24  25
ATOM     25  C   UNL     1      -0.715 -11.963   0.000  0.00  0.00    +0.000 C 
BRANCH  25  26
ATOM     26  C   UNL     1      -1.429 -12.375   0.000  0.00  0.00    +0.000 C 
BRANCH  26  28
ATOM     27  C   UNL     1      -2.858 -12.375   0.000  0.00  0.00    +0.000 C 
ATOM     28  C   UNL     1      -2.143 -11.963   0.000  0.00  0.00    +0.000 C 
ENDBRANCH  26  28
ENDBRANCH  25  26
ENDBRANCH  24  25
ENDBRANCH  23  24
ENDBRANCH  22  23
ENDBRANCH  21  22
ENDBRANCH  20  21
ENDBRANCH  18  20
ENDBRANCH  16  19
ENDBRANCH  13  17
ENDBRANCH  12  15
ENDBRANCH   9  12
ENDBRANCH   1  11
BRANCH   8  29
ATOM     29  C   UNL     1      10.717 -11.137   0.000  0.00  0.00    +0.000 C 
ATOM     30  O   UNL     1      10.717 -11.963   0.000  0.00  0.00    +0.000 OA
BRANCH  29  31
ATOM     31  C   UNL     1      11.431 -10.725   0.000  0.00  0.00    +0.000 C 
ATOM     32  O   UNL     1      11.431  -9.900   0.000  0.00  0.00    +0.000 OA
ENDBRANCH  29  31
ENDBRANCH   8  29
BRANCH   6  33
ATOM     33  N   UNL     1       9.288  -8.662   0.000  0.00  0.00    +0.000 NA
BRANCH  33  34
ATOM     34  C   UNL     1      10.003  -8.250   0.000  0.00  0.00    +0.000 A 
ATOM     35  C   UNL     1      10.003  -7.425   0.000  0.00  0.00    +0.000 A 
ATOM     36  N   UNL     1       9.389  -6.873   0.000  0.00  0.00    +0.000 NA
ATOM     37  C   UNL     1       9.725  -6.119   0.000  0.00  0.00    +0.000 A 
ATOM     38  N   UNL     1      10.546  -6.205   0.000  0.00  0.00    +0.000 NA
ATOM     39  C   UNL     1      10.717  -7.013   0.000  0.00  0.00    +0.000 A 
ATOM     40  N   UNL     1      11.431  -7.425   0.000  0.00  0.00    +0.000 NA
ATOM     41  C   UNL     1      11.431  -8.250   0.000  0.00  0.00    +0.000 A 
ATOM     42  N   UNL     1      10.717  -8.662   0.000  0.00  0.00    +0.000 NA
ENDBRANCH  33  34
ENDBRANCH   6  33
TORSDOF 17
