REMARK  Name = 
REMARK  2 active torsions:
REMARK  status: ('A' for Active; 'I' for Inactive)
REMARK    1  A    between atoms: C_8  and  O_10
REMARK    2  A    between atoms: O_10  and  S_11
REMARK                            x       y       z     vdW  Elec       q    Type
REMARK                         _______ _______ _______ _____ _____    ______ ____
ROOT
ATOM      1  C   UNL     1      -1.327   0.022   0.000  0.00  0.00    +0.000 A 
ATOM      2  C   UNL     1      -2.041  -0.390   0.000  0.00  0.00    +0.000 A 
ATOM      3  C   UNL     1      -2.041  -1.215   0.000  0.00  0.00    +0.000 A 
ATOM      4  C   UNL     1      -1.327  -1.628   0.000  0.00  0.00    +0.000 A 
ATOM      5  C   UNL     1      -0.612  -1.215   0.000  0.00  0.00    +0.000 A 
ATOM      6  N   UNL     1       0.172  -1.470   0.000  0.00  0.00    +0.000 NA
ATOM      7  C   UNL     1       0.657  -0.803   0.000  0.00  0.00    +0.000 A 
ATOM      8  C   UNL     1       0.172  -0.135   0.000  0.00  0.00    +0.000 A 
ATOM      9  C   UNL     1      -0.612  -0.390   0.000  0.00  0.00    +0.000 A 
ENDROOT
BRANCH   8  10
ATOM     10  O   UNL     1       0.427   0.649   0.000  0.00  0.00    +0.000 OA
BRANCH  10  11
ATOM     11  S   UNL     1       1.234   0.821   0.000  0.00  0.00    +0.000 S 
ATOM     12  O   UNL     1       1.063   1.628   0.000  0.00  0.00    +0.000 OA
ATOM     13  O   UNL     1       1.406   0.014   0.000  0.00  0.00    +0.000 OA
ATOM     14  O   UNL     1       2.041   0.992   0.000  0.00  0.00    +0.000 OA
ENDBRANCH  10  11
ENDBRANCH   8  10
TORSDOF 2
