REMARK  Name = 
REMARK  16 active torsions:
REMARK  status: ('A' for Active; 'I' for Inactive)
REMARK    1  A    between atoms: SG_1  and  CB_19
REMARK    2  A    between atoms: SG_1  and  C_24
REMARK    3  A    between atoms: O_2  and  C_24
REMARK    4  A    between atoms: O_2  and  C_26
REMARK    5  A    between atoms: N_12  and  CA_16
REMARK    6  A    between atoms: N_13  and  CA_25
REMARK    7  A    between atoms: N_14  and  CA_20
REMARK    8  A    between atoms: N_15  and  C_33
REMARK    9  A    between atoms: CA_16  and  CB_19
REMARK   10  A    between atoms: CA_16  and  C_22
REMARK   11  A    between atoms: C_17  and  C_18
REMARK   12  A    between atoms: C_17  and  CA_20
REMARK   13  A    between atoms: C_18  and  C_21
REMARK   14  A    between atoms: CA_20  and  C_23
REMARK   15  A    between atoms: CA_25  and  C_30
REMARK   16  A    between atoms: C_26  and  C_27
REMARK                            x       y       z     vdW  Elec       q    Type
REMARK                         _______ _______ _______ _____ _____    ______ ____
ROOT
ATOM      1  CA  UNL     1       1.072  -1.650   0.000  0.00  0.00    +0.000 C 
ENDROOT
BRANCH   1   4
ATOM      2  O   UNL     1       0.357  -2.888   0.000  0.00  0.00    +0.000 OA
ATOM      3  N   UNL     1       1.786  -2.888   0.000  0.00  0.00    +0.000 N 
ATOM      4  C   ACE A   1       1.072  -2.475   0.000  0.00  0.00    +0.000 C 
ATOM      5  H   UNL     1       2.229  -2.632   0.000  0.00  0.00    +0.000 HD
BRANCH   3   6
ATOM      6  CA  UNL     1       1.786  -3.712   0.000  0.00  0.00    +0.000 C 
BRANCH   6   9
ATOM      7  O   UNL     1       2.501  -4.950   0.000  0.00  0.00    +0.000 OA
ATOM      8  OXT UNL     1       3.215  -3.712   0.000  0.00  0.00    +0.000 OA
ATOM      9  C   UNL     1       2.501  -4.125   0.000  0.00  0.00    +0.000 C 
ENDBRANCH   6   9
ENDBRANCH   3   6
ENDBRANCH   1   4
BRANCH   1  11
ATOM     10  O   UNL     1      -0.357  -2.475   0.000  0.00  0.00    +0.000 OA
ATOM     11  N   UNL     1       0.357  -1.238   0.000  0.00  0.00    +0.000 N 
ATOM     12  C   UNL     1      -0.357  -1.650   0.000  0.00  0.00    +0.000 C 
ATOM     13  H   UNL     1       0.357  -0.726   0.000  0.00  0.00    +0.000 HD
BRANCH  12  14
ATOM     14  C   UNL     1      -1.072  -1.238   0.000  0.00  0.00    +0.000 C 
BRANCH  14  15
ATOM     15  C   UNL     1      -1.786  -1.650   0.000  0.00  0.00    +0.000 C 
BRANCH  15  16
ATOM     16  CA  UNL     1      -2.501  -1.238   0.000  0.00  0.00    +0.000 C 
BRANCH  16  17
ATOM     17  N   UNL     1      -2.501  -0.412   0.000  0.00  0.00    +0.000 NA
ATOM     18  H1  UNL     1      -2.943  -0.157   0.000  0.00  0.00    +0.000 HD
ATOM     19  H2  UNL     1      -2.058  -0.157   0.000  0.00  0.00    +0.000 HD
ENDBRANCH  16  17
BRANCH  16  22
ATOM     20  O   UNL     1      -3.929  -1.238   0.000  0.00  0.00    +0.000 OA
ATOM     21  OXT UNL     1      -3.215  -2.475   0.000  0.00  0.00    +0.000 OA
ATOM     22  C   UNL     1      -3.215  -1.650   0.000  0.00  0.00    +0.000 C 
ENDBRANCH  16  22
ENDBRANCH  15  16
ENDBRANCH  14  15
ENDBRANCH  12  14
ENDBRANCH   1  11
BRANCH   1  23
ATOM     23  CB  UNL     1       1.786  -1.238   0.000  0.00  0.00    +0.000 C 
BRANCH  23  24
ATOM     24  SG  UNL     1       1.786  -0.412   0.000  0.00  0.00    +0.000 S 
BRANCH  24  26
ATOM     25  O   UNL     1       3.215  -0.412   0.000  0.00  0.00    +0.000 OA
ATOM     26  C   UNL     1       2.501   0.000   0.000  0.00  0.00    +0.000 C 
BRANCH  26  27
ATOM     27  O   UNL     1       2.501   0.825   0.000  0.00  0.00    +0.000 OA
BRANCH  27  28
ATOM     28  C   UNL     1       3.215   1.238   0.000  0.00  0.00    +0.000 C 
BRANCH  28  29
ATOM     29  C   UNL     1       3.215   2.062   0.000  0.00  0.00    +0.000 A 
ATOM     30  C   UNL     1       2.501   2.475   0.000  0.00  0.00    +0.000 A 
ATOM     31  C   UNL     1       3.929   2.475   0.000  0.00  0.00    +0.000 A 
ATOM     32  C   UNL     1       2.501   3.300   0.000  0.00  0.00    +0.000 A 
ATOM     33  C   UNL     1       3.929   3.300   0.000  0.00  0.00    +0.000 A 
ATOM     34  C   UNL     1       3.215   3.712   0.000  0.00  0.00    +0.000 A 
BRANCH  34  37
ATOM     35  O   UNL     1       3.929   4.950   0.000  0.00  0.00    +0.000 OA
ATOM     36  O   UNL     1       2.501   4.950   0.000  0.00  0.00    +0.000 OA
ATOM     37  N   UNL     1       3.215   4.537   0.000  0.00  0.00    +0.000 N 
ENDBRANCH  34  37
ENDBRANCH  28  29
ENDBRANCH  27  28
ENDBRANCH  26  27
ENDBRANCH  24  26
ENDBRANCH  23  24
ENDBRANCH   1  23
TORSDOF 16
