REMARK  Name = 
REMARK  2 active torsions:
REMARK  status: ('A' for Active; 'I' for Inactive)
REMARK    1  A    between atoms: N_2  and  C_4
REMARK    2  A    between atoms: C_10  and  C_11
REMARK                            x       y       z     vdW  Elec       q    Type
REMARK                         _______ _______ _______ _____ _____    ______ ____
ROOT
ATOM      1  C   UNL     1       2.037   1.176   0.000  0.00  0.00    +0.000 A 
ATOM      2  C   UNL     1       2.037   2.001   0.000  0.00  0.00    +0.000 A 
ATOM      3 CL   UNL     1       1.322   2.413   0.000  0.00  0.00    +0.000 Cl
ATOM      4  C   UNL     1       2.751   2.413   0.000  0.00  0.00    +0.000 A 
ATOM      5  C   UNL     1       3.466   2.001   0.000  0.00  0.00    +0.000 A 
ATOM      6  C   UNL     1       3.466   1.176   0.000  0.00  0.00    +0.000 A 
ATOM      7  C   UNL     1       2.751   0.763   0.000  0.00  0.00    +0.000 A 
ENDROOT
BRANCH   7   8
ATOM      8  C   UNL     1       2.751  -0.062   0.000  0.00  0.00    +0.000 A 
ATOM      9  C   UNL     1       2.084  -0.546   0.000  0.00  0.00    +0.000 A 
ATOM     10  N   UNL     1       2.339  -1.331   0.000  0.00  0.00    +0.000 NA
ATOM     11  C   UNL     1       3.164  -1.331   0.000  0.00  0.00    +0.000 A 
ATOM     12  C   UNL     1       3.419  -0.546   0.000  0.00  0.00    +0.000 A 
ATOM     13 CL   UNL     1       4.203  -0.292   0.000  0.00  0.00    +0.000 Cl
ENDBRANCH   7   8
BRANCH   1  15
ATOM     14  O   UNL     1       1.322  -0.062   0.000  0.00  0.00    +0.000 OA
ATOM     15  N   UNL     1       1.322   0.763   0.000  0.00  0.00    +0.000 N 
ATOM     16  O   UNL     1       0.608   1.176   0.000  0.00  0.00    +0.000 OA
ENDBRANCH   1  15
TORSDOF 2
