REMARK  Name = 
REMARK  7 active torsions:
REMARK  status: ('A' for Active; 'I' for Inactive)
REMARK    1  A    between atoms: C_10  and  C_13
REMARK    2  A    between atoms: C_13  and  C_14
REMARK    3  A    between atoms: C_14  and  N_16
REMARK    4  A    between atoms: N_16  and  C_17
REMARK    5  A    between atoms: C_17  and  C_18
REMARK    6  A    between atoms: C_18  and  C_19
REMARK    7  A    between atoms: C_24  and  O_27
REMARK                            x       y       z     vdW  Elec       q    Type
REMARK                         _______ _______ _______ _____ _____    ______ ____
ROOT
ATOM      1  C   UNL     1      -1.422  -0.627   0.000  0.00  0.00    +0.000 C 
ATOM      2  O   UNL     1      -1.422  -1.464   0.000  0.00  0.00    +0.000 OA
ENDROOT
BRANCH   1  12
ATOM      3  C   UNL     1      -4.308  -1.464   0.000  0.00  0.00    +0.000 C 
ATOM      4  N   UNL     1      -4.308  -0.627   0.000  0.00  0.00    +0.000 NA
ATOM      5  C   UNL     1      -3.597  -0.209   0.000  0.00  0.00    +0.000 A 
ATOM      6  C   UNL     1      -2.886  -0.627   0.000  0.00  0.00    +0.000 A 
ATOM      7  O   UNL     1      -2.886  -1.464   0.000  0.00  0.00    +0.000 OA
ATOM      8  C   UNL     1      -3.597  -1.882   0.000  0.00  0.00    +0.000 C 
ATOM      9  C   UNL     1      -3.597   0.627   0.000  0.00  0.00    +0.000 A 
ATOM     10  C   UNL     1      -2.886   1.046   0.000  0.00  0.00    +0.000 A 
ATOM     11  C   UNL     1      -2.133   0.627   0.000  0.00  0.00    +0.000 A 
ATOM     12  C   UNL     1      -2.133  -0.209   0.000  0.00  0.00    +0.000 A 
ATOM     13  O   UNL     1      -5.061  -1.882   0.000  0.00  0.00    +0.000 OA
ATOM     14  O   UNL     1      -2.886   1.882   0.000  0.00  0.00    +0.000 OA
ENDBRANCH   1  12
BRANCH   1  15
ATOM     15  C   UNL     1      -0.711  -0.209   0.000  0.00  0.00    +0.000 C 
BRANCH  15  16
ATOM     16  N   UNL     1       0.000  -0.627   0.000  0.00  0.00    +0.000 NA
BRANCH  16  17
ATOM     17  C   UNL     1       0.711  -0.209   0.000  0.00  0.00    +0.000 C 
ATOM     18  C   UNL     1       0.293   0.502   0.000  0.00  0.00    +0.000 C 
ATOM     19  C   UNL     1       1.129   0.502   0.000  0.00  0.00    +0.000 C 
BRANCH  17  20
ATOM     20  C   UNL     1       1.422  -0.627   0.000  0.00  0.00    +0.000 C 
BRANCH  20  21
ATOM     21  C   UNL     1       2.175  -0.209   0.000  0.00  0.00    +0.000 A 
ATOM     22  C   UNL     1       2.175   0.627   0.000  0.00  0.00    +0.000 A 
ATOM     23  C   UNL     1       2.886   1.046   0.000  0.00  0.00    +0.000 A 
ATOM     24  C   UNL     1       3.597   0.627   0.000  0.00  0.00    +0.000 A 
ATOM     25  C   UNL     1       3.597  -0.209   0.000  0.00  0.00    +0.000 A 
ATOM     26  C   UNL     1       2.886  -0.627   0.000  0.00  0.00    +0.000 A 
BRANCH  24  27
ATOM     27  O   UNL     1       4.350   1.046   0.000  0.00  0.00    +0.000 OA
ATOM     28  C   UNL     1       5.061   0.627   0.000  0.00  0.00    +0.000 C 
ENDBRANCH  24  27
ENDBRANCH  20  21
ENDBRANCH  17  20
ENDBRANCH  16  17
ENDBRANCH  15  16
ENDBRANCH   1  15
TORSDOF 7
