REMARK  Name = 
REMARK  2 active torsions:
REMARK  status: ('A' for Active; 'I' for Inactive)
REMARK    1  A    between atoms: N_5  and  C1*_11
REMARK    2  A    between atoms: C4*_18  and  C5*_21
REMARK                            x       y       z     vdW  Elec       q    Type
REMARK                         _______ _______ _______ _____ _____    ______ ____
ROOT
ATOM      1  C   UNL     1      -1.046   0.132   0.000  0.00  0.00    +0.000 A 
ATOM      2  C   UNL     1      -0.332   0.544   0.000  0.00  0.00    +0.000 A 
ATOM      3  C   UNL     1      -1.046  -0.693   0.000  0.00  0.00    +0.000 A 
ATOM      4  C   UNL     1      -1.761   0.544   0.000  0.00  0.00    +0.000 A 
ATOM      5  N   UNL     1       0.334  -0.121   0.000  0.00  0.00    +0.000 N 
ATOM      6  N   UNL     1      -0.332   1.369   0.000  0.00  0.00    +0.000 NA
ATOM      7  C   UNL     1      -0.137  -0.937   0.000  0.00  0.00    +0.000 A 
ATOM      8  C   UNL     1      -1.761  -1.106   0.000  0.00  0.00    +0.000 C 
ATOM      9  N   UNL     1      -2.475   0.132   0.000  0.00  0.00    +0.000 N 
ATOM     10  N   UNL     1      -1.761   1.369   0.000  0.00  0.00    +0.000 NA
ATOM     11  C   UNL     1      -1.046   1.782   0.000  0.00  0.00    +0.000 A 
ATOM     12  N   UNL     1      -2.475  -0.693   0.000  0.00  0.00    +0.000 NA
ATOM     13  N   UNL     1      -1.761  -1.931   0.000  0.00  0.00    +0.000 NA
ATOM     14  C   UNL     1      -3.189   0.544   0.000  0.00  0.00    +0.000 C 
ENDROOT
BRANCH   5  15
ATOM     15  C1* UNL     1       1.152  -0.014   0.000  0.00  0.00    +0.000 C 
ATOM     16  O4* UNL     1       1.546   0.711   0.000  0.00  0.00    +0.000 OA
ATOM     17  C2* UNL     1       1.720  -0.612   0.000  0.00  0.00    +0.000 C 
ATOM     18  C4* UNL     1       2.357   0.561   0.000  0.00  0.00    +0.000 C 
ATOM     19  C3* UNL     1       2.464  -0.257   0.000  0.00  0.00    +0.000 C 
ATOM     20  O2* UNL     1       1.569  -1.424   0.000  0.00  0.00    +0.000 OA
ATOM     21  O3* UNL     1       3.189  -0.651   0.000  0.00  0.00    +0.000 OA
BRANCH  18  22
ATOM     22  C5* UNL     1       2.955   1.129   0.000  0.00  0.00    +0.000 C 
ATOM     23  O5* UNL     1       2.763   1.931   0.000  0.00  0.00    +0.000 OA
ENDBRANCH  18  22
ENDBRANCH   5  15
TORSDOF 2
