REMARK  Name = 
REMARK  1 active torsions:
REMARK  status: ('A' for Active; 'I' for Inactive)
REMARK    1  A    between atoms: C_1  and  C_24
REMARK                            x       y       z     vdW  Elec       q    Type
REMARK                         _______ _______ _______ _____ _____    ______ ____
ROOT
ATOM      1  C   UNL     1       1.498   0.556   0.000  0.00  0.00    +0.000 C 
ATOM      2  C   UNL     1       1.498  -0.252   0.000  0.00  0.00    +0.000 C 
ATOM      3  C   UNL     1       0.796  -0.667   0.000  0.00  0.00    +0.000 C 
ATOM      4  C   UNL     1       0.796  -1.498   0.000  0.00  0.00    +0.000 C 
ATOM      5  C   UNL     1       0.085  -1.909   0.000  0.00  0.00    +0.000 C 
ATOM      6  C   UNL     1      -0.630  -1.498   0.000  0.00  0.00    +0.000 C 
ATOM      7  C   UNL     1      -0.630  -0.667   0.000  0.00  0.00    +0.000 C 
ATOM      8  C   UNL     1       0.085  -0.252   0.000  0.00  0.00    +0.000 C 
ATOM      9  C   UNL     1       0.085   0.556   0.000  0.00  0.00    +0.000 C 
ATOM     10  C   UNL     1       0.796   0.972   0.000  0.00  0.00    +0.000 C 
ATOM     11  C   UNL     1      -1.350  -0.252   0.000  0.00  0.00    +0.000 C 
ATOM     12  C   UNL     1      -2.070  -0.667   0.000  0.00  0.00    +0.000 C 
ATOM     13  C   UNL     1      -2.070  -1.498   0.000  0.00  0.00    +0.000 C 
ATOM     14  O   UNL     1      -2.785  -1.909   0.000  0.00  0.00    +0.000 OA
ATOM     15  C   UNL     1      -1.350  -1.909   0.000  0.00  0.00    +0.000 C 
ATOM     16  C   UNL     1       2.292  -0.505   0.000  0.00  0.00    +0.000 C 
ATOM     17  C   UNL     1       2.785   0.155   0.000  0.00  0.00    +0.000 C 
ATOM     18  C   UNL     1       2.292   0.810   0.000  0.00  0.00    +0.000 C 
ATOM     19  O   UNL     1       2.292   1.631   0.000  0.00  0.00    +0.000 OA
ENDROOT
BRANCH   1  20
ATOM     20  C   UNL     1       1.498   1.382   0.000  0.00  0.00    +0.000 C 
ATOM     21  C   UNL     1       0.870   1.909   0.000  0.00  0.00    +0.000 C 
ENDBRANCH   1  20
TORSDOF 1
