REMARK  Name = 
REMARK  6 active torsions:
REMARK  status: ('A' for Active; 'I' for Inactive)
REMARK    1  A    between atoms: S_7  and  C_8
REMARK    2  A    between atoms: C_12  and  N_13
REMARK    3  A    between atoms: N_13  and  C_14
REMARK    4  A    between atoms: O_17  and  C_18
REMARK    5  A    between atoms: C_18  and  C_19
REMARK    6  A    between atoms: C_19  and  N_20
REMARK                            x       y       z     vdW  Elec       q    Type
REMARK                         _______ _______ _______ _____ _____    ______ ____
ROOT
ATOM      1  O   UNL     1       0.499   1.760   0.000  0.00  0.00    +0.000 OA
ATOM      2  C   UNL     1       0.684   0.715   0.000  0.00  0.00    +0.000 A 
ATOM      3  S   UNL     1       1.468   0.970   0.000  0.00  0.00    +0.000 S 
ATOM      4  C   UNL     1       1.953   0.303   0.000  0.00  0.00    +0.000 A 
ATOM      5  C   UNL     1       1.468  -0.365   0.000  0.00  0.00    +0.000 A 
ATOM      6  C   UNL     1       0.684  -0.110   0.000  0.00  0.00    +0.000 A 
ATOM      7  C   UNL     1      -0.031  -0.522   0.000  0.00  0.00    +0.000 C 
ATOM      8  C   UNL     1      -0.745  -0.110   0.000  0.00  0.00    +0.000 C 
ATOM      9  N   UNL     1      -0.745   0.715   0.000  0.00  0.00    +0.000 NA
ATOM     10  S   UNL     1      -0.031   1.128   0.000  0.00  0.00    +0.000 S 
ATOM     11  O   UNL     1      -0.561   1.760   0.000  0.00  0.00    +0.000 OA
ENDROOT
BRANCH   4  15
ATOM     12  N   UNL     1       2.778  -0.522   0.000  0.00  0.00    +0.000 NA
ATOM     13  O   UNL     1       3.603   0.303   0.000  0.00  0.00    +0.000 OA
ATOM     14  O   UNL     1       2.778   1.128   0.000  0.00  0.00    +0.000 OA
ATOM     15  S   UNL     1       2.778   0.303   0.000  0.00  0.00    +0.000 S 
ENDBRANCH   4  15
BRANCH   7  16
ATOM     16  N   UNL     1      -0.031  -1.347   0.000  0.00  0.00    +0.000 NA
BRANCH  16  18
ATOM     17  C   UNL     1      -1.460  -1.347   0.000  0.00  0.00    +0.000 C 
ATOM     18  C   UNL     1      -0.745  -1.760   0.000  0.00  0.00    +0.000 C 
ENDBRANCH  16  18
ENDBRANCH   7  16
BRANCH   9  19
ATOM     19  C   UNL     1      -1.460   1.128   0.000  0.00  0.00    +0.000 C 
BRANCH  19  20
ATOM     20  C   UNL     1      -2.174   0.715   0.000  0.00  0.00    +0.000 C 
BRANCH  20  22
ATOM     21  C   UNL     1      -3.603   0.715   0.000  0.00  0.00    +0.000 C 
ATOM     22  O   UNL     1      -2.889   1.128   0.000  0.00  0.00    +0.000 OA
ENDBRANCH  20  22
ENDBRANCH  19  20
ENDBRANCH   9  19
TORSDOF 6
