REMARK  Name = 
REMARK  5 active torsions:
REMARK  status: ('A' for Active; 'I' for Inactive)
REMARK    1  A    between atoms: C_11  and  O_23
REMARK    2  A    between atoms: C_14  and  C_19
REMARK    3  A    between atoms: C_15  and  C_19
REMARK    4  A    between atoms: C_18  and  C_19
REMARK    5  A    between atoms: C_18  and  O_23
REMARK                            x       y       z     vdW  Elec       q    Type
REMARK                         _______ _______ _______ _____ _____    ______ ____
ROOT
ATOM      1  C   UNL     1       3.364  -2.075   0.000  0.00  0.00    +0.000 C 
ATOM      2  O   UNL     1       3.777  -1.361   0.000  0.00  0.00    +0.000 OA
ENDROOT
BRANCH   1   3
ATOM      3  C   UNL     1       3.776  -2.790   0.000  0.00  0.00    +0.000 C 
ATOM      4  O   UNL     1       3.061  -3.201   0.000  0.00  0.00    +0.000 OA
BRANCH   3   8
ATOM      5  C   UNL     1       5.179  -4.399   0.000  0.00  0.00    +0.000 A 
ATOM      6  C   UNL     1       5.008  -3.592   0.000  0.00  0.00    +0.000 A 
ATOM      7  C   UNL     1       4.464  -4.811   0.000  0.00  0.00    +0.000 A 
ATOM      8  C   UNL     1       4.188  -3.505   0.000  0.00  0.00    +0.000 A 
ATOM      9  S   UNL     1       3.852  -4.258   0.000  0.00  0.00    +0.000 S 
ENDBRANCH   3   8
BRANCH   3  13
ATOM     10  C   UNL     1       5.385  -1.387   0.000  0.00  0.00    +0.000 A 
ATOM     11  C   UNL     1       4.578  -1.558   0.000  0.00  0.00    +0.000 A 
ATOM     12  C   UNL     1       5.797  -2.102   0.000  0.00  0.00    +0.000 A 
ATOM     13  C   UNL     1       4.491  -2.378   0.000  0.00  0.00    +0.000 A 
ATOM     14  S   UNL     1       5.244  -2.714   0.000  0.00  0.00    +0.000 S 
ENDBRANCH   3  13
ENDBRANCH   1   3
BRANCH   1  15
ATOM     15  O   UNL     1       2.539  -2.074   0.000  0.00  0.00    +0.000 OA
BRANCH  15  20
ATOM     16  C   UNL     1       0.811   0.647   0.000  0.00  0.00    +0.000 C 
ATOM     17  C   UNL     1      -0.320  -0.028   0.000  0.00  0.00    +0.000 C 
ATOM     18  C   UNL     1       1.989  -0.542   0.000  0.00  0.00    +0.000 C 
ATOM     19  C   UNL     1       1.611  -0.930   0.000  0.00  0.00    +0.000 C 
ATOM     20  C   UNL     1       2.127  -1.359   0.000  0.00  0.00    +0.000 C 
ATOM     21  C   UNL     1       1.060  -0.557   0.000  0.00  0.00    +0.000 C 
ATOM     22  C   UNL     1       0.640  -0.930   0.000  0.00  0.00    +0.000 C 
ATOM     23  C   UNL     1       0.740  -1.266   0.000  0.00  0.00    +0.000 C 
ATOM     24  C   UNL     1       0.035  -1.694   0.000  0.00  0.00    +0.000 C 
ATOM     25  N   UNL     1       0.500  -0.117   0.000  0.00  0.00    +0.000 N 
ATOM     26  O   UNL     1       0.758  -2.091   0.000  0.00  0.00    +0.000 OA
ENDBRANCH  15  20
ENDBRANCH   1  15
TORSDOF 5
