REMARK  Name = 
REMARK  18 active torsions:
REMARK  status: ('A' for Active; 'I' for Inactive)
REMARK    1  A    between atoms: C_5  and  C_69
REMARK    2  A    between atoms: C_9  and  N_62
REMARK    3  A    between atoms: N_11  and  S_14
REMARK    4  A    between atoms: S_14  and  C_17
REMARK    5  A    between atoms: C_19  and  S_23
REMARK    6  A    between atoms: S_23  and  N_26
REMARK    7  A    between atoms: C_33  and  C_46
REMARK    8  A    between atoms: C_37  and  N_39
REMARK    9  A    between atoms: C_40  and  C_42
REMARK   10  A    between atoms: C_42  and  N_44
REMARK   11  A    between atoms: N_48  and  C_49
REMARK   12  A    between atoms: C_49  and  C_50
REMARK   13  A    between atoms: C_49  and  C_56
REMARK   14  A    between atoms: C_63  and  C_65
REMARK   15  A    between atoms: C_65  and  N_67
REMARK   16  A    between atoms: N_71  and  C_72
REMARK   17  A    between atoms: C_72  and  C_73
REMARK   18  A    between atoms: C_72  and  C_79
REMARK                            x       y       z     vdW  Elec       q    Type
REMARK                         _______ _______ _______ _____ _____    ______ ____
ROOT
ATOM      1  C   UNL     1       5.950  -0.202   0.000  0.00  0.00    +0.000 A 
ATOM      2  C   UNL     1       5.187   0.114   0.000  0.00  0.00    +0.000 A 
ATOM      3  C   UNL     1       5.080   0.932   0.000  0.00  0.00    +0.000 A 
ATOM      4  C   UNL     1       5.734   1.434   0.000  0.00  0.00    +0.000 A 
ATOM      5  C   UNL     1       6.497   1.119   0.000  0.00  0.00    +0.000 A 
ATOM      6  C   UNL     1       6.604   0.301   0.000  0.00  0.00    +0.000 A 
ENDROOT
BRANCH   3   7
ATOM      7  S   UNL     1       4.317   1.248   0.000  0.00  0.00    +0.000 S 
ATOM      8  O   UNL     1       4.002   0.486   0.000  0.00  0.00    +0.000 OA
ATOM      9  O   UNL     1       4.633   2.010   0.000  0.00  0.00    +0.000 OA
BRANCH   7  10
ATOM     10  N   UNL     1       3.555   1.564   0.000  0.00  0.00    +0.000 NA
ATOM     11  C   UNL     1       2.972   0.980   0.000  0.00  0.00    +0.000 C 
ATOM     12  C   UNL     1       2.147   0.980   0.000  0.00  0.00    +0.000 C 
ATOM     13  C   UNL     1       1.564   1.564   0.000  0.00  0.00    +0.000 C 
ATOM     14  C   UNL     1       0.779   1.309   0.000  0.00  0.00    +0.000 C 
ATOM     15  C   UNL     1       0.294   1.976   0.000  0.00  0.00    +0.000 C 
ATOM     16  C   UNL     1       0.779   2.644   0.000  0.00  0.00    +0.000 C 
ATOM     17  N   UNL     1       1.564   2.389   0.000  0.00  0.00    +0.000 N 
ATOM     18  C   UNL     1       2.147   2.972   0.000  0.00  0.00    +0.000 C 
ATOM     19  O   UNL     1       1.831   3.734   0.000  0.00  0.00    +0.000 OA
ATOM     20  C   UNL     1       2.972   2.972   0.000  0.00  0.00    +0.000 C 
ATOM     21  C   UNL     1       3.555   2.389   0.000  0.00  0.00    +0.000 C 
BRANCH  16  22
ATOM     22  C   UNL     1       0.524   3.428   0.000  0.00  0.00    +0.000 C 
ATOM     23  O   UNL     1       1.076   4.041   0.000  0.00  0.00    +0.000 OA
ATOM     24  N   UNL     1      -0.283   3.600   0.000  0.00  0.00    +0.000 NA
BRANCH  24  25
ATOM     25  C   UNL     1      -0.538   4.384   0.000  0.00  0.00    +0.000 C 
BRANCH  25  26
ATOM     26  C   UNL     1       0.014   4.997   0.000  0.00  0.00    +0.000 A 
ATOM     27  C   UNL     1      -0.241   5.782   0.000  0.00  0.00    +0.000 A 
ATOM     28  C   UNL     1       0.311   6.395   0.000  0.00  0.00    +0.000 A 
ATOM     29  C   UNL     1       1.118   6.224   0.000  0.00  0.00    +0.000 A 
ATOM     30  C   UNL     1       1.373   5.439   0.000  0.00  0.00    +0.000 A 
ATOM     31  C   UNL     1       0.821   4.826   0.000  0.00  0.00    +0.000 A 
ENDBRANCH  25  26
BRANCH  25  32
ATOM     32  C   UNL     1      -1.345   4.556   0.000  0.00  0.00    +0.000 A 
ATOM     33  C   UNL     1      -1.897   3.943   0.000  0.00  0.00    +0.000 A 
ATOM     34  C   UNL     1      -2.704   4.114   0.000  0.00  0.00    +0.000 A 
ATOM     35  C   UNL     1      -2.959   4.899   0.000  0.00  0.00    +0.000 A 
ATOM     36  C   UNL     1      -2.407   5.512   0.000  0.00  0.00    +0.000 A 
ATOM     37  C   UNL     1      -1.600   5.340   0.000  0.00  0.00    +0.000 A 
ENDBRANCH  25  32
ENDBRANCH  24  25
ENDBRANCH  16  22
BRANCH  20  38
ATOM     38  N   UNL     1       3.288   3.734   0.000  0.00  0.00    +0.000 NA
ATOM     39  C   UNL     1       2.785   4.389   0.000  0.00  0.00    +0.000 C 
ATOM     40  O   UNL     1       1.968   4.281   0.000  0.00  0.00    +0.000 OA
BRANCH  39  41
ATOM     41  C   UNL     1       3.101   5.151   0.000  0.00  0.00    +0.000 C 
ATOM     42  C   UNL     1       3.919   5.259   0.000  0.00  0.00    +0.000 C 
BRANCH  41  43
ATOM     43  N   UNL     1       2.599   5.805   0.000  0.00  0.00    +0.000 NA
ATOM     44  C   UNL     1       2.915   6.568   0.000  0.00  0.00    +0.000 C 
ENDBRANCH  41  43
ENDBRANCH  39  41
ENDBRANCH  20  38
ENDBRANCH   7  10
ENDBRANCH   3   7
BRANCH   1  45
ATOM     45  S   UNL     1       6.057  -1.019   0.000  0.00  0.00    +0.000 S 
ATOM     46  O   UNL     1       5.239  -1.127   0.000  0.00  0.00    +0.000 OA
ATOM     47  O   UNL     1       6.875  -0.912   0.000  0.00  0.00    +0.000 OA
BRANCH  45  57
ATOM     48  C   UNL     1       7.161  -3.562   0.000  0.00  0.00    +0.000 C 
ATOM     49  C   UNL     1       7.774  -4.114   0.000  0.00  0.00    +0.000 C 
ATOM     50  C   UNL     1       7.438  -4.868   0.000  0.00  0.00    +0.000 C 
ATOM     51  C   UNL     1       6.618  -4.782   0.000  0.00  0.00    +0.000 C 
ATOM     52  N   UNL     1       6.446  -3.975   0.000  0.00  0.00    +0.000 N 
ATOM     53  C   UNL     1       5.649  -3.761   0.000  0.00  0.00    +0.000 C 
ATOM     54  O   UNL     1       5.147  -4.416   0.000  0.00  0.00    +0.000 OA
ATOM     55  C   UNL     1       5.237  -3.047   0.000  0.00  0.00    +0.000 C 
ATOM     56  C   UNL     1       5.450  -2.250   0.000  0.00  0.00    +0.000 C 
ATOM     57  N   UNL     1       6.165  -1.837   0.000  0.00  0.00    +0.000 NA
ATOM     58  C   UNL     1       6.962  -2.051   0.000  0.00  0.00    +0.000 C 
ATOM     59  C   UNL     1       7.374  -2.765   0.000  0.00  0.00    +0.000 C 
BRANCH  51  60
ATOM     60  C   UNL     1       6.066  -5.395   0.000  0.00  0.00    +0.000 C 
ATOM     61  O   UNL     1       5.259  -5.223   0.000  0.00  0.00    +0.000 OA
ATOM     62  N   UNL     1       6.321  -6.179   0.000  0.00  0.00    +0.000 NA
BRANCH  62  63
ATOM     63  C   UNL     1       5.769  -6.793   0.000  0.00  0.00    +0.000 C 
BRANCH  63  64
ATOM     64  C   UNL     1       6.024  -7.577   0.000  0.00  0.00    +0.000 A 
ATOM     65  C   UNL     1       6.831  -7.749   0.000  0.00  0.00    +0.000 A 
ATOM     66  C   UNL     1       7.086  -8.533   0.000  0.00  0.00    +0.000 A 
ATOM     67  C   UNL     1       6.534  -9.146   0.000  0.00  0.00    +0.000 A 
ATOM     68  C   UNL     1       5.727  -8.975   0.000  0.00  0.00    +0.000 A 
ATOM     69  C   UNL     1       5.472  -8.190   0.000  0.00  0.00    +0.000 A 
ENDBRANCH  63  64
BRANCH  63  70
ATOM     70  C   UNL     1       4.962  -6.621   0.000  0.00  0.00    +0.000 A 
ATOM     71  C   UNL     1       4.410  -7.234   0.000  0.00  0.00    +0.000 A 
ATOM     72  C   UNL     1       3.603  -7.063   0.000  0.00  0.00    +0.000 A 
ATOM     73  C   UNL     1       3.348  -6.278   0.000  0.00  0.00    +0.000 A 
ATOM     74  C   UNL     1       3.900  -5.665   0.000  0.00  0.00    +0.000 A 
ATOM     75  C   UNL     1       4.707  -5.836   0.000  0.00  0.00    +0.000 A 
ENDBRANCH  63  70
ENDBRANCH  62  63
ENDBRANCH  51  60
BRANCH  55  76
ATOM     76  N   UNL     1       4.419  -3.154   0.000  0.00  0.00    +0.000 NA
ATOM     77  C   UNL     1       4.103  -3.917   0.000  0.00  0.00    +0.000 C 
ATOM     78  O   UNL     1       4.606  -4.571   0.000  0.00  0.00    +0.000 OA
BRANCH  77  79
ATOM     79  C   UNL     1       3.285  -4.024   0.000  0.00  0.00    +0.000 C 
ATOM     80  C   UNL     1       2.783  -3.370   0.000  0.00  0.00    +0.000 C 
BRANCH  79  81
ATOM     81  N   UNL     1       2.970  -4.787   0.000  0.00  0.00    +0.000 NA
ATOM     82  C   UNL     1       3.472  -5.441   0.000  0.00  0.00    +0.000 C 
ENDBRANCH  79  81
ENDBRANCH  77  79
ENDBRANCH  55  76
ENDBRANCH  45  57
ENDBRANCH   1  45
TORSDOF 18
