REMARK  Name = 
REMARK  3 active torsions:
REMARK  status: ('A' for Active; 'I' for Inactive)
REMARK    1  A    between atoms: C_3  and  N_27
REMARK    2  A    between atoms: C_6  and  C_7
REMARK    3  A    between atoms: N_30  and  C_31
REMARK                            x       y       z     vdW  Elec       q    Type
REMARK                         _______ _______ _______ _____ _____    ______ ____
ROOT
ATOM      1  C   UNL     1       3.457   0.714   0.000  0.00  0.00    +0.000 A 
ATOM      2  N   UNL     1       3.869  -0.000   0.000  0.00  0.00    +0.000 NA
ATOM      3  C   UNL     1       3.457  -0.715   0.000  0.00  0.00    +0.000 A 
ATOM      4  N   UNL     1       2.632  -0.715   0.000  0.00  0.00    +0.000 NA
ATOM      5  C   UNL     1       2.022  -0.124   0.000  0.00  0.00    +0.000 A 
ATOM      6  N   UNL     1       2.632   0.714   0.000  0.00  0.00    +0.000 NA
ATOM      7  N   UNL     1       1.394  -0.000   0.000  0.00  0.00    +0.000 N 
ATOM      8  C   UNL     1       1.162   0.927   0.000  0.00  0.00    +0.000 C 
ATOM      9  C   UNL     1       0.517   0.412   0.000  0.00  0.00    +0.000 C 
ATOM     10  C   UNL     1       0.517  -0.413   0.000  0.00  0.00    +0.000 C 
ATOM     11  C   UNL     1       1.162  -0.927   0.000  0.00  0.00    +0.000 C 
ATOM     12  C   UNL     1       1.967  -0.743   0.000  0.00  0.00    +0.000 C 
ATOM     13  O   UNL     1       2.325  -0.000   0.000  0.00  0.00    +0.000 OA
ATOM     14  C   UNL     1       1.967   0.743   0.000  0.00  0.00    +0.000 C 
ATOM     15  N   UNL     1       3.869  -1.429   0.000  0.00  0.00    +0.000 N 
ATOM     16  C   UNL     1       4.694  -1.429   0.000  0.00  0.00    +0.000 C 
ATOM     17  C   UNL     1       5.107  -2.143   0.000  0.00  0.00    +0.000 C 
ATOM     18  O   UNL     1       4.694  -2.858   0.000  0.00  0.00    +0.000 OA
ATOM     19  C   UNL     1       3.869  -2.858   0.000  0.00  0.00    +0.000 C 
ATOM     20  C   UNL     1       3.457  -2.143   0.000  0.00  0.00    +0.000 C 
ENDROOT
BRANCH   1  26
ATOM     21  C   UNL     1       3.457   2.143   0.000  0.00  0.00    +0.000 A 
ATOM     22  C   UNL     1       3.869   2.858   0.000  0.00  0.00    +0.000 A 
ATOM     23  C   UNL     1       4.694   2.858   0.000  0.00  0.00    +0.000 A 
ATOM     24  C   UNL     1       5.107   2.143   0.000  0.00  0.00    +0.000 A 
ATOM     25  C   UNL     1       4.694   1.429   0.000  0.00  0.00    +0.000 A 
ATOM     26  C   UNL     1       3.869   1.429   0.000  0.00  0.00    +0.000 A 
BRANCH  23  27
ATOM     27  N   UNL     1       5.107   3.572   0.000  0.00  0.00    +0.000 NA
ATOM     28  C   UNL     1       5.932   3.572   0.000  0.00  0.00    +0.000 C 
ATOM     29  O   UNL     1       6.344   2.858   0.000  0.00  0.00    +0.000 OA
ATOM     30  N   UNL     1       6.344   4.287   0.000  0.00  0.00    +0.000 NA
BRANCH  30  31
ATOM     31  C   UNL     1       7.169   4.287   0.000  0.00  0.00    +0.000 A 
ATOM     32  C   UNL     1       7.582   5.001   0.000  0.00  0.00    +0.000 A 
ATOM     33  C   UNL     1       8.407   5.001   0.000  0.00  0.00    +0.000 A 
ATOM     34  N   UNL     1       8.819   4.287   0.000  0.00  0.00    +0.000 NA
ATOM     35  C   UNL     1       8.407   3.572   0.000  0.00  0.00    +0.000 A 
ATOM     36  C   UNL     1       7.582   3.572   0.000  0.00  0.00    +0.000 A 
ENDBRANCH  30  31
ENDBRANCH  23  27
ENDBRANCH   1  26
TORSDOF 3
