REMARK  Name = 
REMARK  8 active torsions:
REMARK  status: ('A' for Active; 'I' for Inactive)
REMARK    1  A    between atoms: N_3  and  C_9
REMARK    2  A    between atoms: N_4  and  C_12
REMARK    3  A    between atoms: N_5  and  C_10
REMARK    4  A    between atoms: C_7  and  C_8
REMARK    5  A    between atoms: C_7  and  C_9
REMARK    6  A    between atoms: C_8  and  C_10
REMARK    7  A    between atoms: C_10  and  C_13
REMARK    8  A    between atoms: C_12  and  C_14
REMARK                            x       y       z     vdW  Elec       q    Type
REMARK                         _______ _______ _______ _____ _____    ______ ____
ROOT
ATOM      1  N   UNK     1      -0.357   0.206   0.000  0.00  0.00    +0.000 N 
ATOM      2  N   UNK     1      -1.786   0.206   0.000  0.00  0.00    +0.000 N 
ATOM      3  N   UNK     1      -1.072  -1.031   0.000  0.00  0.00    +0.000 N 
ATOM      4  C   UNK     1      -1.072  -0.206   0.000  0.00  0.00    +0.000 C 
ATOM      5  H   UNK     1      -0.357   0.718   0.000  0.00  0.00    +0.000 HD
ATOM      6  H   UNK     1      -1.786   0.718   0.000  0.00  0.00    +0.000 HD
ATOM      7  H   UNK     1      -0.629  -1.287   0.000  0.00  0.00    +0.000 HD
ATOM      8  H   UNK     1      -1.515  -1.287   0.000  0.00  0.00    +0.000 HD
ENDROOT
BRANCH   1   9
ATOM      9  C   UNK     1       0.357  -0.206   0.000  0.00  0.00    +0.000 C 
BRANCH   9  10
ATOM     10  C   UNK     1       1.072   0.206   0.000  0.00  0.00    +0.000 C 
BRANCH  10  11
ATOM     11  C   UNK     1       1.786  -0.206   0.000  0.00  0.00    +0.000 C 
BRANCH  11  12
ATOM     12  C   UNK     1       2.501   0.206   0.000  0.00  0.00    +0.000 C 
BRANCH  12  15
ATOM     13  O   UNK     1       3.930   0.206   0.000  0.00  0.00    +0.000 OA
ATOM     14  O   UNK     1       3.215  -1.031   0.000  0.00  0.00    +0.000 OA
ATOM     15  C   UNK     1       3.215  -0.206   0.000  0.00  0.00    +0.000 C 
ENDBRANCH  12  15
BRANCH  12  16
ATOM     16  N   UNK     1       2.501   1.031   0.000  0.00  0.00    +0.000 NA
ATOM     17  H   UNK     1       2.058   1.287   0.000  0.00  0.00    +0.000 HD
ATOM     18  H   UNK     1       2.944   1.287   0.000  0.00  0.00    +0.000 HD
ENDBRANCH  12  16
ENDBRANCH  11  12
ENDBRANCH  10  11
ENDBRANCH   9  10
ENDBRANCH   1   9
BRANCH   2  19
ATOM     19  C   UNK     1      -2.501  -0.206   0.000  0.00  0.00    +0.000 C 
BRANCH  19  20
ATOM     20  C   UNK     1      -3.215   0.206   0.000  0.00  0.00    +0.000 C 
ATOM     21  C   UNK     1      -3.930  -0.206   0.000  0.00  0.00    +0.000 C 
ENDBRANCH  19  20
ENDBRANCH   2  19
TORSDOF 8
