REMARK  Name = 
REMARK  9 active torsions:
REMARK  status: ('A' for Active; 'I' for Inactive)
REMARK    1  A    between atoms: SG_1  and  CB_16
REMARK    2  A    between atoms: SG_1  and  C_17
REMARK    3  A    between atoms: N_7  and  C_13
REMARK    4  A    between atoms: C_10  and  CA_11
REMARK    5  A    between atoms: C_10  and  C_12
REMARK    6  A    between atoms: CA_11  and  C_14
REMARK    7  A    between atoms: C_12  and  C_13
REMARK    8  A    between atoms: CA_15  and  CB_16
REMARK    9  A    between atoms: CA_15  and  C_18
REMARK                            x       y       z     vdW  Elec       q    Type
REMARK                         _______ _______ _______ _____ _____    ______ ____
ROOT
ATOM      1  N   CYS A   1      -0.715  -0.825   0.000  0.00  0.00    +0.000 NA
ATOM      2  N   CYS A   1      -1.429  -2.062   0.000  0.00  0.00    +0.000 NA
ATOM      3  C   CYS A   1      -0.715  -1.650   0.000  0.00  0.00    +0.000 C 
ENDROOT
BRANCH   3   4
ATOM      4  SG  CYS A   1       0.000  -2.062   0.000  0.00  0.00    +0.000 S 
BRANCH   4   5
ATOM      5  CB  CYS A   1       0.715  -1.650   0.000  0.00  0.00    +0.000 C 
BRANCH   5   7
ATOM      6  N   CYS A   1       1.429  -2.888   0.000  0.00  0.00    +0.000 NA
ATOM      7  CA  CYS A   1       1.429  -2.062   0.000  0.00  0.00    +0.000 C 
BRANCH   7  10
ATOM      8  O   CYS A   1       2.858  -2.062   0.000  0.00  0.00    +0.000 OA
ATOM      9  OXT CYS A   1       2.143  -0.825   0.000  0.00  0.00    +0.000 OA
ATOM     10  C   CYS A   1       2.143  -1.650   0.000  0.00  0.00    +0.000 C 
ENDBRANCH   7  10
ENDBRANCH   5   7
ENDBRANCH   4   5
ENDBRANCH   3   4
BRANCH   1  11
ATOM     11  C   CYS A   1      -1.429  -0.412   0.000  0.00  0.00    +0.000 C 
BRANCH  11  12
ATOM     12  C   CYS A   1      -1.429   0.412   0.000  0.00  0.00    +0.000 C 
BRANCH  12  13
ATOM     13  C   CYS A   1      -2.143   0.825   0.000  0.00  0.00    +0.000 C 
BRANCH  13  15
ATOM     14  N   CYS A   1      -2.858   2.062   0.000  0.00  0.00    +0.000 NA
ATOM     15  CA  CYS A   1      -2.143   1.650   0.000  0.00  0.00    +0.000 C 
BRANCH  15  18
ATOM     16  O   CYS A   1      -1.429   2.888   0.000  0.00  0.00    +0.000 OA
ATOM     17  OXT CYS A   1      -0.715   1.650   0.000  0.00  0.00    +0.000 OA
ATOM     18  C   CYS A   1      -1.429   2.062   0.000  0.00  0.00    +0.000 C 
ENDBRANCH  15  18
ENDBRANCH  13  15
ENDBRANCH  12  13
ENDBRANCH  11  12
ENDBRANCH   1  11
TORSDOF 9
