REMARK  Name = 
REMARK  7 active torsions:
REMARK  status: ('A' for Active; 'I' for Inactive)
REMARK    1  A    between atoms: C_2  and  N_4
REMARK    2  A    between atoms: N_4  and  C_5
REMARK    3  A    between atoms: N_4  and  C_20
REMARK    4  A    between atoms: C_5  and  C_6
REMARK    5  A    between atoms: C_6  and  C_7
REMARK    6  A    between atoms: C_7  and  C_8
REMARK    7  A    between atoms: C_7  and  C_14
REMARK                            x       y       z     vdW  Elec       q    Type
REMARK                         _______ _______ _______ _____ _____    ______ ____
ROOT
ATOM      1  C   UNL     1       0.715  -1.238   0.000  0.00  0.00    +0.000 C 
ENDROOT
BRANCH   1   2
ATOM      2  C   UNL     1       0.302  -1.952   0.000  0.00  0.00    +0.000 A 
ATOM      3  C   UNL     1       0.715  -2.666   0.000  0.00  0.00    +0.000 A 
ATOM      4  C   UNL     1       0.302  -3.381   0.000  0.00  0.00    +0.000 A 
ATOM      5  C   UNL     1      -0.523  -3.381   0.000  0.00  0.00    +0.000 A 
ATOM      6  C   UNL     1      -0.935  -2.666   0.000  0.00  0.00    +0.000 A 
ATOM      7  C   UNL     1      -0.523  -1.952   0.000  0.00  0.00    +0.000 A 
ENDBRANCH   1   2
BRANCH   1   8
ATOM      8  C   UNL     1       0.302  -0.523   0.000  0.00  0.00    +0.000 A 
ATOM      9  C   UNL     1      -0.523  -0.523   0.000  0.00  0.00    +0.000 A 
ATOM     10  C   UNL     1      -0.935   0.191   0.000  0.00  0.00    +0.000 A 
ATOM     11  C   UNL     1      -0.523   0.906   0.000  0.00  0.00    +0.000 A 
ATOM     12  C   UNL     1       0.302   0.906   0.000  0.00  0.00    +0.000 A 
ATOM     13  C   UNL     1       0.715   0.191   0.000  0.00  0.00    +0.000 A 
ENDBRANCH   1   8
BRANCH   1  14
ATOM     14  C   UNL     1       1.540  -1.238   0.000  0.00  0.00    +0.000 C 
BRANCH  14  15
ATOM     15  C   UNL     1       1.952  -1.952   0.000  0.00  0.00    +0.000 C 
BRANCH  15  16
ATOM     16  N   UNL     1       2.777  -1.952   0.000  0.00  0.00    +0.000 NA
BRANCH  16  17
ATOM     17  C   UNL     1       3.189  -1.238   0.000  0.00  0.00    +0.000 C 
ATOM     18  C   UNL     1       2.777  -0.523   0.000  0.00  0.00    +0.000 C 
ATOM     19  C   UNL     1       4.014  -1.238   0.000  0.00  0.00    +0.000 C 
ENDBRANCH  16  17
BRANCH  16  21
ATOM     20  C   UNL     1       4.014  -2.666   0.000  0.00  0.00    +0.000 C 
ATOM     21  C   UNL     1       3.189  -2.666   0.000  0.00  0.00    +0.000 C 
ATOM     22  C   UNL     1       2.777  -3.381   0.000  0.00  0.00    +0.000 C 
ENDBRANCH  16  21
ENDBRANCH  15  16
ENDBRANCH  14  15
ENDBRANCH   1  14
TORSDOF 7
