REMARK  Name = 
REMARK  11 active torsions:
REMARK  status: ('A' for Active; 'I' for Inactive)
REMARK    1  A    between atoms: CG_2  and  CB_4
REMARK    2  A    between atoms: CB_4  and  CA_5
REMARK    3  A    between atoms: C_9  and  C_51
REMARK    4  A    between atoms: CA_26  and  CB_44
REMARK    5  A    between atoms: CA_30  and  CB_34
REMARK    6  A    between atoms: CB_34  and  CG_35
REMARK    7  A    between atoms: CB_44  and  CG_45
REMARK    8  A    between atoms: C_51  and  C_52
REMARK    9  A    between atoms: N_54  and  C_55
REMARK   10  A    between atoms: C_56  and  N_65
REMARK   11  A    between atoms: C_59  and  C_61
REMARK                            x       y       z     vdW  Elec       q    Type
REMARK                         _______ _______ _______ _____ _____    ______ ____
ROOT
ATOM      1  CA  LEU A   6       3.943   4.655   0.000  0.00  0.00    +0.000 C 
ATOM      2  C   LEU A   6       4.747   4.846   0.000  0.00  0.00    +0.000 C 
ATOM      3  O   LEU A   6       4.779   5.697   0.000  0.00  0.00    +0.000 OA
ATOM      4  N   UNK A   1       5.557   4.717   0.000  0.00  0.00    +0.000 NA
ATOM      5  C   UNK A   1       6.191   4.189   0.000  0.00  0.00    +0.000 C 
ATOM      6  C   UNK A   1       6.335   3.366   0.000  0.00  0.00    +0.000 C 
ATOM      7  O   UNK A   1       7.202   3.350   0.000  0.00  0.00    +0.000 OA
ATOM      8  N   UNK A   2       5.953   2.613   0.000  0.00  0.00    +0.000 NA
ATOM      9  C   UNK A   2       5.219   2.172   0.000  0.00  0.00    +0.000 C 
ATOM     10  C   UNK A   2       4.563   1.552   0.000  0.00  0.00    +0.000 C 
ATOM     11  C   UNK A   2       3.771   1.158   0.000  0.00  0.00    +0.000 C 
ATOM     12  O   UNK A   2       2.986   0.421   0.000  0.00  0.00    +0.000 OA
ATOM     13  N   UNK A   2       2.844   1.351   0.000  0.00  0.00    +0.000 NA
ATOM     14  C   UNK A   2       2.577   2.162   0.000  0.00  0.00    +0.000 C 
ATOM     15  C   UNK A   2       3.375   2.481   0.000  0.00  0.00    +0.000 C 
ATOM     16  C   UNK A   2       3.085   3.304   0.000  0.00  0.00    +0.000 C 
ATOM     17  O   UNK A   2       2.228   3.405   0.000  0.00  0.00    +0.000 OA
ATOM     18  N   LEU A   6       3.305   4.118   0.000  0.00  0.00    +0.000 NA
ATOM     19  N   UNK A   2       4.219   1.959   0.000  0.00  0.00    +0.000 NA
ATOM     20  C   PHE A   4       4.953   1.225   0.000  0.00  0.00    +0.000 C 
ATOM     21  O   PHE A   4       5.937   1.608   0.000  0.00  0.00    +0.000 OA
ATOM     22  CA  PHE A   4       4.776   0.393   0.000  0.00  0.00    +0.000 C 
ATOM     23  N   PHE A   4       4.041   0.231   0.000  0.00  0.00    +0.000 NA
ATOM     24  C   TRP A   3       3.318   0.741   0.000  0.00  0.00    +0.000 C 
ATOM     25  O   TRP A   3       2.360   0.693   0.000  0.00  0.00    +0.000 OA
ATOM     26  CA  TRP A   3       3.500   1.706   0.000  0.00  0.00    +0.000 C 
ATOM     27  N   TRP A   3       4.003   2.530   0.000  0.00  0.00    +0.000 NA
ATOM     28  C   UNK A   2       4.779   2.894   0.000  0.00  0.00    +0.000 C 
ATOM     29  O   UNK A   2       4.691   3.725   0.000  0.00  0.00    +0.000 OA
ENDROOT
BRANCH   5  30
ATOM     30  C   UNK A   1       6.898   4.734   0.000  0.00  0.00    +0.000 C 
BRANCH  30  31
ATOM     31  C   UNK A   1       7.290   5.519   0.000  0.00  0.00    +0.000 C 
ATOM     32  O   UNK A   1       6.973   6.317   0.000  0.00  0.00    +0.000 OA
ATOM     33  N   UNK A   1       8.147   5.604   0.000  0.00  0.00    +0.000 NA
BRANCH  33  34
ATOM     34  C   UNK A   1       8.326   6.411   0.000  0.00  0.00    +0.000 C 
ATOM     35  C   UNK A   1       9.112   6.660   0.000  0.00  0.00    +0.000 C 
ATOM     36  C   UNK A   1       9.290   7.465   0.000  0.00  0.00    +0.000 C 
ATOM     37  C   UNK A   1       8.682   8.022   0.000  0.00  0.00    +0.000 C 
ATOM     38  C   UNK A   1       7.895   7.774   0.000  0.00  0.00    +0.000 C 
ATOM     39  O   UNK A   1       7.717   6.968   0.000  0.00  0.00    +0.000 OA
ATOM     40  O   UNK A   1       8.860   8.828   0.000  0.00  0.00    +0.000 OA
ATOM     41  O   UNK A   1      10.077   7.714   0.000  0.00  0.00    +0.000 OA
BRANCH  35  42
ATOM     42  N   UNK A   1       9.721   6.103   0.000  0.00  0.00    +0.000 NA
ATOM     43  C   UNK A   1       9.543   5.297   0.000  0.00  0.00    +0.000 C 
ATOM     44  O   UNK A   1       8.756   5.049   0.000  0.00  0.00    +0.000 OA
ATOM     45  C   UNK A   1      10.152   4.740   0.000  0.00  0.00    +0.000 C 
ENDBRANCH  35  42
BRANCH  38  46
ATOM     46  C   UNK A   1       7.287   8.331   0.000  0.00  0.00    +0.000 C 
ATOM     47  O   UNK A   1       7.465   9.136   0.000  0.00  0.00    +0.000 OA
ENDBRANCH  38  46
ENDBRANCH  33  34
ENDBRANCH  30  31
ENDBRANCH   5  30
BRANCH  26  48
ATOM     48  CB  TRP A   3       4.204   1.293   0.000  0.00  0.00    +0.000 C 
BRANCH  48  49
ATOM     49  CG  TRP A   3       4.399   0.595   0.000  0.00  0.00    +0.000 A 
ATOM     50  CD1 TRP A   3       3.914  -0.073   0.000  0.00  0.00    +0.000 A 
ATOM     51  NE1 TRP A   3       4.399  -0.740   0.000  0.00  0.00    +0.000 NA
ATOM     52  CE2 TRP A   3       5.183  -0.485   0.000  0.00  0.00    +0.000 A 
ATOM     53  CD2 TRP A   3       5.183   0.340   0.000  0.00  0.00    +0.000 A 
ATOM     54  CE3 TRP A   3       5.898   0.752   0.000  0.00  0.00    +0.000 A 
ATOM     55  CZ3 TRP A   3       6.612   0.340   0.000  0.00  0.00    +0.000 A 
ATOM     56  CH2 TRP A   3       6.612  -0.485   0.000  0.00  0.00    +0.000 A 
ATOM     57  CZ2 TRP A   3       5.898  -0.898   0.000  0.00  0.00    +0.000 A 
ENDBRANCH  48  49
ENDBRANCH  26  48
BRANCH   1  58
ATOM     58  CB  LEU A   6       3.444   5.411   0.000  0.00  0.00    +0.000 C 
BRANCH  58  60
ATOM     59  CD1 LEU A   6       2.521   6.714   0.000  0.00  0.00    +0.000 C 
ATOM     60  CG  LEU A   6       2.685   5.874   0.000  0.00  0.00    +0.000 C 
ATOM     61  CD2 LEU A   6       1.848   5.699   0.000  0.00  0.00    +0.000 C 
ENDBRANCH  58  60
ENDBRANCH   1  58
BRANCH  22  62
ATOM     62  CB  PHE A   4       5.498  -0.128   0.000  0.00  0.00    +0.000 C 
BRANCH  62  63
ATOM     63  CG  PHE A   4       5.201  -0.971   0.000  0.00  0.00    +0.000 A 
ATOM     64  CD1 PHE A   4       5.732  -1.603   0.000  0.00  0.00    +0.000 A 
ATOM     65  CE1 PHE A   4       5.451  -2.378   0.000  0.00  0.00    +0.000 A 
ATOM     66  CZ  PHE A   4       4.638  -2.522   0.000  0.00  0.00    +0.000 A 
ATOM     67  CE2 PHE A   4       4.107  -1.891   0.000  0.00  0.00    +0.000 A 
ATOM     68  CD2 PHE A   4       4.389  -1.115   0.000  0.00  0.00    +0.000 A 
ENDBRANCH  62  63
ENDBRANCH  22  62
TORSDOF 11
