REMARK  Name = 
REMARK  6 active torsions:
REMARK  status: ('A' for Active; 'I' for Inactive)
REMARK    1  A    between atoms: C_2  and  N_3
REMARK    2  A    between atoms: C_4  and  C_8
REMARK    3  A    between atoms: C_8  and  O_9
REMARK    4  A    between atoms: O_9  and  C_10
REMARK    5  A    between atoms: C_11  and  C_26
REMARK    6  A    between atoms: C_16  and  C_19
REMARK                            x       y       z     vdW  Elec       q    Type
REMARK                         _______ _______ _______ _____ _____    ______ ____
ROOT
ATOM      1  C   UNL     1       3.352   1.935   0.000  0.00  0.00    +0.000 A 
ATOM      2  C   UNL     1       3.352   1.110   0.000  0.00  0.00    +0.000 A 
ATOM      3  C   UNL     1       2.638   0.698   0.000  0.00  0.00    +0.000 A 
ATOM      4  C   UNL     1       1.923   1.110   0.000  0.00  0.00    +0.000 A 
ATOM      5  N   UNL     1       1.139   0.856   0.000  0.00  0.00    +0.000 NA
ATOM      6  N   UNL     1       0.654   1.523   0.000  0.00  0.00    +0.000 NA
ATOM      7  C   UNL     1       1.139   2.190   0.000  0.00  0.00    +0.000 A 
ATOM      8  N   UNL     1       1.923   1.935   0.000  0.00  0.00    +0.000 N 
ATOM      9  N   UNL     1       2.638   2.348   0.000  0.00  0.00    +0.000 NA
ENDROOT
BRANCH   7  10
ATOM     10  C   UNL     1       0.884   2.975   0.000  0.00  0.00    +0.000 A 
ATOM     11  C   UNL     1       0.077   3.147   0.000  0.00  0.00    +0.000 A 
ATOM     12  C   UNL     1      -0.178   3.931   0.000  0.00  0.00    +0.000 A 
ATOM     13  C   UNL     1       0.374   4.544   0.000  0.00  0.00    +0.000 A 
ATOM     14  C   UNL     1       1.181   4.373   0.000  0.00  0.00    +0.000 A 
ATOM     15  C   UNL     1       1.436   3.588   0.000  0.00  0.00    +0.000 A 
ATOM     16  F   UNL     1       2.243   3.417   0.000  0.00  0.00    +0.000 F 
ENDBRANCH   7  10
BRANCH   2  17
ATOM     17  C   UNL     1       4.067   0.698   0.000  0.00  0.00    +0.000 C 
ATOM     18  C   UNL     1       4.781   0.285   0.000  0.00  0.00    +0.000 C 
ATOM     19  C   UNL     1       3.654  -0.017   0.000  0.00  0.00    +0.000 C 
ATOM     20  C   UNL     1       4.479   1.412   0.000  0.00  0.00    +0.000 C 
ENDBRANCH   2  17
BRANCH   1  21
ATOM     21  O   UNL     1       4.067   2.348   0.000  0.00  0.00    +0.000 OA
BRANCH  21  22
ATOM     22  C   UNL     1       4.781   1.935   0.000  0.00  0.00    +0.000 C 
BRANCH  22  24
ATOM     23  N   UNL     1       6.249   2.012   0.000  0.00  0.00    +0.000 N 
ATOM     24  C   UNL     1       5.496   2.348   0.000  0.00  0.00    +0.000 A 
ATOM     25  N   UNL     1       5.582   3.168   0.000  0.00  0.00    +0.000 NA
ATOM     26  C   UNL     1       6.389   3.340   0.000  0.00  0.00    +0.000 A 
ATOM     27  N   UNL     1       6.801   2.626   0.000  0.00  0.00    +0.000 NA
BRANCH  23  29
ATOM     28  C   UNL     1       7.205   0.951   0.000  0.00  0.00    +0.000 C 
ATOM     29  C   UNL     1       6.421   1.205   0.000  0.00  0.00    +0.000 C 
ENDBRANCH  23  29
ENDBRANCH  22  24
ENDBRANCH  21  22
ENDBRANCH   1  21
TORSDOF 6
