REMARK  Name = 
REMARK  13 active torsions:
REMARK  status: ('A' for Active; 'I' for Inactive)
REMARK    1  A    between atoms: C_2  and  C_3
REMARK    2  A    between atoms: C_3  and  N_4
REMARK    3  A    between atoms: N_4  and  C_5
REMARK    4  A    between atoms: C_7  and  C_8
REMARK    5  A    between atoms: C_7  and  S_11
REMARK    6  A    between atoms: C_8  and  C_9
REMARK    7  A    between atoms: S_11  and  S_12
REMARK    8  A    between atoms: S_12  and  C_13
REMARK    9  A    between atoms: C_13  and  C_28
REMARK   10  A    between atoms: C_14  and  N_15
REMARK   11  A    between atoms: N_15  and  C_16
REMARK   12  A    between atoms: C_16  and  C_17
REMARK   13  A    between atoms: C_28  and  C_29
REMARK                            x       y       z     vdW  Elec       q    Type
REMARK                         _______ _______ _______ _____ _____    ______ ____
ROOT
ATOM      1  S   UNL     1      -0.357   0.206   0.000  0.00  0.00    +0.000 S 
ENDROOT
BRANCH   1   4
ATOM      2  C   UNL     1       0.357   1.444   0.000  0.00  0.00    +0.000 C 
ATOM      3  C   UNL     1       0.357   2.269   0.000  0.00  0.00    +0.000 C 
ATOM      4  C   UNL     1      -0.357   1.031   0.000  0.00  0.00    +0.000 C 
BRANCH   2   5
ATOM      5  N   UNL     1       1.072   1.031   0.000  0.00  0.00    +0.000 N 
ATOM      6  C   UNL     1       1.072   0.206   0.000  0.00  0.00    +0.000 C 
ATOM      7  O   UNL     1       1.786  -0.206   0.000  0.00  0.00    +0.000 OA
BRANCH   5   8
ATOM      8  C   UNL     1       1.786   1.444   0.000  0.00  0.00    +0.000 C 
BRANCH   8  10
ATOM      9  C   UNL     1       2.501   0.206   0.000  0.00  0.00    +0.000 A 
ATOM     10  C   UNL     1       2.501   1.031   0.000  0.00  0.00    +0.000 A 
ATOM     11  C   UNL     1       3.215   1.444   0.000  0.00  0.00    +0.000 A 
ATOM     12  N   UNL     1       3.215   2.269   0.000  0.00  0.00    +0.000 NA
ATOM     13  N   UNL     1       3.930   1.031   0.000  0.00  0.00    +0.000 NA
ATOM     14  C   UNL     1       3.930   0.206   0.000  0.00  0.00    +0.000 A 
ATOM     15  C   UNL     1       4.644  -0.206   0.000  0.00  0.00    +0.000 C 
ATOM     16  N   UNL     1       3.215  -0.206   0.000  0.00  0.00    +0.000 NA
ENDBRANCH   8  10
ENDBRANCH   5   8
ENDBRANCH   2   5
BRANCH   4  17
ATOM     17  C   UNL     1      -1.072   1.444   0.000  0.00  0.00    +0.000 C 
BRANCH  17  18
ATOM     18  C   UNL     1      -1.786   1.031   0.000  0.00  0.00    +0.000 C 
ATOM     19  O   UNL     1      -2.501   1.444   0.000  0.00  0.00    +0.000 OA
ENDBRANCH  17  18
ENDBRANCH   4  17
ENDBRANCH   1   4
BRANCH   1  20
ATOM     20  S   UNL     1       0.357  -0.206   0.000  0.00  0.00    +0.000 S 
BRANCH  20  21
ATOM     21  C   UNL     1       0.357  -1.031   0.000  0.00  0.00    +0.000 C 
ATOM     22  C   UNL     1      -0.357  -1.444   0.000  0.00  0.00    +0.000 C 
ATOM     23  C   UNL     1      -0.357  -2.269   0.000  0.00  0.00    +0.000 C 
BRANCH  22  24
ATOM     24  N   UNL     1      -1.072  -1.031   0.000  0.00  0.00    +0.000 N 
ATOM     25  C   UNL     1      -1.072  -0.206   0.000  0.00  0.00    +0.000 C 
ATOM     26  O   UNL     1      -1.786   0.206   0.000  0.00  0.00    +0.000 OA
BRANCH  24  27
ATOM     27  C   UNL     1      -1.786  -1.444   0.000  0.00  0.00    +0.000 C 
BRANCH  27  28
ATOM     28  C   UNL     1      -2.501  -1.031   0.000  0.00  0.00    +0.000 A 
ATOM     29  C   UNL     1      -3.215  -1.444   0.000  0.00  0.00    +0.000 A 
ATOM     30  N   UNL     1      -3.930  -1.031   0.000  0.00  0.00    +0.000 NA
ATOM     31  C   UNL     1      -3.930  -0.206   0.000  0.00  0.00    +0.000 A 
ATOM     32  N   UNL     1      -3.215   0.206   0.000  0.00  0.00    +0.000 NA
ATOM     33  C   UNL     1      -2.501  -0.206   0.000  0.00  0.00    +0.000 A 
ATOM     34  C   UNL     1      -4.644   0.206   0.000  0.00  0.00    +0.000 C 
ATOM     35  N   UNL     1      -3.215  -2.269   0.000  0.00  0.00    +0.000 NA
ENDBRANCH  27  28
ENDBRANCH  24  27
ENDBRANCH  22  24
BRANCH  21  36
ATOM     36  C   UNL     1       1.072  -1.444   0.000  0.00  0.00    +0.000 C 
BRANCH  36  37
ATOM     37  C   UNL     1       1.786  -1.031   0.000  0.00  0.00    +0.000 C 
ATOM     38  O   UNL     1       2.501  -1.444   0.000  0.00  0.00    +0.000 OA
ENDBRANCH  36  37
ENDBRANCH  21  36
ENDBRANCH  20  21
ENDBRANCH   1  20
TORSDOF 13
