REMARK  Name = 
REMARK  2 active torsions:
REMARK  status: ('A' for Active; 'I' for Inactive)
REMARK    1  A    between atoms: C_2  and  C_17
REMARK    2  A    between atoms: C_7  and  C_9
REMARK                            x       y       z     vdW  Elec       q    Type
REMARK                         _______ _______ _______ _____ _____    ______ ____
ROOT
ATOM      1  C   UNL     1      -1.155   0.713   0.000  0.00  0.00    +0.000 A 
ATOM      2  C   UNL     1      -1.874   0.303   0.000  0.00  0.00    +0.000 A 
ATOM      3  C   UNL     1      -1.874  -0.521   0.000  0.00  0.00    +0.000 A 
ATOM      4  C   UNL     1      -1.155  -0.937   0.000  0.00  0.00    +0.000 A 
ATOM      5  C   UNL     1      -0.442  -0.521   0.000  0.00  0.00    +0.000 A 
ATOM      6  C   UNL     1      -0.442   0.303   0.000  0.00  0.00    +0.000 A 
ATOM      7  C   UNL     1       0.825  -0.112   0.000  0.00  0.00    +0.000 A 
ATOM      8  N   UNL     1       0.343   0.561   0.000  0.00  0.00    +0.000 NA
ATOM      9  N   UNL     1       0.343  -0.779   0.000  0.00  0.00    +0.000 NA
ENDROOT
BRANCH   7  10
ATOM     10  C   UNL     1       1.650  -0.112   0.000  0.00  0.00    +0.000 A 
ATOM     11  C   UNL     1       3.300  -0.112   0.000  0.00  0.00    +0.000 A 
ATOM     12  C   UNL     1       2.891   0.607   0.000  0.00  0.00    +0.000 A 
ATOM     13  C   UNL     1       2.066   0.607   0.000  0.00  0.00    +0.000 A 
ATOM     14  C   UNL     1       2.066  -0.825   0.000  0.00  0.00    +0.000 A 
ATOM     15  N   UNL     1       2.891  -0.825   0.000  0.00  0.00    +0.000 NA
ATOM     16  O   UNL     1       1.650  -1.538   0.000  0.00  0.00    +0.000 OA
ENDBRANCH   7  10
BRANCH   2  17
ATOM     17  C   UNL     1      -2.587   0.713   0.000  0.00  0.00    +0.000 C 
ATOM     18  N   UNL     1      -2.587   1.538   0.000  0.00  0.00    +0.000 NA
ATOM     19  N   UNL     1      -3.300   0.303   0.000  0.00  0.00    +0.000 NA
ENDBRANCH   2  17
TORSDOF 2
