REMARK  Name = 
REMARK  6 active torsions:
REMARK  status: ('A' for Active; 'I' for Inactive)
REMARK    1  A    between atoms: N_10  and  C_12
REMARK    2  A    between atoms: C_18  and  C_19
REMARK    3  A    between atoms: C_19  and  O_20
REMARK    4  A    between atoms: O_20  and  P_21
REMARK    5  A    between atoms: P_21  and  C_24
REMARK    6  A    between atoms: C_24  and  P_25
REMARK                            x       y       z     vdW  Elec       q    Type
REMARK                         _______ _______ _______ _____ _____    ______ ____
ROOT
ATOM      1  C   UNL     1       0.126   0.947   0.000  0.00  0.00    +0.000 C 
ATOM      2  C   UNL     1       0.611   0.280   0.000  0.00  0.00    +0.000 C 
ATOM      3  O   UNL     1       1.436   0.280   0.000  0.00  0.00    +0.000 OA
ATOM      4  C   UNL     1       0.126  -0.388   0.000  0.00  0.00    +0.000 C 
ATOM      5  O   UNL     1       0.381  -1.172   0.000  0.00  0.00    +0.000 OA
ATOM      6  O   UNL     1      -0.659   0.692   0.000  0.00  0.00    +0.000 OA
ATOM      7  C   UNL     1      -0.659  -0.133   0.000  0.00  0.00    +0.000 C 
ENDROOT
BRANCH   1  17
ATOM      8  O   UNL     1       1.880   4.049   0.000  0.00  0.00    +0.000 OA
ATOM      9  C   UNL     1       1.880   3.224   0.000  0.00  0.00    +0.000 A 
ATOM     10  C   UNL     1       1.165   2.812   0.000  0.00  0.00    +0.000 A 
ATOM     11  N   UNL     1       0.381   3.067   0.000  0.00  0.00    +0.000 NA
ATOM     12  C   UNL     1       1.165   1.987   0.000  0.00  0.00    +0.000 A 
ATOM     13  N   UNL     1       1.880   1.574   0.000  0.00  0.00    +0.000 NA
ATOM     14  C   UNL     1       2.594   1.987   0.000  0.00  0.00    +0.000 A 
ATOM     15  N   UNL     1       2.594   2.812   0.000  0.00  0.00    +0.000 NA
ATOM     16  N   UNL     1       3.309   1.574   0.000  0.00  0.00    +0.000 NA
ATOM     17  N   UNL     1       0.381   1.732   0.000  0.00  0.00    +0.000 N 
ATOM     18  C   UNL     1      -0.104   2.399   0.000  0.00  0.00    +0.000 A 
ENDBRANCH   1  17
BRANCH   7  19
ATOM     19  C   UNL     1      -1.326  -0.618   0.000  0.00  0.00    +0.000 C 
BRANCH  19  20
ATOM     20  O   UNL     1      -1.240  -1.438   0.000  0.00  0.00    +0.000 OA
BRANCH  20  21
ATOM     21  P   UNL     1      -1.907  -1.923   0.000  0.00  0.00    +0.000 P 
ATOM     22  O   UNL     1      -2.392  -1.256   0.000  0.00  0.00    +0.000 OA
ATOM     23  O   UNL     1      -1.422  -2.591   0.000  0.00  0.00    +0.000 OA
BRANCH  21  24
ATOM     24  C   UNL     1      -2.575  -2.408   0.000  0.00  0.00    +0.000 C 
BRANCH  24  25
ATOM     25  P   UNL     1      -2.488  -3.229   0.000  0.00  0.00    +0.000 P 
ATOM     26  O   UNL     1      -2.402  -4.049   0.000  0.00  0.00    +0.000 OA
ATOM     27  O   UNL     1      -3.309  -3.315   0.000  0.00  0.00    +0.000 OA
ATOM     28  O   UNL     1      -1.668  -3.142   0.000  0.00  0.00    +0.000 OA
ENDBRANCH  24  25
ENDBRANCH  21  24
ENDBRANCH  20  21
ENDBRANCH  19  20
ENDBRANCH   7  19
TORSDOF 6
