REMARK  Name = 
REMARK  4 active torsions:
REMARK  status: ('A' for Active; 'I' for Inactive)
REMARK    1  A    between atoms: C_2  and  C_3
REMARK    2  A    between atoms: C_2  and  C_18
REMARK    3  A    between atoms: C_3  and  C_4
REMARK    4  A    between atoms: C_8  and  C_13
REMARK                            x       y       z     vdW  Elec       q    Type
REMARK                         _______ _______ _______ _____ _____    ______ ____
ROOT
ATOM      1  C   UNL     1       0.654  -0.698   0.000  0.00  0.00    +0.000 A 
ATOM      2  N   UNL     1       1.139  -0.030   0.000  0.00  0.00    +0.000 NA
ATOM      3  C   UNL     1       1.923  -0.285   0.000  0.00  0.00    +0.000 A 
ATOM      4  C   UNL     1       2.638   0.127   0.000  0.00  0.00    +0.000 A 
ATOM      5  C   UNL     1       3.352  -0.285   0.000  0.00  0.00    +0.000 A 
ATOM      6  C   UNL     1       3.352  -1.110   0.000  0.00  0.00    +0.000 A 
ATOM      7  C   UNL     1       2.638  -1.523   0.000  0.00  0.00    +0.000 A 
ATOM      8  C   UNL     1       1.923  -1.110   0.000  0.00  0.00    +0.000 A 
ATOM      9  N   UNL     1       1.139  -1.365   0.000  0.00  0.00    +0.000 NA
ENDROOT
BRANCH   5  10
ATOM     10  C   UNL     1       4.067   0.127   0.000  0.00  0.00    +0.000 C 
ATOM     11  C   UNL     1       4.781   0.540   0.000  0.00  0.00    +0.000 C 
ATOM     12  C   UNL     1       3.654   0.842   0.000  0.00  0.00    +0.000 C 
ATOM     13  C   UNL     1       4.479  -0.587   0.000  0.00  0.00    +0.000 C 
ENDBRANCH   5  10
BRANCH   1  14
ATOM     14  C   UNL     1      -0.171  -0.698   0.000  0.00  0.00    +0.000 C 
ATOM     15  N   UNL     1      -0.584   0.017   0.000  0.00  0.00    +0.000 NA
BRANCH  14  17
ATOM     16  C   UNL     1      -0.171  -2.127   0.000  0.00  0.00    +0.000 C 
ATOM     17  C   UNL     1      -0.584  -1.412   0.000  0.00  0.00    +0.000 C 
BRANCH  17  18
ATOM     18  C   UNL     1      -1.409  -1.412   0.000  0.00  0.00    +0.000 C 
ATOM     19  O   UNL     1      -1.821  -2.127   0.000  0.00  0.00    +0.000 OA
ATOM     20  N   UNL     1      -1.821  -0.698   0.000  0.00  0.00    +0.000 NA
ENDBRANCH  17  18
ENDBRANCH  14  17
ENDBRANCH   1  14
TORSDOF 4
