REMARK  Name = 
REMARK  3 active torsions:
REMARK  status: ('A' for Active; 'I' for Inactive)
REMARK    1  A    between atoms: C_3  and  C_13
REMARK    2  A    between atoms: C_4  and  N_22
REMARK    3  A    between atoms: N_22  and  C_25
REMARK                            x       y       z     vdW  Elec       q    Type
REMARK                         _______ _______ _______ _____ _____    ______ ____
ROOT
ATOM      1  N   UNL     1      -0.557  -2.062   0.000  0.00  0.00    +0.000 NA
ATOM      2  C   UNL     1       0.157  -1.650   0.000  0.00  0.00    +0.000 A 
ATOM      3  C   UNL     1       0.157  -0.825   0.000  0.00  0.00    +0.000 A 
ATOM      4  C   UNL     1      -0.557  -0.412   0.000  0.00  0.00    +0.000 A 
ATOM      5  C   UNL     1      -1.272  -0.825   0.000  0.00  0.00    +0.000 A 
ATOM      6  C   UNL     1      -1.986  -0.412   0.000  0.00  0.00    +0.000 A 
ATOM      7  C   UNL     1      -2.700  -0.825   0.000  0.00  0.00    +0.000 A 
ATOM      8  C   UNL     1      -2.700  -1.650   0.000  0.00  0.00    +0.000 A 
ATOM      9  C   UNL     1      -1.986  -2.062   0.000  0.00  0.00    +0.000 A 
ATOM     10  C   UNL     1      -1.272  -1.650   0.000  0.00  0.00    +0.000 A 
ATOM     11  O   UNL     1       0.872  -2.062   0.000  0.00  0.00    +0.000 OA
ATOM     12 CL   UNL     1      -3.415  -0.412   0.000  0.00  0.00    +0.000 Cl
ENDROOT
BRANCH   3  13
ATOM     13  C   UNL     1       0.872  -0.412   0.000  0.00  0.00    +0.000 A 
ATOM     14  N   UNL     1       1.625  -0.748   0.000  0.00  0.00    +0.000 NA
ATOM     15  C   UNL     1       2.178  -0.135   0.000  0.00  0.00    +0.000 A 
ATOM     16  C   UNL     1       1.765   0.579   0.000  0.00  0.00    +0.000 A 
ATOM     17  N   UNL     1       0.958   0.408   0.000  0.00  0.00    +0.000 NA
ATOM     18  C   UNL     1       3.002  -0.135   0.000  0.00  0.00    +0.000 A 
ATOM     19  C   UNL     1       3.415   0.579   0.000  0.00  0.00    +0.000 A 
ATOM     20  C   UNL     1       3.002   1.294   0.000  0.00  0.00    +0.000 A 
ATOM     21  C   UNL     1       2.178   1.294   0.000  0.00  0.00    +0.000 A 
ENDBRANCH   3  13
BRANCH   4  22
ATOM     22  N   UNL     1      -0.557   0.412   0.000  0.00  0.00    +0.000 NA
BRANCH  22  25
ATOM     23  N   UNL     1      -2.700   0.825   0.000  0.00  0.00    +0.000 NA
ATOM     24  C   UNL     1      -1.986   0.412   0.000  0.00  0.00    +0.000 C 
ATOM     25  C   UNL     1      -1.272   0.825   0.000  0.00  0.00    +0.000 C 
ATOM     26  C   UNL     1      -1.272   1.650   0.000  0.00  0.00    +0.000 C 
ATOM     27  C   UNL     1      -1.889   1.687   0.000  0.00  0.00    +0.000 C 
ATOM     28  C   UNL     1      -2.425   1.378   0.000  0.00  0.00    +0.000 C 
ATOM     29  C   UNL     1      -2.700   1.650   0.000  0.00  0.00    +0.000 C 
ATOM     30  C   UNL     1      -1.986   2.062   0.000  0.00  0.00    +0.000 C 
ENDBRANCH  22  25
ENDBRANCH   4  22
TORSDOF 3
