REMARK  Name = 
REMARK  2 active torsions:
REMARK  status: ('A' for Active; 'I' for Inactive)
REMARK    1  A    between atoms: C_1  and  C_2
REMARK    2  A    between atoms: C_1  and  N_4
REMARK                            x       y       z     vdW  Elec       q    Type
REMARK                         _______ _______ _______ _____ _____    ______ ____
ROOT
ATOM      1  N   UNL     1      -0.714   0.205   0.000  0.00  0.00    +0.000 N 
ATOM      2  C   UNL     1      -1.427   0.622   0.000  0.00  0.00    +0.000 C 
ATOM      3  C   UNL     1      -0.719  -0.622   0.000  0.00  0.00    +0.000 C 
ATOM      4  C   UNL     1      -1.432  -0.204   0.000  0.00  0.00    +0.000 C 
ENDROOT
BRANCH   1   5
ATOM      5  C   UNL     1       0.004   0.614   0.000  0.00  0.00    +0.000 C 
BRANCH   5   6
ATOM      6  C   UNL     1       0.718   0.205   0.000  0.00  0.00    +0.000 C 
ATOM      7  O   UNL     1       1.432   0.618   0.000  0.00  0.00    +0.000 OA
ENDBRANCH   5   6
ENDBRANCH   1   5
TORSDOF 2
