REMARK  Name = 
REMARK  22 active torsions:
REMARK  status: ('A' for Active; 'I' for Inactive)
REMARK    1  A    between atoms: C_1  and  C_25
REMARK    2  A    between atoms: N_2  and  C_3
REMARK    3  A    between atoms: C_6  and  C_13
REMARK    4  A    between atoms: C_9  and  C_10
REMARK    5  A    between atoms: C_10  and  C_18
REMARK    6  A    between atoms: C_18  and  C_19
REMARK    7  A    between atoms: C_19  and  C_20
REMARK    8  A    between atoms: C_23  and  C_83
REMARK    9  A    between atoms: C_25  and  N_27
REMARK   10  A    between atoms: C_25  and  C_28
REMARK   11  A    between atoms: C_28  and  C_30
REMARK   12  A    between atoms: C_33  and  C_34
REMARK   13  A    between atoms: C_35  and  C_37
REMARK   14  A    between atoms: C_38  and  C_39
REMARK   15  A    between atoms: C_39  and  C_40
REMARK   16  A    between atoms: C_40  and  C_41
REMARK   17  A    between atoms: C_50  and  C_53
REMARK   18  A    between atoms: C_61  and  C_64
REMARK   19  A    between atoms: C_64  and  C_66
REMARK   20  A    between atoms: C_75  and  C_76
REMARK   21  A    between atoms: C_76  and  C_80
REMARK   22  A    between atoms: C_83  and  C_84
REMARK                            x       y       z     vdW  Elec       q    Type
REMARK                         _______ _______ _______ _____ _____    ______ ____
ROOT
ATOM      1  C   UNL     1      -0.370  -2.062   0.000  0.00  0.00    +0.000 C 
ATOM      2  C   UNL     1       0.344  -2.475   0.000  0.00  0.00    +0.000 C 
ATOM      3  N   UNL     1       1.059  -2.062   0.000  0.00  0.00    +0.000 NA
ATOM      4  C   UNL     1       1.773  -2.475   0.000  0.00  0.00    +0.000 C 
ATOM      5  C   UNL     1       2.488  -2.062   0.000  0.00  0.00    +0.000 C 
ATOM      6  N   UNL     1       3.202  -2.475   0.000  0.00  0.00    +0.000 NA
ATOM      7  C   UNL     1       3.916  -2.062   0.000  0.00  0.00    +0.000 C 
ATOM      8  C   UNL     1      -0.370  -1.237   0.000  0.00  0.00    +0.000 C 
ATOM      9  O   UNL     1       0.344  -3.300   0.000  0.00  0.00    +0.000 OA
ATOM     10  O   UNL     1       2.488  -1.237   0.000  0.00  0.00    +0.000 OA
ATOM     11  C   UNL     1       3.916  -1.237   0.000  0.00  0.00    +0.000 C 
ATOM     12  N   UNL     1       4.652  -0.863   0.000  0.00  0.00    +0.000 NA
ATOM     13  C   UNL     1       4.652  -0.038   0.000  0.00  0.00    +0.000 C 
ATOM     14  O   UNL     1       3.213  -0.806   0.000  0.00  0.00    +0.000 OA
ATOM     15  C   UNL     1       0.344  -0.825   0.000  0.00  0.00    +0.000 C 
ATOM     16  N   UNL     1      -1.085  -0.825   0.000  0.00  0.00    +0.000 NA
ATOM     17  C   UNL     1      -1.085   0.000   0.000  0.00  0.00    +0.000 C 
ATOM     18  C   UNL     1      -1.799   0.412   0.000  0.00  0.00    +0.000 C 
ATOM     19  O   UNL     1      -0.370   0.412   0.000  0.00  0.00    +0.000 OA
ATOM     20  N   UNL     1      -1.799   1.237   0.000  0.00  0.00    +0.000 N 
ATOM     21  C   UNL     1      -1.085   1.650   0.000  0.00  0.00    +0.000 C 
ATOM     22  C   UNL     1      -1.085   2.475   0.000  0.00  0.00    +0.000 C 
ATOM     23  O   UNL     1      -0.370   1.237   0.000  0.00  0.00    +0.000 OA
ATOM     24  N   UNL     1      -0.370   2.887   0.000  0.00  0.00    +0.000 NA
ATOM     25  C   UNL     1      -2.569   1.533   0.000  0.00  0.00    +0.000 C 
ATOM     26  C   UNL     1      -3.088   0.892   0.000  0.00  0.00    +0.000 C 
ATOM     27  C   UNL     1      -2.639   0.200   0.000  0.00  0.00    +0.000 C 
ATOM     28  C   UNL     1      -3.912   0.935   0.000  0.00  0.00    +0.000 C 
ATOM     29  C   UNL     1       0.344   2.475   0.000  0.00  0.00    +0.000 C 
ATOM     30  C   UNL     1       1.059   2.887   0.000  0.00  0.00    +0.000 C 
ATOM     31  O   UNL     1       0.344   1.650   0.000  0.00  0.00    +0.000 OA
ATOM     32  N   UNL     1       1.773   2.475   0.000  0.00  0.00    +0.000 NA
ATOM     33  C   UNL     1       2.488   2.887   0.000  0.00  0.00    +0.000 C 
ATOM     34  C   UNL     1       3.202   2.475   0.000  0.00  0.00    +0.000 C 
ATOM     35  O   UNL     1       2.488   3.712   0.000  0.00  0.00    +0.000 OA
ATOM     36  N   UNL     1       3.916   2.887   0.000  0.00  0.00    +0.000 NA
ATOM     37  C   UNL     1       4.631   2.475   0.000  0.00  0.00    +0.000 C 
ATOM     38  O   UNL     1       5.345   2.887   0.000  0.00  0.00    +0.000 OA
ATOM     39  C   UNL     1       4.631   1.650   0.000  0.00  0.00    +0.000 C 
ATOM     40  N   UNL     1       3.916   1.237   0.000  0.00  0.00    +0.000 NA
ATOM     41  C   UNL     1       3.916   0.412   0.000  0.00  0.00    +0.000 C 
ATOM     42  O   UNL     1       3.202   0.000   0.000  0.00  0.00    +0.000 OA
ENDROOT
BRANCH   1  44
ATOM     43  C   UNL     1      -1.799  -2.062   0.000  0.00  0.00    +0.000 C 
ATOM     44  N   UNL     1      -1.085  -2.475   0.000  0.00  0.00    +0.000 NA
ATOM     45  O   UNL     1      -1.799  -1.237   0.000  0.00  0.00    +0.000 OA
BRANCH  43  46
ATOM     46  C   UNL     1      -2.513  -2.475   0.000  0.00  0.00    +0.000 C 
BRANCH  46  47
ATOM     47  N   UNL     1      -3.228  -2.062   0.000  0.00  0.00    +0.000 NA
ATOM     48  C   UNL     1      -3.942  -2.475   0.000  0.00  0.00    +0.000 C 
ATOM     49  O   UNL     1      -3.942  -3.298   0.000  0.00  0.00    +0.000 OA
BRANCH  48  50
ATOM     50  C   UNL     1      -4.657  -2.062   0.000  0.00  0.00    +0.000 C 
ATOM     51  C   UNL     1      -5.371  -2.475   0.000  0.00  0.00    +0.000 C 
BRANCH  51  52
ATOM     52  C   UNL     1      -6.086  -2.062   0.000  0.00  0.00    +0.000 C 
ATOM     53  C   UNL     1      -6.800  -2.475   0.000  0.00  0.00    +0.000 C 
BRANCH  53  54
ATOM     54  C   UNL     1      -6.800  -3.300   0.000  0.00  0.00    +0.000 C 
BRANCH  54  55
ATOM     55  C   UNL     1      -6.086  -3.712   0.000  0.00  0.00    +0.000 C 
BRANCH  55  57
ATOM     56  C   UNL     1      -5.371  -4.950   0.000  0.00  0.00    +0.000 C 
ATOM     57  C   UNL     1      -6.086  -4.537   0.000  0.00  0.00    +0.000 C 
ATOM     58  C   UNL     1      -6.800  -4.950   0.000  0.00  0.00    +0.000 C 
ENDBRANCH  55  57
ENDBRANCH  54  55
ENDBRANCH  53  54
ENDBRANCH  51  52
ENDBRANCH  48  50
ENDBRANCH  46  47
BRANCH  46  59
ATOM     59  C   UNL     1      -2.513  -3.300   0.000  0.00  0.00    +0.000 C 
ATOM     60  C   UNL     1      -3.228  -3.712   0.000  0.00  0.00    +0.000 C 
BRANCH  59  61
ATOM     61  C   UNL     1      -1.799  -3.712   0.000  0.00  0.00    +0.000 C 
ATOM     62  O   UNL     1      -1.799  -4.537   0.000  0.00  0.00    +0.000 OA
ATOM     63  O   UNL     1      -1.085  -3.300   0.000  0.00  0.00    +0.000 OA
ENDBRANCH  59  61
ENDBRANCH  46  59
ENDBRANCH  43  46
ENDBRANCH   1  44
BRANCH   4  64
ATOM     64  C   UNL     1       1.773  -3.300   0.000  0.00  0.00    +0.000 C 
ATOM     65  C   UNL     1       2.488  -3.712   0.000  0.00  0.00    +0.000 C 
ATOM     66  C   UNL     1       1.059  -3.712   0.000  0.00  0.00    +0.000 C 
ENDBRANCH   4  64
BRANCH  22  67
ATOM     67  C   UNL     1      -1.799   2.887   0.000  0.00  0.00    +0.000 C 
ATOM     68  C   UNL     1      -1.799   3.712   0.000  0.00  0.00    +0.000 C 
ATOM     69  C   UNL     1      -2.513   2.475   0.000  0.00  0.00    +0.000 C 
ENDBRANCH  22  67
BRANCH  30  70
ATOM     70  C   UNL     1       1.059   3.712   0.000  0.00  0.00    +0.000 C 
ATOM     71  C   UNL     1       1.773   4.125   0.000  0.00  0.00    +0.000 C 
BRANCH  70  72
ATOM     72  C   UNL     1       0.344   4.125   0.000  0.00  0.00    +0.000 C 
ATOM     73  O   UNL     1       0.344   4.950   0.000  0.00  0.00    +0.000 OA
ATOM     74  O   UNL     1      -0.370   3.712   0.000  0.00  0.00    +0.000 OA
ENDBRANCH  70  72
ENDBRANCH  30  70
BRANCH  13  75
ATOM     75  C   UNL     1       5.371   0.365   0.000  0.00  0.00    +0.000 C 
ATOM     76  O   UNL     1       5.567   0.899   0.000  0.00  0.00    +0.000 OA
BRANCH  75  77
ATOM     77  C   UNL     1       6.086  -0.047   0.000  0.00  0.00    +0.000 C 
ATOM     78  O   UNL     1       6.800   0.365   0.000  0.00  0.00    +0.000 OA
ATOM     79  O   UNL     1       6.086  -0.872   0.000  0.00  0.00    +0.000 OA
ENDBRANCH  75  77
ENDBRANCH  13  75
BRANCH  39  80
ATOM     80  C   UNL     1       5.345   1.237   0.000  0.00  0.00    +0.000 C 
BRANCH  80  81
ATOM     81  C   UNL     1       6.060   1.650   0.000  0.00  0.00    +0.000 C 
ATOM     82  O   UNL     1       6.774   1.237   0.000  0.00  0.00    +0.000 OA
ATOM     83  O   UNL     1       6.060   2.475   0.000  0.00  0.00    +0.000 OA
ENDBRANCH  80  81
ENDBRANCH  39  80
BRANCH   7  84
ATOM     84  C   UNL     1       4.631  -2.475   0.000  0.00  0.00    +0.000 C 
BRANCH  84  85
ATOM     85  C   UNL     1       4.631  -3.300   0.000  0.00  0.00    +0.000 C 
BRANCH  85  86
ATOM     86  C   UNL     1       5.345  -3.712   0.000  0.00  0.00    +0.000 C 
BRANCH  86  87
ATOM     87  C   UNL     1       5.345  -4.537   0.000  0.00  0.00    +0.000 C 
ATOM     88  N   UNL     1       6.060  -4.950   0.000  0.00  0.00    +0.000 NA
ENDBRANCH  86  87
ENDBRANCH  85  86
ENDBRANCH  84  85
ENDBRANCH   7  84
TORSDOF 22
