REMARK  Name = 
REMARK  2 active torsions:
REMARK  status: ('A' for Active; 'I' for Inactive)
REMARK    1  A    between atoms: C_4  and  C_7
REMARK    2  A    between atoms: C_13  and  C_18
REMARK                            x       y       z     vdW  Elec       q    Type
REMARK                         _______ _______ _______ _____ _____    ______ ____
ROOT
ATOM      1  C   UNL     1      -0.143  -0.030   0.000  0.00  0.00    +0.000 A 
ATOM      2  C   UNL     1      -0.628  -0.698   0.000  0.00  0.00    +0.000 A 
ATOM      3  N   UNL     1      -0.143  -1.365   0.000  0.00  0.00    +0.000 NA
ATOM      4  N   UNL     1       0.641  -1.110   0.000  0.00  0.00    +0.000 N 
ATOM      5  C   UNL     1       0.641  -0.285   0.000  0.00  0.00    +0.000 A 
ATOM      6  N   UNL     1       1.356   0.127   0.000  0.00  0.00    +0.000 NA
ATOM      7  C   UNL     1       2.070  -0.285   0.000  0.00  0.00    +0.000 A 
ATOM      8  C   UNL     1       2.070  -1.110   0.000  0.00  0.00    +0.000 A 
ATOM      9  C   UNL     1       1.356  -1.523   0.000  0.00  0.00    +0.000 A 
ATOM     10  N   UNL     1       1.356  -2.348   0.000  0.00  0.00    +0.000 NA
ATOM     11 BR   UNL     1       2.784  -1.523   0.000  0.00  0.00    +0.000 Br
ENDROOT
BRANCH   1  15
ATOM     12  C   UNL     1      -0.143   2.874   0.000  0.00  0.00    +0.000 C 
ATOM     13  N   UNL     1      -0.398   2.089   0.000  0.00  0.00    +0.000 N 
ATOM     14  C   UNL     1       0.086   1.422   0.000  0.00  0.00    +0.000 A 
ATOM     15  C   UNL     1      -0.398   0.754   0.000  0.00  0.00    +0.000 A 
ATOM     16  C   UNL     1      -1.183   1.009   0.000  0.00  0.00    +0.000 A 
ATOM     17  N   UNL     1      -1.183   1.834   0.000  0.00  0.00    +0.000 NA
ENDBRANCH   1  15
BRANCH   7  18
ATOM     18  C   UNL     1       2.784   0.127   0.000  0.00  0.00    +0.000 C 
ATOM     19  C   UNL     1       2.784   0.952   0.000  0.00  0.00    +0.000 C 
ATOM     20  C   UNL     1       3.499   1.365   0.000  0.00  0.00    +0.000 C 
ATOM     21  C   UNL     1       4.213   0.952   0.000  0.00  0.00    +0.000 C 
ATOM     22  N   UNL     1       4.213   0.127   0.000  0.00  0.00    +0.000 NA
ATOM     23  C   UNL     1       3.499  -0.285   0.000  0.00  0.00    +0.000 C 
ENDBRANCH   7  18
TORSDOF 2
