REMARK  Name = 
REMARK  2 active torsions:
REMARK  status: ('A' for Active; 'I' for Inactive)
REMARK    1  A    between atoms: C_7  and  N_10
REMARK    2  A    between atoms: C_7  and  N_11
REMARK                            x       y       z     vdW  Elec       q    Type
REMARK                         _______ _______ _______ _____ _____    ______ ____
ROOT
ATOM      1  C   UNL     1       0.715  -1.238   0.000  0.00  0.00    +0.000 C 
ENDROOT
BRANCH   1   6
ATOM      2  C   UNL     1      -0.715  -1.238   0.000  0.00  0.00    +0.000 C 
ATOM      3  C   UNL     1      -1.429  -1.650   0.000  0.00  0.00    +0.000 C 
ATOM      4  C   UNL     1       0.000  -2.475   0.000  0.00  0.00    +0.000 C 
ATOM      5  N   UNL     1      -0.715  -2.888   0.000  0.00  0.00    +0.000 NA
ATOM      6  N   UNL     1       0.000  -1.650   0.000  0.00  0.00    +0.000 NA
ATOM      7  O   UNL     1      -2.253  -2.504   0.000  0.00  0.00    +0.000 OA
ATOM      8  O   UNL     1      -1.866  -3.175   0.000  0.00  0.00    +0.000 OA
ATOM      9  S   UNL     1      -1.429  -2.475   0.000  0.00  0.00    +0.000 S 
ENDBRANCH   1   6
BRANCH   1  14
ATOM     10  C   UNL     1       1.429   0.000   0.000  0.00  0.00    +0.000 C 
ATOM     11  C   UNL     1       1.429   0.825   0.000  0.00  0.00    +0.000 C 
ATOM     12  C   UNL     1       0.000   0.000   0.000  0.00  0.00    +0.000 C 
ATOM     13  N   UNL     1       0.000   0.825   0.000  0.00  0.00    +0.000 NA
ATOM     14  N   UNL     1       0.715  -0.412   0.000  0.00  0.00    +0.000 NA
ATOM     15  O   UNL     1       1.102   1.966   0.000  0.00  0.00    +0.000 OA
ATOM     16  O   UNL     1       0.327   1.966   0.000  0.00  0.00    +0.000 OA
ATOM     17  S   UNL     1       0.715   1.238   0.000  0.00  0.00    +0.000 S 
ENDBRANCH   1  14
TORSDOF 2
