REMARK  Name = 
REMARK  4 active torsions:
REMARK  status: ('A' for Active; 'I' for Inactive)
REMARK    1  A    between atoms: S_1  and  C_7
REMARK    2  A    between atoms: N_5  and  C_6
REMARK    3  A    between atoms: N_5  and  C_11
REMARK    4  A    between atoms: C_11  and  C_13
REMARK                            x       y       z     vdW  Elec       q    Type
REMARK                         _______ _______ _______ _____ _____    ______ ____
ROOT
ATOM      1  O   UNL     1       1.759   1.118   0.000  0.00  0.00    +0.000 OA
ATOM      2  O   UNL     1      -0.591   2.825   0.000  0.00  0.00    +0.000 OA
ATOM      3  O   UNL     1       1.204   2.825   0.000  0.00  0.00    +0.000 OA
ATOM      4  C   UNL     1       0.306   0.888   0.000  0.00  0.00    +0.000 C 
ATOM      5  C   UNL     1      -0.361   1.373   0.000  0.00  0.00    +0.000 C 
ATOM      6  C   UNL     1       0.974   1.373   0.000  0.00  0.00    +0.000 C 
ATOM      7  C   UNL     1      -0.106   2.157   0.000  0.00  0.00    +0.000 C 
ATOM      8  C   UNL     1       0.719   2.157   0.000  0.00  0.00    +0.000 C 
ENDROOT
BRANCH   5   9
ATOM      9  S   UNL     1      -1.146   1.118   0.000  0.00  0.00    +0.000 S 
ATOM     10  C   UNL     1      -1.759   1.670   0.000  0.00  0.00    +0.000 C 
ENDBRANCH   5   9
BRANCH   4  11
ATOM     11  N   UNL     1       0.306   0.063   0.000  0.00  0.00    +0.000 NA
ATOM     12  H   UNL     1       0.750  -0.193   0.000  0.00  0.00    +0.000 HD
BRANCH  11  13
ATOM     13  C   UNL     1      -0.408  -0.350   0.000  0.00  0.00    +0.000 C 
BRANCH  13  14
ATOM     14  C   UNL     1      -0.408  -1.175   0.000  0.00  0.00    +0.000 A 
ATOM     15  C   UNL     1       0.306  -1.587   0.000  0.00  0.00    +0.000 A 
ATOM     16  C   UNL     1      -1.122  -1.587   0.000  0.00  0.00    +0.000 A 
ATOM     17  C   UNL     1       0.306  -2.412   0.000  0.00  0.00    +0.000 A 
ATOM     18  C   UNL     1      -1.122  -2.412   0.000  0.00  0.00    +0.000 A 
ATOM     19  C   UNL     1      -0.408  -2.825   0.000  0.00  0.00    +0.000 A 
ENDBRANCH  13  14
ENDBRANCH  11  13
ENDBRANCH   4  11
TORSDOF 4
