REMARK  Name = 
REMARK  5 active torsions:
REMARK  status: ('A' for Active; 'I' for Inactive)
REMARK    1  A    between atoms: C_2  and  C_3
REMARK    2  A    between atoms: C_2  and  N_17
REMARK    3  A    between atoms: C_3  and  C_4
REMARK    4  A    between atoms: C_4  and  C_5
REMARK    5  A    between atoms: C_4  and  C_11
REMARK                            x       y       z     vdW  Elec       q    Type
REMARK                         _______ _______ _______ _____ _____    ______ ____
ROOT
ATOM      1  C   UNL     1      -0.715  -2.062   0.000  0.00  0.00    +0.000 C 
ENDROOT
BRANCH   1   2
ATOM      2  C   UNL     1      -1.429  -1.650   0.000  0.00  0.00    +0.000 A 
ATOM      3  C   UNL     1      -2.143  -2.062   0.000  0.00  0.00    +0.000 A 
ATOM      4  C   UNL     1      -2.858  -1.650   0.000  0.00  0.00    +0.000 A 
ATOM      5  C   UNL     1      -2.858  -0.825   0.000  0.00  0.00    +0.000 A 
ATOM      6  C   UNL     1      -2.143  -0.412   0.000  0.00  0.00    +0.000 A 
ATOM      7  C   UNL     1      -1.429  -0.825   0.000  0.00  0.00    +0.000 A 
ENDBRANCH   1   2
BRANCH   1   8
ATOM      8  C   UNL     1      -0.715  -2.888   0.000  0.00  0.00    +0.000 A 
ATOM      9  C   UNL     1       0.000  -3.300   0.000  0.00  0.00    +0.000 A 
ATOM     10  C   UNL     1       0.000  -4.125   0.000  0.00  0.00    +0.000 A 
ATOM     11  C   UNL     1      -0.715  -4.537   0.000  0.00  0.00    +0.000 A 
ATOM     12  C   UNL     1      -1.429  -4.125   0.000  0.00  0.00    +0.000 A 
ATOM     13  C   UNL     1      -1.429  -3.300   0.000  0.00  0.00    +0.000 A 
ENDBRANCH   1   8
BRANCH   1  14
ATOM     14  C   UNL     1       0.000  -1.650   0.000  0.00  0.00    +0.000 C 
BRANCH  14  16
ATOM     15  C   UNL     1       0.715  -2.888   0.000  0.00  0.00    +0.000 C 
ATOM     16  C   UNL     1       0.715  -2.062   0.000  0.00  0.00    +0.000 C 
BRANCH  16  17
ATOM     17  N   UNL     1       1.429  -1.650   0.000  0.00  0.00    +0.000 NA
ATOM     18  C   UNL     1       1.429  -0.825   0.000  0.00  0.00    +0.000 C 
ATOM     19  C   UNL     1       2.143  -2.062   0.000  0.00  0.00    +0.000 C 
ENDBRANCH  16  17
ENDBRANCH  14  16
ENDBRANCH   1  14
TORSDOF 5
