REMARK  Name = 
REMARK  5 active torsions:
REMARK  status: ('A' for Active; 'I' for Inactive)
REMARK    1  A    between atoms: N_3  and  C_9
REMARK    2  A    between atoms: N_6  and  C_15
REMARK    3  A    between atoms: N_6  and  C_17
REMARK    4  A    between atoms: N_8  and  C_18
REMARK    5  A    between atoms: C_18  and  C_19
REMARK                            x       y       z     vdW  Elec       q    Type
REMARK                         _______ _______ _______ _____ _____    ______ ____
ROOT
ATOM      1  N   UNL     1       1.288  -1.283   0.000  0.00  0.00    +0.000 N 
ATOM      2  N   UNL     1       1.288   0.045   0.000  0.00  0.00    +0.000 NA
ATOM      3  N   UNL     1      -0.208  -1.444   0.000  0.00  0.00    +0.000 NA
ATOM      4  N   UNL     1      -0.922  -0.206   0.000  0.00  0.00    +0.000 NA
ATOM      5  N   UNL     1      -1.637  -1.444   0.000  0.00  0.00    +0.000 N 
ATOM      6  C   UNL     1       0.507  -1.031   0.000  0.00  0.00    +0.000 A 
ATOM      7  C   UNL     1       0.507  -0.206   0.000  0.00  0.00    +0.000 A 
ATOM      8  C   UNL     1       1.769  -0.619   0.000  0.00  0.00    +0.000 A 
ATOM      9  C   UNL     1      -0.208   0.206   0.000  0.00  0.00    +0.000 A 
ATOM     10  C   UNL     1      -0.922  -1.031   0.000  0.00  0.00    +0.000 A 
ATOM     11  H   UNL     1      -2.079  -1.188   0.000  0.00  0.00    +0.000 HD
ENDROOT
BRANCH   1  12
ATOM     12  C   UNL     1       1.544  -2.067   0.000  0.00  0.00    +0.000 C 
ATOM     13  C   UNL     1       0.993  -2.681   0.000  0.00  0.00    +0.000 C 
ATOM     14  C   UNL     1       2.351  -2.237   0.000  0.00  0.00    +0.000 C 
ENDBRANCH   1  12
BRANCH   9  15
ATOM     15  N   UNL     1      -0.208   1.031   0.000  0.00  0.00    +0.000 N 
ATOM     16  H   UNL     1       0.235   1.287   0.000  0.00  0.00    +0.000 HD
BRANCH  15  18
ATOM     17 CL   UNL     1      -1.637   3.506   0.000  0.00  0.00    +0.000 Cl
ATOM     18  C   UNL     1      -0.922   1.444   0.000  0.00  0.00    +0.000 A 
ATOM     19  C   UNL     1      -0.922   2.269   0.000  0.00  0.00    +0.000 A 
ATOM     20  C   UNL     1      -1.637   1.031   0.000  0.00  0.00    +0.000 A 
ATOM     21  C   UNL     1      -1.637   2.681   0.000  0.00  0.00    +0.000 A 
ATOM     22  C   UNL     1      -2.351   1.444   0.000  0.00  0.00    +0.000 A 
ATOM     23  C   UNL     1      -2.351   2.269   0.000  0.00  0.00    +0.000 A 
ENDBRANCH  15  18
ENDBRANCH   9  15
BRANCH   5  24
ATOM     24  C   UNL     1      -1.637  -2.269   0.000  0.00  0.00    +0.000 C 
BRANCH  24  26
ATOM     25  O   UNL     1      -2.351  -3.506   0.000  0.00  0.00    +0.000 OA
ATOM     26  C   UNL     1      -2.351  -2.681   0.000  0.00  0.00    +0.000 C 
ENDBRANCH  24  26
ENDBRANCH   5  24
TORSDOF 5
