REMARK  Name = 
REMARK  7 active torsions:
REMARK  status: ('A' for Active; 'I' for Inactive)
REMARK    1  A    between atoms: O_2  and  C_3
REMARK    2  A    between atoms: C_4  and  O_5
REMARK    3  A    between atoms: O_5  and  C_6
REMARK    4  A    between atoms: C_6  and  C_7
REMARK    5  A    between atoms: C_7  and  C_8
REMARK    6  A    between atoms: C_16  and  C_17
REMARK    7  A    between atoms: C_17  and  C_18
REMARK                            x       y       z     vdW  Elec       q    Type
REMARK                         _______ _______ _______ _____ _____    ______ ____
ROOT
ATOM      1  C   UNL     1       2.143  -2.062   0.000  0.00  0.00    +0.000 A 
ATOM      2  C   UNL     1       2.858  -2.475   0.000  0.00  0.00    +0.000 A 
ATOM      3  C   UNL     1       2.858  -3.300   0.000  0.00  0.00    +0.000 A 
ATOM      4  C   UNL     1       2.143  -3.712   0.000  0.00  0.00    +0.000 A 
ATOM      5  C   UNL     1       2.143  -4.537   0.000  0.00  0.00    +0.000 C 
ATOM      6  C   UNL     1       1.429  -4.950   0.000  0.00  0.00    +0.000 C 
ATOM      7  N   UNL     1       0.715  -4.537   0.000  0.00  0.00    +0.000 NA
ATOM      8  C   UNL     1       0.000  -4.950   0.000  0.00  0.00    +0.000 C 
ATOM      9  C   UNL     1      -0.715  -4.537   0.000  0.00  0.00    +0.000 C 
ATOM     10  C   UNL     1      -0.715  -3.712   0.000  0.00  0.00    +0.000 C 
ATOM     11  O   UNL     1      -1.429  -3.300   0.000  0.00  0.00    +0.000 OA
ATOM     12  C   UNL     1       0.000  -3.300   0.000  0.00  0.00    +0.000 C 
ATOM     13  C   UNL     1       0.715  -3.712   0.000  0.00  0.00    +0.000 C 
ATOM     14  C   UNL     1       1.429  -3.300   0.000  0.00  0.00    +0.000 A 
ATOM     15  C   UNL     1       1.429  -2.475   0.000  0.00  0.00    +0.000 A 
ENDROOT
BRANCH   1  17
ATOM     16  C   UNL     1       1.429  -0.825   0.000  0.00  0.00    +0.000 C 
ATOM     17  O   UNL     1       2.143  -1.238   0.000  0.00  0.00    +0.000 OA
ENDBRANCH   1  17
BRANCH   2  18
ATOM     18  O   UNL     1       3.572  -2.062   0.000  0.00  0.00    +0.000 OA
BRANCH  18  19
ATOM     19  C   UNL     1       4.287  -2.475   0.000  0.00  0.00    +0.000 C 
BRANCH  19  20
ATOM     20  C   UNL     1       5.001  -2.062   0.000  0.00  0.00    +0.000 C 
BRANCH  20  21
ATOM     21  C   UNL     1       5.716  -2.475   0.000  0.00  0.00    +0.000 C 
ATOM     22  F   UNL     1       6.430  -2.062   0.000  0.00  0.00    +0.000 F 
ENDBRANCH  20  21
ENDBRANCH  19  20
ENDBRANCH  18  19
ENDBRANCH   2  18
BRANCH   9  23
ATOM     23  C   UNL     1      -1.429  -4.950   0.000  0.00  0.00    +0.000 C 
BRANCH  23  24
ATOM     24  C   UNL     1      -2.143  -4.537   0.000  0.00  0.00    +0.000 C 
ATOM     25  C   UNL     1      -2.858  -4.950   0.000  0.00  0.00    +0.000 C 
ATOM     26  C   UNL     1      -2.143  -3.712   0.000  0.00  0.00    +0.000 C 
ENDBRANCH  23  24
ENDBRANCH   9  23
TORSDOF 7
