REMARK  Name = 
REMARK  4 active torsions:
REMARK  status: ('A' for Active; 'I' for Inactive)
REMARK    1  A    between atoms: C_9  and  C_11
REMARK    2  A    between atoms: C_9  and  S_23
REMARK    3  A    between atoms: C_12  and  N_20
REMARK    4  A    between atoms: N_16  and  S_23
REMARK                            x       y       z     vdW  Elec       q    Type
REMARK                         _______ _______ _______ _____ _____    ______ ____
ROOT
ATOM      1  C   UNL     1       5.422  -1.650   0.000  0.00  0.00    +0.000 C 
ATOM      2  C   UNL     1       4.708  -2.888   0.000  0.00  0.00    +0.000 C 
ATOM      3  C   UNL     1       4.708  -1.238   0.000  0.00  0.00    +0.000 C 
ATOM      4  C   UNL     1       3.993  -2.475   0.000  0.00  0.00    +0.000 C 
ATOM      5  C   UNL     1       5.422  -2.475   0.000  0.00  0.00    +0.000 C 
ATOM      6  C   UNL     1       3.993  -1.650   0.000  0.00  0.00    +0.000 C 
ENDROOT
BRANCH   6  17
ATOM      7  C   UNL     1       2.564  -1.650   0.000  0.00  0.00    +0.000 C 
ATOM      8  C   UNL     1       1.780  -0.255   0.000  0.00  0.00    +0.000 A 
ATOM      9  C   UNL     1       1.295   0.412   0.000  0.00  0.00    +0.000 A 
ATOM     10  C   UNL     1       3.993   0.825   0.000  0.00  0.00    +0.000 A 
ATOM     11  C   UNL     1       2.564   0.000   0.000  0.00  0.00    +0.000 A 
ATOM     12  C   UNL     1       2.564   0.825   0.000  0.00  0.00    +0.000 A 
ATOM     13  C   UNL     1       3.279  -0.412   0.000  0.00  0.00    +0.000 A 
ATOM     14  N   UNL     1       1.780   1.080   0.000  0.00  0.00    +0.000 NA
ATOM     15  N   UNL     1       3.279   1.238   0.000  0.00  0.00    +0.000 NA
ATOM     16  N   UNL     1       3.993   0.000   0.000  0.00  0.00    +0.000 NA
ATOM     17  N   UNL     1       3.279  -1.238   0.000  0.00  0.00    +0.000 N 
ENDBRANCH   6  17
BRANCH   5  18
ATOM     18  C   UNL     1       6.137  -2.888   0.000  0.00  0.00    +0.000 C 
BRANCH  18  21
ATOM     19  O   UNL     1       6.962  -3.712   0.000  0.00  0.00    +0.000 OA
ATOM     20  O   UNL     1       5.312  -3.712   0.000  0.00  0.00    +0.000 OA
ATOM     21  S   UNL     1       6.137  -3.712   0.000  0.00  0.00    +0.000 S 
BRANCH  21  23
ATOM     22  C   UNL     1       6.851  -4.950   0.000  0.00  0.00    +0.000 C 
ATOM     23  N   UNL     1       6.137  -4.537   0.000  0.00  0.00    +0.000 NA
ENDBRANCH  21  23
ENDBRANCH  18  21
ENDBRANCH   5  18
TORSDOF 4
