REMARK  Name = 
REMARK  7 active torsions:
REMARK  status: ('A' for Active; 'I' for Inactive)
REMARK    1  A    between atoms: N_4  and  C_5
REMARK    2  A    between atoms: C_5  and  C_6
REMARK    3  A    between atoms: C_16  and  C_17
REMARK    4  A    between atoms: C_17  and  C_18
REMARK    5  A    between atoms: CA_25  and  C_26
REMARK    6  A    between atoms: C_29  and  C_30
REMARK    7  A    between atoms: C_30  and  N_31
REMARK                            x       y       z     vdW  Elec       q    Type
REMARK                         _______ _______ _______ _____ _____    ______ ____
ROOT
ATOM      1  C   UNL     1      -0.398   0.754   0.000  0.00  0.00    +0.000 C 
ATOM      2  O   UNL     1       0.154   1.367   0.000  0.00  0.00    +0.000 OA
ATOM      3  N   UNL     1      -0.143  -0.030   0.000  0.00  0.00    +0.000 N 
ATOM      4  C   UNL     1      -0.628  -0.698   0.000  0.00  0.00    +0.000 C 
ATOM      5  C   UNL     1      -0.143  -1.365   0.000  0.00  0.00    +0.000 C 
ATOM      6  C   UNL     1      -0.858  -1.778   0.000  0.00  0.00    +0.000 C 
ATOM      7  C   UNL     1       0.192  -2.119   0.000  0.00  0.00    +0.000 C 
ATOM      8  C   UNL     1       0.641  -1.110   0.000  0.00  0.00    +0.000 A 
ATOM      9  C   UNL     1       0.641  -0.285   0.000  0.00  0.00    +0.000 A 
ATOM     10  C   UNL     1       1.356   0.127   0.000  0.00  0.00    +0.000 A 
ATOM     11  C   UNL     1       2.070  -0.285   0.000  0.00  0.00    +0.000 A 
ATOM     12  CA  UNL     1       2.070  -1.110   0.000  0.00  0.00    +0.000 A 
ATOM     13  N   UNL     1       1.356  -1.523   0.000  0.00  0.00    +0.000 NA
ENDROOT
BRANCH  12  14
ATOM     14  C   UNL     1       2.784  -1.523   0.000  0.00  0.00    +0.000 C 
ATOM     15  O   UNL     1       2.784  -2.348   0.000  0.00  0.00    +0.000 OA
ENDBRANCH  12  14
BRANCH  11  16
ATOM     16  C   UNL     1       2.784   0.127   0.000  0.00  0.00    +0.000 C 
BRANCH  16  17
ATOM     17  C   UNL     1       3.499  -0.285   0.000  0.00  0.00    +0.000 A 
ATOM     18  C   UNL     1       4.213   0.127   0.000  0.00  0.00    +0.000 A 
ATOM     19  C   UNL     1       4.928  -0.285   0.000  0.00  0.00    +0.000 A 
ATOM     20  C   UNL     1       4.928  -1.110   0.000  0.00  0.00    +0.000 A 
ATOM     21  F   UNL     1       5.642  -1.523   0.000  0.00  0.00    +0.000 F 
ATOM     22  C   UNL     1       4.213  -1.523   0.000  0.00  0.00    +0.000 A 
ATOM     23  C   UNL     1       3.499  -1.110   0.000  0.00  0.00    +0.000 A 
ENDBRANCH  16  17
ENDBRANCH  11  16
BRANCH   1  24
ATOM     24  C   UNL     1      -1.205   0.926   0.000  0.00  0.00    +0.000 C 
BRANCH  24  28
ATOM     25  C   UNL     1      -0.611   3.721   0.000  0.00  0.00    +0.000 C 
ATOM     26  C   UNL     1      -1.163   3.108   0.000  0.00  0.00    +0.000 C 
ATOM     27  C   UNL     1      -0.908   2.323   0.000  0.00  0.00    +0.000 C 
ATOM     28  N   UNL     1      -1.460   1.710   0.000  0.00  0.00    +0.000 NA
ATOM     29  C   UNL     1      -2.267   1.882   0.000  0.00  0.00    +0.000 C 
ATOM     30  C   UNL     1      -2.522   2.666   0.000  0.00  0.00    +0.000 C 
ATOM     31  N   UNL     1      -1.970   3.280   0.000  0.00  0.00    +0.000 NA
BRANCH  29  32
ATOM     32  C   UNL     1      -2.819   1.269   0.000  0.00  0.00    +0.000 C 
BRANCH  32  33
ATOM     33  N   UNL     1      -3.626   1.440   0.000  0.00  0.00    +0.000 NA
ATOM     34  C   UNL     1      -4.178   0.827   0.000  0.00  0.00    +0.000 C 
ATOM     35  C   UNL     1      -4.985   0.999   0.000  0.00  0.00    +0.000 C 
ATOM     36  O   UNL     1      -5.240   1.783   0.000  0.00  0.00    +0.000 OA
ATOM     37  C   UNL     1      -4.688   2.396   0.000  0.00  0.00    +0.000 C 
ATOM     38  C   UNL     1      -3.881   2.225   0.000  0.00  0.00    +0.000 C 
ATOM     39  C   UNL     1      -3.329   2.838   0.000  0.00  0.00    +0.000 C 
ENDBRANCH  32  33
ENDBRANCH  29  32
ENDBRANCH  24  28
ENDBRANCH   1  24
TORSDOF 7
