REMARK  Name = 
REMARK  7 active torsions:
REMARK  status: ('A' for Active; 'I' for Inactive)
REMARK    1  A    between atoms: C_8  and  O_31
REMARK    2  A    between atoms: C_22  and  C_26
REMARK    3  A    between atoms: O_31  and  C_32
REMARK    4  A    between atoms: C_39  and  O_40
REMARK    5  A    between atoms: O_40  and  C_41
REMARK    6  A    between atoms: C_48  and  O_49
REMARK    7  A    between atoms: O_49  and  C_50
REMARK                            x       y       z     vdW  Elec       q    Type
REMARK                         _______ _______ _______ _____ _____    ______ ____
ROOT
ATOM      1  O   UNL     1       1.238  -2.401   0.000  0.00  0.00    +0.000 OA
ENDROOT
BRANCH   1   9
ATOM      2  C   UNL     1       2.667  -0.751   0.000  0.00  0.00    +0.000 C 
ATOM      3  C   UNL     1       1.952  -1.163   0.000  0.00  0.00    +0.000 C 
ATOM      4  C   UNL     1       2.667  -2.401   0.000  0.00  0.00    +0.000 C 
ATOM      5  C   UNL     1       4.096  -2.401   0.000  0.00  0.00    +0.000 C 
ATOM      6  C   UNL     1       4.810  -1.988   0.000  0.00  0.00    +0.000 C 
ATOM      7  C   UNL     1       4.096   0.074   0.000  0.00  0.00    +0.000 C 
ATOM      8  C   UNL     1       6.309  -1.006   0.000  0.00  0.00    +0.000 C 
ATOM      9  C   UNL     1       1.952  -1.988   0.000  0.00  0.00    +0.000 C 
ATOM     10  C   UNL     1       3.381  -1.988   0.000  0.00  0.00    +0.000 C 
ATOM     11  C   UNL     1       3.381  -1.163   0.000  0.00  0.00    +0.000 C 
ATOM     12  C   UNL     1       3.381  -0.338   0.000  0.00  0.00    +0.000 C 
ATOM     13  C   UNL     1       4.096  -0.751   0.000  0.00  0.00    +0.000 C 
ATOM     14  C   UNL     1       5.525  -0.751   0.000  0.00  0.00    +0.000 C 
ATOM     15  O   UNL     1       5.525  -1.576   0.000  0.00  0.00    +0.000 OA
ATOM     16  C   UNL     1       4.810   0.486   0.000  0.00  0.00    +0.000 C 
ATOM     17  C   UNL     1       5.525   0.074   0.000  0.00  0.00    +0.000 C 
ATOM     18  C   UNL     1       5.525   0.899   0.000  0.00  0.00    +0.000 C 
ATOM     19  C   UNL     1       6.309   0.329   0.000  0.00  0.00    +0.000 C 
ATOM     20  C   UNL     1       4.810  -1.163   0.000  0.00  0.00    +0.000 C 
ATOM     21  C   UNL     1       6.794  -0.338   0.000  0.00  0.00    +0.000 C 
BRANCH  19  24
ATOM     22  C   UNL     1       7.314   1.360   0.000  0.00  0.00    +0.000 C 
ATOM     23  C   UNL     1       6.056   1.806   0.000  0.00  0.00    +0.000 C 
ATOM     24  C   UNL     1       6.523   1.126   0.000  0.00  0.00    +0.000 C 
ATOM     25  O   UNL     1       7.336   2.185   0.000  0.00  0.00    +0.000 OA
ATOM     26  C   UNL     1       6.558   2.460   0.000  0.00  0.00    +0.000 C 
ATOM     27  O   UNL     1       6.282   3.226   0.000  0.00  0.00    +0.000 OA
ENDBRANCH  19  24
ENDBRANCH   1   9
BRANCH   1  28
ATOM     28  C   UNL     1       0.523  -1.988   0.000  0.00  0.00    +0.000 C 
ATOM     29  O   UNL     1       0.523  -1.163   0.000  0.00  0.00    +0.000 OA
ATOM     30  C   UNL     1      -0.191  -2.401   0.000  0.00  0.00    +0.000 C 
ATOM     31  C   UNL     1      -0.191  -0.751   0.000  0.00  0.00    +0.000 C 
ATOM     32  C   UNL     1      -0.191   0.074   0.000  0.00  0.00    +0.000 C 
ATOM     33  C   UNL     1      -0.905  -1.988   0.000  0.00  0.00    +0.000 C 
ATOM     34  O   UNL     1      -1.620  -2.401   0.000  0.00  0.00    +0.000 OA
ATOM     35  C   UNL     1      -0.905  -1.163   0.000  0.00  0.00    +0.000 C 
BRANCH  35  36
ATOM     36  O   UNL     1      -1.620  -0.751   0.000  0.00  0.00    +0.000 OA
BRANCH  36  37
ATOM     37  C   UNL     1      -2.334  -1.163   0.000  0.00  0.00    +0.000 C 
ATOM     38  C   UNL     1      -3.049  -0.751   0.000  0.00  0.00    +0.000 C 
ATOM     39  O   UNL     1      -2.334  -1.988   0.000  0.00  0.00    +0.000 OA
ATOM     40  C   UNL     1      -3.049  -2.401   0.000  0.00  0.00    +0.000 C 
ATOM     41  C   UNL     1      -3.049  -3.226   0.000  0.00  0.00    +0.000 C 
ATOM     42  C   UNL     1      -3.763  -1.163   0.000  0.00  0.00    +0.000 C 
ATOM     43  O   UNL     1      -4.478  -0.751   0.000  0.00  0.00    +0.000 OA
ATOM     44  C   UNL     1      -3.763  -1.988   0.000  0.00  0.00    +0.000 C 
BRANCH  44  45
ATOM     45  O   UNL     1      -4.478  -2.401   0.000  0.00  0.00    +0.000 OA
BRANCH  45  46
ATOM     46  C   UNL     1      -5.192  -1.988   0.000  0.00  0.00    +0.000 C 
ATOM     47  C   UNL     1      -5.907  -2.401   0.000  0.00  0.00    +0.000 C 
ATOM     48  O   UNL     1      -5.192  -1.163   0.000  0.00  0.00    +0.000 OA
ATOM     49  C   UNL     1      -5.907  -0.751   0.000  0.00  0.00    +0.000 C 
ATOM     50  C   UNL     1      -5.907   0.074   0.000  0.00  0.00    +0.000 C 
ATOM     51  C   UNL     1      -6.621  -1.163   0.000  0.00  0.00    +0.000 C 
ATOM     52  O   UNL     1      -7.336  -0.751   0.000  0.00  0.00    +0.000 OA
ATOM     53  C   UNL     1      -6.621  -1.988   0.000  0.00  0.00    +0.000 C 
ATOM     54  O   UNL     1      -7.336  -2.401   0.000  0.00  0.00    +0.000 OA
ENDBRANCH  45  46
ENDBRANCH  44  45
ENDBRANCH  36  37
ENDBRANCH  35  36
ENDBRANCH   1  28
TORSDOF 7
