REMARK  Name = 
REMARK  38 active torsions:
REMARK  status: ('A' for Active; 'I' for Inactive)
REMARK    1  A    between atoms: CA_2  and  CB_115
REMARK    2  A    between atoms: CA_38  and  CB_132
REMARK    3  A    between atoms: C_39  and  C_59
REMARK    4  A    between atoms: CA_41  and  CB_133
REMARK    5  A    between atoms: C_42  and  C_134
REMARK    6  A    between atoms: CA_44  and  CB_57
REMARK    7  A    between atoms: CA_49  and  CB_99
REMARK    8  A    between atoms: CA_50  and  CB_109
REMARK    9  A    between atoms: CB_57  and  CG_74
REMARK   10  A    between atoms: CA_60  and  CB_129
REMARK   11  A    between atoms: CA_63  and  CB_150
REMARK   12  A    between atoms: CA_64  and  CB_149
REMARK   13  A    between atoms: CA_65  and  CB_151
REMARK   14  A    between atoms: C_71  and  C_153
REMARK   15  A    between atoms: CA_72  and  CB_154
REMARK   16  A    between atoms: CA_73  and  CB_155
REMARK   17  A    between atoms: CB_99  and  CG_128
REMARK   18  A    between atoms: CB_109  and  CG_152
REMARK   19  A    between atoms: NE_122  and  CD_159
REMARK   20  A    between atoms: NE_123  and  CD_158
REMARK   21  A    between atoms: CB_129  and  CG_157
REMARK   22  A    between atoms: SD_135  and  CG_157
REMARK   23  A    between atoms: CB_149  and  CG_170
REMARK   24  A    between atoms: CB_150  and  CG_167
REMARK   25  A    between atoms: CB_151  and  CG_166
REMARK   26  A    between atoms: C_153  and  C_168
REMARK   27  A    between atoms: CB_154  and  CG_169
REMARK   28  A    between atoms: CB_155  and  CG_171
REMARK   29  A    between atoms: CD_158  and  CG_166
REMARK   30  A    between atoms: CD_159  and  CG_167
REMARK   31  A    between atoms: CE_160  and  CD_175
REMARK   32  A    between atoms: CE_161  and  CD_174
REMARK   33  A    between atoms: CE_162  and  CD_172
REMARK   34  A    between atoms: C_163  and  C_173
REMARK   35  A    between atoms: C_168  and  C_173
REMARK   36  A    between atoms: CG_169  and  CD_175
REMARK   37  A    between atoms: CG_170  and  CD_174
REMARK   38  A    between atoms: CG_171  and  CD_172
REMARK                            x       y       z     vdW  Elec       q    Type
REMARK                         _______ _______ _______ _____ _____    ______ ____
ROOT
ATOM      1  N   THR A  17       1.621   2.793   0.000  0.00  0.00    +0.000 NA
ATOM      2  CA  THR A  17       2.486   2.450   0.000  0.00  0.00    +0.000 C 
ATOM      3  N   CYS A  16       0.144   3.441   0.000  0.00  0.00    +0.000 NA
ATOM      4  N   CYS A  20       8.468   1.171   0.000  0.00  0.00    +0.000 NA
ATOM      5  N   UNK A  15      -1.910   3.801   0.000  0.00  0.00    +0.000 NA
ATOM      6  C   CYS A  16       0.901   2.288   0.000  0.00  0.00    +0.000 C 
ATOM      7  N   CYS A   8     -13.350   7.855   0.000  0.00  0.00    +0.000 NA
ATOM      8  N   SER A   9     -12.071   7.171   0.000  0.00  0.00    +0.000 NA
ATOM      9  N   UNK A  15      23.007  -3.765   0.000  0.00  0.00    +0.000 NA
ATOM     10  N   UNK A  22      14.323  -1.045   0.000  0.00  0.00    +0.000 NA
ATOM     11  C   UNK A  15      -0.595   3.801   0.000  0.00  0.00    +0.000 C 
ATOM     12  C   CYS A   8     -12.701   6.774   0.000  0.00  0.00    +0.000 C 
ATOM     13  N   ASP A  14      -3.243   4.666   0.000  0.00  0.00    +0.000 NA
ATOM     14  C   CYS A  20       9.459  -0.469   0.000  0.00  0.00    +0.000 C 
ATOM     15  N   TYR A  13      -5.189   4.990   0.000  0.00  0.00    +0.000 NA
ATOM     16  N   LEU A  11      -8.666   6.179   0.000  0.00  0.00    +0.000 NA
ATOM     17  C   SER A  19       7.495   1.441   0.000  0.00  0.00    +0.000 C 
ATOM     18  C   SER A   9     -10.756   7.314   0.000  0.00  0.00    +0.000 C 
ATOM     19  N   ARG A  21      10.756  -0.180   0.000  0.00  0.00    +0.000 NA
ATOM     20  N   ARG A  10     -10.071   6.990   0.000  0.00  0.00    +0.000 NA
ATOM     21  N   MET A  12      -6.594   5.747   0.000  0.00  0.00    +0.000 NA
ATOM     22  N   LYS A   2     -23.619  10.774   0.000  0.00  0.00    +0.000 NA
ATOM     23  N   LYS A   7     -15.458   8.252   0.000  0.00  0.00    +0.000 NA
ATOM     24  C   ASP A  14      -2.594   3.441   0.000  0.00  0.00    +0.000 C 
ATOM     25  CA  CYS A  16       0.162   2.684   0.000  0.00  0.00    +0.000 C 
ATOM     26  CA  CYS A   8     -13.350   7.152   0.000  0.00  0.00    +0.000 C 
ATOM     27  C   UNK A  15      -1.243   3.423   0.000  0.00  0.00    +0.000 C 
ATOM     28  CA  CYS A  20       8.522   0.072   0.000  0.00  0.00    +0.000 C 
ATOM     29  C   CYS A   1     -24.322  11.044   0.000  0.00  0.00    +0.000 C 
ATOM     30  C   TYR A  13      -3.837   5.063   0.000  0.00  0.00    +0.000 C 
ATOM     31  C   LEU A  11      -7.315   6.125   0.000  0.00  0.00    +0.000 C 
ATOM     32  C   LYS A   7     -14.053   8.252   0.000  0.00  0.00    +0.000 C 
ATOM     33  C   ARG A  21      13.026  -0.631   0.000  0.00  0.00    +0.000 C 
ATOM     34  C   MET A  12      -5.891   4.558   0.000  0.00  0.00    +0.000 C 
ATOM     35  C   UNK A  15      21.836  -4.306   0.000  0.00  0.00    +0.000 C 
ATOM     36  C   ARG A  10      -9.315   5.801   0.000  0.00  0.00    +0.000 C 
ATOM     37  C   ALA A   6     -16.053   7.855   0.000  0.00  0.00    +0.000 C 
ATOM     38  CA  SER A   9     -11.368   6.936   0.000  0.00  0.00    +0.000 C 
ATOM     39  C   UNK A  15      24.106  -4.414   0.000  0.00  0.00    +0.000 C 
ATOM     40  C   THR A  17       3.243   2.828   0.000  0.00  0.00    +0.000 C 
ATOM     41  CA  SER A  19       6.540   0.937   0.000  0.00  0.00    +0.000 C 
ATOM     42  C   UNK A  22      14.377  -2.306   0.000  0.00  0.00    +0.000 C 
ATOM     43  N   SER A  19       5.783   1.531   0.000  0.00  0.00    +0.000 NA
ATOM     44  CA  ASP A  14      -3.243   3.855   0.000  0.00  0.00    +0.000 C 
ATOM     45  C   UNK A  22      15.764  -2.793   0.000  0.00  0.00    +0.000 C 
ATOM     46  N   ALA A   6     -16.773   9.044   0.000  0.00  0.00    +0.000 NA
ATOM     47  N   UNK A  22      20.304  -2.829   0.000  0.00  0.00    +0.000 NA
ATOM     48  N   LYS A   4     -20.214   9.927   0.000  0.00  0.00    +0.000 NA
ATOM     49  CA  TYR A  13      -4.504   4.666   0.000  0.00  0.00    +0.000 C 
ATOM     50  CA  LEU A  11      -7.999   5.747   0.000  0.00  0.00    +0.000 C 
ATOM     51  C   LYS A   2     -22.863   9.585   0.000  0.00  0.00    +0.000 C 
ATOM     52  C   LYS A   4     -19.404   8.882   0.000  0.00  0.00    +0.000 C 
ATOM     53  N   GLY A  18       4.000   2.450   0.000  0.00  0.00    +0.000 NA
ATOM     54  N   UNK A  22      16.629  -2.126   0.000  0.00  0.00    +0.000 NA
ATOM     55  N   GLY A   3     -22.322  10.035   0.000  0.00  0.00    +0.000 NA
ATOM     56  N   GLY A   5     -18.773   9.279   0.000  0.00  0.00    +0.000 NA
ATOM     57  CA  CYS A   1     -25.099  10.665   0.000  0.00  0.00    +0.000 C 
ATOM     58  CA  MET A  12      -6.594   4.936   0.000  0.00  0.00    +0.000 C 
ATOM     59  CA  ARG A  10     -10.071   6.179   0.000  0.00  0.00    +0.000 C 
ATOM     60  CA  LYS A   7     -14.665   7.855   0.000  0.00  0.00    +0.000 C 
ATOM     61  CA  ARG A  21      11.675  -1.045   0.000  0.00  0.00    +0.000 C 
ATOM     62  C   GLY A  18       4.918   0.991   0.000  0.00  0.00    +0.000 C 
ATOM     63  C   GLY A   3     -20.971  10.251   0.000  0.00  0.00    +0.000 C 
ATOM     64  C   UNK A  22      18.971  -2.036   0.000  0.00  0.00    +0.000 C 
ATOM     65  C   GLY A   5     -17.458   9.387   0.000  0.00  0.00    +0.000 C 
ATOM     66  CA  ALA A   6     -16.719   8.252   0.000  0.00  0.00    +0.000 C 
ATOM     67  C   UNK A  15      20.377  -3.801   0.000  0.00  0.00    +0.000 C 
ATOM     68  CA  LYS A   2     -23.566   9.927   0.000  0.00  0.00    +0.000 C 
ATOM     69  CA  LYS A   4     -20.160   9.170   0.000  0.00  0.00    +0.000 C 
ATOM     70  S   UNK A  15      -1.675 -11.711   0.000  0.00  0.00    +0.000 S 
ATOM     71  SG  CYS A  20       7.657  -2.414   0.000  0.00  0.00    +0.000 S 
ATOM     72  SG  CYS A  16      -0.540  -0.793   0.000  0.00  0.00    +0.000 S 
ATOM     73  SG  CYS A   8     -14.053  -2.522   0.000  0.00  0.00    +0.000 S 
ATOM     74  S   UNK A  15      21.728 -11.711   0.000  0.00  0.00    +0.000 S 
ATOM     75  SG  CYS A   1     -26.538  -0.739   0.000  0.00  0.00    +0.000 S 
ATOM     76  O   CYS A  16       0.901   1.423   0.000  0.00  0.00    +0.000 OA
ATOM     77  O   CYS A   8     -12.701   5.909   0.000  0.00  0.00    +0.000 OA
ATOM     78  O   CYS A  20       9.459  -1.261   0.000  0.00  0.00    +0.000 OA
ATOM     79  O   UNK A  15      -0.595   4.558   0.000  0.00  0.00    +0.000 OA
ATOM     80  O   SER A  19       7.495   2.234   0.000  0.00  0.00    +0.000 OA
ATOM     81  O   SER A   9     -10.756   8.143   0.000  0.00  0.00    +0.000 OA
ATOM     82  O   CYS A   1     -24.322  11.711   0.000  0.00  0.00    +0.000 OA
ATOM     83  O   LEU A  11      -7.315   6.882   0.000  0.00  0.00    +0.000 OA
ATOM     84  O   TYR A  13      -3.892   5.855   0.000  0.00  0.00    +0.000 OA
ATOM     85  O   ASP A  14      -2.594   2.576   0.000  0.00  0.00    +0.000 OA
ATOM     86  O   ARG A  21      13.026   0.288   0.000  0.00  0.00    +0.000 OA
ATOM     87  O   UNK A  15      21.836  -5.495   0.000  0.00  0.00    +0.000 OA
ATOM     88  O   ALA A   6     -16.053   7.152   0.000  0.00  0.00    +0.000 OA
ATOM     89  O   ARG A  10      -9.315   5.063   0.000  0.00  0.00    +0.000 OA
ATOM     90  O   MET A  12      -5.891   4.072   0.000  0.00  0.00    +0.000 OA
ATOM     91  O   LYS A   7     -14.053   9.044   0.000  0.00  0.00    +0.000 OA
ATOM     92  O   THR A  17       3.243   3.801   0.000  0.00  0.00    +0.000 OA
ATOM     93  O   UNK A  22      15.764  -3.765   0.000  0.00  0.00    +0.000 OA
ATOM     94  CB  CYS A   8     -14.053   6.720   0.000  0.00  0.00    +0.000 C 
ATOM     95  C   UNK A  15      -1.621   2.558   0.000  0.00  0.00    +0.000 C 
ATOM     96  CB  CYS A  16      -0.486   2.234   0.000  0.00  0.00    +0.000 C 
ATOM     97  CB  CYS A  20       7.657  -0.469   0.000  0.00  0.00    +0.000 C 
ATOM     98  O   LYS A   2     -22.863   8.720   0.000  0.00  0.00    +0.000 OA
ATOM     99  O   LYS A   4     -19.404   8.125   0.000  0.00  0.00    +0.000 OA
ATOM    100  C   UNK A  15      24.106  -5.711   0.000  0.00  0.00    +0.000 C 
ATOM    101  C   UNK A  22      17.710  -2.829   0.000  0.00  0.00    +0.000 C 
ATOM    102  CA  GLY A   3     -21.512   9.747   0.000  0.00  0.00    +0.000 C 
ATOM    103  CA  GLY A  18       4.000   1.441   0.000  0.00  0.00    +0.000 C 
ATOM    104  CA  GLY A   5     -18.052   8.900   0.000  0.00  0.00    +0.000 C 
ATOM    105  O   GLY A  18       4.918   0.126   0.000  0.00  0.00    +0.000 OA
ATOM    106  O   GLY A   3     -20.971  10.954   0.000  0.00  0.00    +0.000 OA
ATOM    107  O   UNK A  22      18.971  -0.991   0.000  0.00  0.00    +0.000 OA
ATOM    108  O   GLY A   5     -17.458  10.179   0.000  0.00  0.00    +0.000 OA
ATOM    109  CB  CYS A   1     -26.465  10.914   0.000  0.00  0.00    +0.000 C 
ATOM    110  N   CYS A   1     -25.055   9.986   0.000  0.00  0.00    +0.000 NA
ATOM    111  CB  ALA A   6     -17.404   7.855   0.000  0.00  0.00    +0.000 C 
ENDROOT
BRANCH  39 112
ATOM    112  C   UNK A  15      25.331  -3.909   0.000  0.00  0.00    +0.000 C 
ATOM    113  O   UNK A  15      25.331  -2.901   0.000  0.00  0.00    +0.000 OA
ATOM    114  N   UNK A  15      26.538  -4.414   0.000  0.00  0.00    +0.000 NA
ENDBRANCH  39 112
BRANCH   2 115
ATOM    115  CB  THR A  17       2.486   1.531   0.000  0.00  0.00    +0.000 C 
ATOM    116  OG1 THR A  17       3.351   0.937   0.000  0.00  0.00    +0.000 OA
ATOM    117  CG2 THR A  17       1.892   0.937   0.000  0.00  0.00    +0.000 C 
ENDBRANCH   2 115
BRANCH  38 118
ATOM    118  CB  SER A   9     -11.368   6.072   0.000  0.00  0.00    +0.000 C 
ATOM    119  OG  SER A   9     -11.837   5.495   0.000  0.00  0.00    +0.000 OA
ENDBRANCH  38 118
BRANCH  41 120
ATOM    120  CB  SER A  19       6.540   0.072   0.000  0.00  0.00    +0.000 C 
ATOM    121  OG  SER A  19       5.891  -0.469   0.000  0.00  0.00    +0.000 OA
ENDBRANCH  41 120
BRANCH  42 122
ATOM    122  C   UNK A  22      13.620  -2.937   0.000  0.00  0.00    +0.000 C 
ATOM    123  O   UNK A  22      13.620  -4.036   0.000  0.00  0.00    +0.000 OA
ENDBRANCH  42 122
BRANCH  58 124
ATOM    124  CB  MET A  12      -7.207   4.558   0.000  0.00  0.00    +0.000 C 
BRANCH 124 125
ATOM    125  CG  MET A  12      -7.207   3.801   0.000  0.00  0.00    +0.000 C 
BRANCH 125 126
ATOM    126  SD  MET A  12      -7.891   3.333   0.000  0.00  0.00    +0.000 S 
ATOM    127  CE  MET A  12      -7.891   2.558   0.000  0.00  0.00    +0.000 C 
ENDBRANCH 125 126
ENDBRANCH 124 125
ENDBRANCH  58 124
BRANCH  50 128
ATOM    128  CB  LEU A  11      -8.053   4.936   0.000  0.00  0.00    +0.000 C 
BRANCH 128 129
ATOM    129  CG  LEU A  11      -8.594   4.558   0.000  0.00  0.00    +0.000 C 
ATOM    130  CD1 LEU A  11      -9.423   4.558   0.000  0.00  0.00    +0.000 C 
ATOM    131  CD2 LEU A  11      -8.216   3.801   0.000  0.00  0.00    +0.000 C 
ENDBRANCH 128 129
ENDBRANCH  50 128
BRANCH  49 132
ATOM    132  CB  TYR A  13      -4.504   3.441   0.000  0.00  0.00    +0.000 C 
BRANCH 132 133
ATOM    133  CG  TYR A  13      -5.189   2.828   0.000  0.00  0.00    +0.000 A 
ATOM    134  CZ  TYR A  13      -6.594   2.126   0.000  0.00  0.00    +0.000 A 
ATOM    135  CD1 TYR A  13      -5.891   3.261   0.000  0.00  0.00    +0.000 A 
ATOM    136  CD2 TYR A  13      -5.206   2.127   0.000  0.00  0.00    +0.000 A 
ATOM    137  CE2 TYR A  13      -5.891   1.694   0.000  0.00  0.00    +0.000 A 
ATOM    138  CE1 TYR A  13      -6.594   2.937   0.000  0.00  0.00    +0.000 A 
ATOM    139  OH  TYR A  13      -7.297   1.694   0.000  0.00  0.00    +0.000 OA
ENDBRANCH 132 133
ENDBRANCH  49 132
BRANCH  60 140
ATOM    140  CB  LYS A   7     -14.665   7.062   0.000  0.00  0.00    +0.000 C 
BRANCH 140 141
ATOM    141  CG  LYS A   7     -15.404   6.720   0.000  0.00  0.00    +0.000 C 
BRANCH 141 142
ATOM    142  CD  LYS A   7     -15.458   5.909   0.000  0.00  0.00    +0.000 C 
BRANCH 142 144
ATOM    143  NZ  LYS A   7     -16.107   4.828   0.000  0.00  0.00    +0.000 NA
ATOM    144  CE  LYS A   7     -16.107   5.495   0.000  0.00  0.00    +0.000 C 
ENDBRANCH 142 144
ENDBRANCH 141 142
ENDBRANCH 140 141
ENDBRANCH  60 140
BRANCH  59 145
ATOM    145  CB  ARG A  10     -10.702   5.801   0.000  0.00  0.00    +0.000 C 
BRANCH 145 146
ATOM    146  CG  ARG A  10     -10.648   4.990   0.000  0.00  0.00    +0.000 C 
BRANCH 146 147
ATOM    147  CD  ARG A  10     -11.350   4.558   0.000  0.00  0.00    +0.000 C 
BRANCH 147 150
ATOM    148  CZ  ARG A  10     -11.945   3.423   0.000  0.00  0.00    +0.000 C 
ATOM    149  NH1 ARG A  10     -12.593   3.693   0.000  0.00  0.00    +0.000 NA
ATOM    150  NE  ARG A  10     -11.260   3.801   0.000  0.00  0.00    +0.000 NA
ATOM    151  NH2 ARG A  10     -11.891   2.576   0.000  0.00  0.00    +0.000 NA
ENDBRANCH 147 150
ENDBRANCH 146 147
ENDBRANCH 145 146
ENDBRANCH  59 145
BRANCH  61 152
ATOM    152  CB  ARG A  21      11.134  -2.288   0.000  0.00  0.00    +0.000 C 
BRANCH 152 153
ATOM    153  CG  ARG A  21      12.143  -3.279   0.000  0.00  0.00    +0.000 C 
BRANCH 153 154
ATOM    154  CD  ARG A  21      11.512  -4.558   0.000  0.00  0.00    +0.000 C 
BRANCH 154 157
ATOM    155  CZ  ARG A  21      12.377  -7.062   0.000  0.00  0.00    +0.000 C 
ATOM    156  NH1 ARG A  21      11.170  -7.441   0.000  0.00  0.00    +0.000 NA
ATOM    157  NE  ARG A  21      12.791  -5.765   0.000  0.00  0.00    +0.000 NA
ATOM    158  NH2 ARG A  21      13.404  -8.035   0.000  0.00  0.00    +0.000 NA
ENDBRANCH 154 157
ENDBRANCH 153 154
ENDBRANCH 152 153
ENDBRANCH  61 152
BRANCH  44 159
ATOM    159  CB  ASP A  14      -3.892   3.495   0.000  0.00  0.00    +0.000 C 
BRANCH 159 160
ATOM    160  CG  ASP A  14      -4.000   2.793   0.000  0.00  0.00    +0.000 C 
ATOM    161  OD1 ASP A  14      -4.721   2.396   0.000  0.00  0.00    +0.000 OA
ATOM    162  OD2 ASP A  14      -3.297   2.288   0.000  0.00  0.00    +0.000 OA
ENDBRANCH 159 160
ENDBRANCH  44 159
BRANCH  67 163
ATOM    163  C   UNK A  15      19.242  -4.558   0.000  0.00  0.00    +0.000 C 
BRANCH 163 164
ATOM    164  C   UNK A  15      19.512  -5.909   0.000  0.00  0.00    +0.000 C 
BRANCH 164 165
ATOM    165  C   UNK A  15      18.845  -6.882   0.000  0.00  0.00    +0.000 C 
BRANCH 165 167
ATOM    166  N   UNK A  15      18.629  -9.368   0.000  0.00  0.00    +0.000 NA
ATOM    167  C   UNK A  15      19.439  -8.306   0.000  0.00  0.00    +0.000 C 
ENDBRANCH 165 167
ENDBRANCH 164 165
ENDBRANCH 163 164
ENDBRANCH  67 163
BRANCH  68 168
ATOM    168  CB  LYS A   2     -24.178   9.531   0.000  0.00  0.00    +0.000 C 
BRANCH 168 169
ATOM    169  CG  LYS A   2     -24.178   8.720   0.000  0.00  0.00    +0.000 C 
BRANCH 169 170
ATOM    170  CD  LYS A   2     -24.809   8.360   0.000  0.00  0.00    +0.000 C 
BRANCH 170 172
ATOM    171  NZ  LYS A   2     -25.421   7.152   0.000  0.00  0.00    +0.000 NA
ATOM    172  CE  LYS A   2     -24.809   7.585   0.000  0.00  0.00    +0.000 C 
ENDBRANCH 170 172
ENDBRANCH 169 170
ENDBRANCH 168 169
ENDBRANCH  68 168
BRANCH  69 173
ATOM    173  CB  LYS A   4     -20.755   8.720   0.000  0.00  0.00    +0.000 C 
BRANCH 173 174
ATOM    174  CG  LYS A   4     -20.647   7.855   0.000  0.00  0.00    +0.000 C 
BRANCH 174 175
ATOM    175  CD  LYS A   4     -21.295   7.387   0.000  0.00  0.00    +0.000 C 
BRANCH 175 177
ATOM    176  NZ  LYS A   4     -21.836   6.179   0.000  0.00  0.00    +0.000 NA
ATOM    177  CE  LYS A   4     -21.133   6.612   0.000  0.00  0.00    +0.000 C 
ENDBRANCH 175 177
ENDBRANCH 174 175
ENDBRANCH 173 174
ENDBRANCH  69 173
TORSDOF 38
