REMARK  Name = 
REMARK  9 active torsions:
REMARK  status: ('A' for Active; 'I' for Inactive)
REMARK    1  A    between atoms: C_1  and  N_12
REMARK    2  A    between atoms: C_2  and  N_11
REMARK    3  A    between atoms: N_11  and  C_22
REMARK    4  A    between atoms: N_12  and  C_21
REMARK    5  A    between atoms: C_21  and  C_28
REMARK    6  A    between atoms: C_22  and  C_27
REMARK    7  A    between atoms: C_27  and  C_34
REMARK    8  A    between atoms: C_28  and  C_33
REMARK    9  A    between atoms: C_33  and  C_34
REMARK                            x       y       z     vdW  Elec       q    Type
REMARK                         _______ _______ _______ _____ _____    ______ ____
ROOT
ATOM      1  C   UNL     1      -0.222   0.794   0.000  0.00  0.00    +0.000 C 
ENDROOT
BRANCH   1   2
ATOM      2  C   UNL     1       0.495   1.204   0.000  0.00  0.00    +0.000 C 
BRANCH   2   3
ATOM      3  C   UNL     1       1.216   0.794   0.000  0.00  0.00    +0.000 C 
BRANCH   3   4
ATOM      4  N   UNL     1       1.932   1.204   0.000  0.00  0.00    +0.000 N 
ATOM      5  C   UNL     1       2.341   1.925   0.000  0.00  0.00    +0.000 C 
ATOM      6  C   UNL     1       1.508   1.925   0.000  0.00  0.00    +0.000 C 
BRANCH   4   7
ATOM      7  C   UNL     1       2.648   0.794   0.000  0.00  0.00    +0.000 C 
ATOM      8  C   UNL     1       3.477   0.882   0.000  0.00  0.00    +0.000 A 
ATOM      9  C   UNL     1       2.488  -0.024   0.000  0.00  0.00    +0.000 A 
ATOM     10  C   UNL     1       3.813   0.127   0.000  0.00  0.00    +0.000 A 
ATOM     11  C   UNL     1       3.204  -0.434   0.000  0.00  0.00    +0.000 A 
ATOM     12  C   UNL     1       3.949   1.545   0.000  0.00  0.00    +0.000 A 
ATOM     13  C   UNL     1       1.771  -0.443   0.000  0.00  0.00    +0.000 A 
ATOM     14  C   UNL     1       4.631   0.049   0.000  0.00  0.00    +0.000 A 
ATOM     15  C   UNL     1       3.213  -1.252   0.000  0.00  0.00    +0.000 A 
ATOM     16  C   UNL     1       4.768   1.467   0.000  0.00  0.00    +0.000 A 
ATOM     17  C   UNL     1       1.786  -1.267   0.000  0.00  0.00    +0.000 A 
ATOM     18  C   UNL     1       2.502  -1.671   0.000  0.00  0.00    +0.000 A 
ATOM     19  C   UNL     1       5.114   0.711   0.000  0.00  0.00    +0.000 A 
ENDBRANCH   4   7
ENDBRANCH   3   4
ENDBRANCH   2   3
ENDBRANCH   1   2
BRANCH   1  20
ATOM     20  C   UNL     1      -0.943   1.204   0.000  0.00  0.00    +0.000 C 
BRANCH  20  21
ATOM     21  C   UNL     1      -1.654   0.794   0.000  0.00  0.00    +0.000 C 
BRANCH  21  22
ATOM     22  C   UNL     1      -2.371   1.204   0.000  0.00  0.00    +0.000 C 
BRANCH  22  23
ATOM     23  N   UNL     1      -3.097   0.784   0.000  0.00  0.00    +0.000 N 
ATOM     24  C   UNL     1      -3.511   1.510   0.000  0.00  0.00    +0.000 C 
ATOM     25  C   UNL     1      -3.920   0.784   0.000  0.00  0.00    +0.000 C 
BRANCH  23  26
ATOM     26  C   UNL     1      -3.087  -0.039   0.000  0.00  0.00    +0.000 C 
ATOM     27  C   UNL     1      -3.759  -0.536   0.000  0.00  0.00    +0.000 A 
ATOM     28  C   UNL     1      -2.424  -0.531   0.000  0.00  0.00    +0.000 A 
ATOM     29  C   UNL     1      -3.506  -1.320   0.000  0.00  0.00    +0.000 A 
ATOM     30  C   UNL     1      -2.678  -1.311   0.000  0.00  0.00    +0.000 A 
ATOM     31  C   UNL     1      -4.563  -0.361   0.000  0.00  0.00    +0.000 A 
ATOM     32  C   UNL     1      -1.620  -0.361   0.000  0.00  0.00    +0.000 A 
ATOM     33  C   UNL     1      -2.132  -1.925   0.000  0.00  0.00    +0.000 A 
ATOM     34  C   UNL     1      -4.052  -1.925   0.000  0.00  0.00    +0.000 A 
ATOM     35  C   UNL     1      -5.114  -0.975   0.000  0.00  0.00    +0.000 A 
ATOM     36  C   UNL     1      -1.065  -0.975   0.000  0.00  0.00    +0.000 A 
ATOM     37  C   UNL     1      -4.856  -1.764   0.000  0.00  0.00    +0.000 A 
ATOM     38  C   UNL     1      -1.328  -1.759   0.000  0.00  0.00    +0.000 A 
ENDBRANCH  23  26
ENDBRANCH  22  23
ENDBRANCH  21  22
ENDBRANCH  20  21
ENDBRANCH   1  20
TORSDOF 9
