REMARK  Name = 
REMARK  5 active torsions:
REMARK  status: ('A' for Active; 'I' for Inactive)
REMARK    1  A    between atoms: N_5  and  C_17
REMARK    2  A    between atoms: C_8  and  C_9
REMARK    3  A    between atoms: C_8  and  C_11
REMARK    4  A    between atoms: C_20  and  C_27
REMARK    5  A    between atoms: C_21  and  C_23
REMARK                            x       y       z     vdW  Elec       q    Type
REMARK                         _______ _______ _______ _____ _____    ______ ____
ROOT
ATOM      1  C   UNL     1       2.167  -1.468   0.000  0.00  0.00    +0.000 C 
ATOM      2  N   UNL     1       1.382  -1.722   0.000  0.00  0.00    +0.000 N 
ATOM      3  C   UNL     1       1.127  -2.507   0.000  0.00  0.00    +0.000 C 
ATOM      4  O   UNL     1       1.612  -3.175   0.000  0.00  0.00    +0.000 OA
ATOM      5  N   UNL     1       0.302  -2.507   0.000  0.00  0.00    +0.000 N 
ATOM      6  C   UNL     1       0.047  -1.722   0.000  0.00  0.00    +0.000 C 
ATOM      7  O   UNL     1      -0.738  -1.468   0.000  0.00  0.00    +0.000 OA
ATOM      8  C   UNL     1       0.715  -1.238   0.000  0.00  0.00    +0.000 C 
ENDROOT
BRANCH   8   9
ATOM      9  C   UNL     1       1.119  -0.519   0.000  0.00  0.00    +0.000 A 
ATOM     10  C   UNL     1       0.700   0.191   0.000  0.00  0.00    +0.000 A 
ATOM     11  C   UNL     1       1.105   0.910   0.000  0.00  0.00    +0.000 A 
ATOM     12  C   UNL     1       1.929   0.919   0.000  0.00  0.00    +0.000 A 
ATOM     13  C   UNL     1       2.349   0.209   0.000  0.00  0.00    +0.000 A 
ATOM     14  C   UNL     1       1.944  -0.510   0.000  0.00  0.00    +0.000 A 
ENDBRANCH   8   9
BRANCH   5  15
ATOM     15  C   UNL     1      -0.183  -3.175   0.000  0.00  0.00    +0.000 A 
ATOM     16  C   UNL     1       0.153  -3.928   0.000  0.00  0.00    +0.000 A 
ATOM     17  C   UNL     1      -0.332  -4.596   0.000  0.00  0.00    +0.000 A 
ATOM     18  C   UNL     1      -1.153  -4.509   0.000  0.00  0.00    +0.000 A 
ATOM     19  C   UNL     1      -1.488  -3.756   0.000  0.00  0.00    +0.000 A 
ATOM     20  C   UNL     1      -1.003  -3.088   0.000  0.00  0.00    +0.000 A 
BRANCH  19  21
ATOM     21  C   UNL     1      -2.309  -3.670   0.000  0.00  0.00    +0.000 C 
ATOM     22  F   UNL     1      -3.129  -3.583   0.000  0.00  0.00    +0.000 F 
ATOM     23  F   UNL     1      -2.223  -2.849   0.000  0.00  0.00    +0.000 F 
ATOM     24  F   UNL     1      -2.395  -4.490   0.000  0.00  0.00    +0.000 F 
ENDBRANCH  19  21
BRANCH  18  25
ATOM     25  C   UNL     1      -1.638  -5.177   0.000  0.00  0.00    +0.000 C 
ATOM     26  N   UNL     1      -2.123  -5.844   0.000  0.00  0.00    +0.000 NA
ENDBRANCH  18  25
ENDBRANCH   5  15
BRANCH   8  27
ATOM     27  C   UNL     1       0.309  -0.519   0.000  0.00  0.00    +0.000 C 
ATOM     28  O   UNL     1      -0.515  -0.510   0.000  0.00  0.00    +0.000 OA
ENDBRANCH   8  27
TORSDOF 5
