REMARK  Name = 
REMARK  73 active torsions:
REMARK  status: ('A' for Active; 'I' for Inactive)
REMARK    1  A    between atoms: C_1  and  C_2
REMARK    2  A    between atoms: C_1  and  C_142
REMARK    3  A    between atoms: C_2  and  N_3
REMARK    4  A    between atoms: C_2  and  C_76
REMARK    5  A    between atoms: C_4  and  C_5
REMARK    6  A    between atoms: C_5  and  N_6
REMARK    7  A    between atoms: C_5  and  C_68
REMARK    8  A    between atoms: C_7  and  C_8
REMARK    9  A    between atoms: C_8  and  C_9
REMARK   10  A    between atoms: C_8  and  N_16
REMARK   11  A    between atoms: C_9  and  C_10
REMARK   12  A    between atoms: C_17  and  C_18
REMARK   13  A    between atoms: C_18  and  C_19
REMARK   14  A    between atoms: C_18  and  N_25
REMARK   15  A    between atoms: C_19  and  C_20
REMARK   16  A    between atoms: C_26  and  C_27
REMARK   17  A    between atoms: C_27  and  N_28
REMARK   18  A    between atoms: C_27  and  C_60
REMARK   19  A    between atoms: C_29  and  C_30
REMARK   20  A    between atoms: C_30  and  N_31
REMARK   21  A    between atoms: C_30  and  C_55
REMARK   22  A    between atoms: C_32  and  C_33
REMARK   23  A    between atoms: C_33  and  N_34
REMARK   24  A    between atoms: C_33  and  C_52
REMARK   25  A    between atoms: C_35  and  C_36
REMARK   26  A    between atoms: C_36  and  C_37
REMARK   27  A    between atoms: C_36  and  N_45
REMARK   28  A    between atoms: C_37  and  C_38
REMARK   29  A    between atoms: C_46  and  C_47
REMARK   30  A    between atoms: C_47  and  C_48
REMARK   31  A    between atoms: C_55  and  C_56
REMARK   32  A    between atoms: C_56  and  S_57
REMARK   33  A    between atoms: C_60  and  C_61
REMARK   34  A    between atoms: C_61  and  C_62
REMARK   35  A    between atoms: C_68  and  C_69
REMARK   36  A    between atoms: C_69  and  C_70
REMARK   37  A    between atoms: C_70  and  N_71
REMARK   38  A    between atoms: N_77  and  C_78
REMARK   39  A    between atoms: C_78  and  C_79
REMARK   40  A    between atoms: N_80  and  C_81
REMARK   41  A    between atoms: C_81  and  C_82
REMARK   42  A    between atoms: C_81  and  C_135
REMARK   43  A    between atoms: C_85  and  C_86
REMARK   44  A    between atoms: N_87  and  C_88
REMARK   45  A    between atoms: C_88  and  C_89
REMARK   46  A    between atoms: C_88  and  C_128
REMARK   47  A    between atoms: N_90  and  C_91
REMARK   48  A    between atoms: C_91  and  C_92
REMARK   49  A    between atoms: N_93  and  C_94
REMARK   50  A    between atoms: C_94  and  C_95
REMARK   51  A    between atoms: C_94  and  C_121
REMARK   52  A    between atoms: N_96  and  C_97
REMARK   53  A    between atoms: C_97  and  C_98
REMARK   54  A    between atoms: C_97  and  C_115
REMARK   55  A    between atoms: N_99  and  C_100
REMARK   56  A    between atoms: C_100  and  C_101
REMARK   57  A    between atoms: C_100  and  C_109
REMARK   58  A    between atoms: N_102  and  C_103
REMARK   59  A    between atoms: C_103  and  C_104
REMARK   60  A    between atoms: C_104  and  C_105
REMARK   61  A    between atoms: C_105  and  C_106
REMARK   62  A    between atoms: C_109  and  C_110
REMARK   63  A    between atoms: C_110  and  C_111
REMARK   64  A    between atoms: C_111  and  C_112
REMARK   65  A    between atoms: C_115  and  C_116
REMARK   66  A    between atoms: C_116  and  C_117
REMARK   67  A    between atoms: C_117  and  C_118
REMARK   68  A    between atoms: C_121  and  C_122
REMARK   69  A    between atoms: C_122  and  C_123
REMARK   70  A    between atoms: C_123  and  C_124
REMARK   71  A    between atoms: C_135  and  C_136
REMARK   72  A    between atoms: C_136  and  C_137
REMARK   73  A    between atoms: C_137  and  C_138
REMARK                            x       y       z     vdW  Elec       q    Type
REMARK                         _______ _______ _______ _____ _____    ______ ____
ROOT
ATOM      1  C   UNK A   1      -5.857  -4.815   0.000  0.00  0.00    +0.000 C 
ENDROOT
BRANCH   1   2
ATOM      2  C   UNK A   1      -5.943  -3.994   0.000  0.00  0.00    +0.000 C 
ATOM      3  N   UNK A   1      -5.276  -3.509   0.000  0.00  0.00    +0.000 NA
ATOM      4  O   UNK A   1      -6.697  -3.659   0.000  0.00  0.00    +0.000 OA
BRANCH   3   5
ATOM      5  C   UNK A   1      -5.362  -2.689   0.000  0.00  0.00    +0.000 C 
BRANCH   5   6
ATOM      6  C   UNK A   1      -4.694  -2.204   0.000  0.00  0.00    +0.000 C 
ATOM      7  N   UNK A   1      -4.781  -1.383   0.000  0.00  0.00    +0.000 NA
ATOM      8  O   UNK A   1      -3.941  -2.540   0.000  0.00  0.00    +0.000 OA
BRANCH   7   9
ATOM      9  C   UNK A   1      -4.113  -0.899   0.000  0.00  0.00    +0.000 C 
BRANCH   9  10
ATOM     10  C   UNK A   1      -4.199  -0.078   0.000  0.00  0.00    +0.000 C 
ATOM     11  O   UNK A   1      -4.953   0.257   0.000  0.00  0.00    +0.000 OA
ATOM     12  N   UNK A   1      -3.532   0.407   0.000  0.00  0.00    +0.000 N 
ATOM     13  C   UNK A   1      -3.532   1.232   0.000  0.00  0.00    +0.000 C 
ATOM     14  C   UNK A   1      -2.747   1.487   0.000  0.00  0.00    +0.000 C 
ATOM     15  C   UNK A   1      -2.263   0.819   0.000  0.00  0.00    +0.000 C 
ATOM     16  C   UNK A   1      -2.747   0.152   0.000  0.00  0.00    +0.000 C 
BRANCH  13  17
ATOM     17  C   UNK A   1      -4.199   1.717   0.000  0.00  0.00    +0.000 C 
ATOM     18  N   UNK A   1      -4.113   2.537   0.000  0.00  0.00    +0.000 NA
ATOM     19  O   UNK A   1      -4.953   1.381   0.000  0.00  0.00    +0.000 OA
BRANCH  18  20
ATOM     20  C   UNK A   1      -4.781   3.022   0.000  0.00  0.00    +0.000 C 
BRANCH  20  21
ATOM     21  C   UNK A   1      -4.694   3.842   0.000  0.00  0.00    +0.000 C 
ATOM     22  N   UNK A   1      -5.362   4.327   0.000  0.00  0.00    +0.000 NA
ATOM     23  O   UNK A   1      -3.941   4.178   0.000  0.00  0.00    +0.000 OA
BRANCH  22  24
ATOM     24  C   UNK A   1      -6.115   3.992   0.000  0.00  0.00    +0.000 C 
BRANCH  24  25
ATOM     25  C   UNK A   1      -6.783   4.477   0.000  0.00  0.00    +0.000 C 
ATOM     26  N   UNK A   1      -7.537   4.141   0.000  0.00  0.00    +0.000 NA
ATOM     27  O   UNK A   1      -6.697   5.297   0.000  0.00  0.00    +0.000 OA
BRANCH  26  28
ATOM     28  C   UNK A   1      -8.204   4.626   0.000  0.00  0.00    +0.000 C 
BRANCH  28  29
ATOM     29  C   UNK A   1      -8.118   5.447   0.000  0.00  0.00    +0.000 C 
ATOM     30  N   UNK A   1      -8.785   5.931   0.000  0.00  0.00    +0.000 NA
ATOM     31  O   UNK A   1      -7.364   5.782   0.000  0.00  0.00    +0.000 OA
BRANCH  30  32
ATOM     32  C   UNK A   1      -8.699   6.752   0.000  0.00  0.00    +0.000 C 
BRANCH  32  33
ATOM     33  C   UNK A   1      -7.945   7.088   0.000  0.00  0.00    +0.000 C 
ATOM     34  N   UNK A   1      -7.278   6.603   0.000  0.00  0.00    +0.000 NA
ATOM     35  O   UNK A   1      -7.859   7.908   0.000  0.00  0.00    +0.000 OA
BRANCH  34  36
ATOM     36  C   UNK A   1      -6.524   6.938   0.000  0.00  0.00    +0.000 C 
BRANCH  36  37
ATOM     37  C   UNK A   1      -6.438   7.759   0.000  0.00  0.00    +0.000 C 
ATOM     38  N   UNK A   1      -5.684   8.094   0.000  0.00  0.00    +0.000 NA
ATOM     39  O   UNK A   1      -7.106   8.244   0.000  0.00  0.00    +0.000 OA
BRANCH  38  40
ATOM     40  C   UNK A   1      -5.017   7.609   0.000  0.00  0.00    +0.000 C 
BRANCH  40  41
ATOM     41  C   UNK A   1      -4.263   7.945   0.000  0.00  0.00    +0.000 C 
BRANCH  41  42
ATOM     42  C   UNK A   1      -3.596   7.460   0.000  0.00  0.00    +0.000 C 
BRANCH  42  43
ATOM     43  C   UNK A   1      -2.842   7.795   0.000  0.00  0.00    +0.000 C 
ATOM     44  N   UNK A   1      -2.175   7.311   0.000  0.00  0.00    +0.000 NA
ENDBRANCH  42  43
ENDBRANCH  41  42
ENDBRANCH  40  41
ENDBRANCH  38  40
ENDBRANCH  36  37
BRANCH  36  45
ATOM     45  C   UNK A   1      -5.857   6.453   0.000  0.00  0.00    +0.000 C 
BRANCH  45  46
ATOM     46  C   UNK A   1      -5.103   6.789   0.000  0.00  0.00    +0.000 C 
BRANCH  46  47
ATOM     47  C   UNK A   1      -4.436   6.304   0.000  0.00  0.00    +0.000 C 
BRANCH  47  48
ATOM     48  C   UNK A   1      -3.682   6.639   0.000  0.00  0.00    +0.000 C 
ATOM     49  N   UNK A   1      -3.015   6.154   0.000  0.00  0.00    +0.000 NA
ENDBRANCH  47  48
ENDBRANCH  46  47
ENDBRANCH  45  46
ENDBRANCH  36  45
ENDBRANCH  34  36
ENDBRANCH  32  33
BRANCH  32  50
ATOM     50  C   UNK A   1      -9.367   7.237   0.000  0.00  0.00    +0.000 C 
BRANCH  50  51
ATOM     51  C   UNK A   1     -10.120   6.901   0.000  0.00  0.00    +0.000 C 
BRANCH  51  52
ATOM     52  C   UNK A   1     -10.788   7.386   0.000  0.00  0.00    +0.000 C 
BRANCH  52  53
ATOM     53  C   UNK A   1     -11.541   7.051   0.000  0.00  0.00    +0.000 C 
ATOM     54  N   UNK A   1     -12.209   7.536   0.000  0.00  0.00    +0.000 NA
ENDBRANCH  52  53
ENDBRANCH  51  52
ENDBRANCH  50  51
ENDBRANCH  32  50
ENDBRANCH  30  32
ENDBRANCH  28  29
BRANCH  28  55
ATOM     55  C   UNK A   1      -8.958   4.290   0.000  0.00  0.00    +0.000 C 
BRANCH  55  56
ATOM     56  C   UNK A   1      -9.625   4.775   0.000  0.00  0.00    +0.000 C 
BRANCH  56  57
ATOM     57  C   UNK A   1     -10.379   4.440   0.000  0.00  0.00    +0.000 C 
BRANCH  57  58
ATOM     58  C   UNK A   1     -11.046   4.925   0.000  0.00  0.00    +0.000 C 
ATOM     59  N   UNK A   1     -11.800   4.589   0.000  0.00  0.00    +0.000 NA
ENDBRANCH  57  58
ENDBRANCH  56  57
ENDBRANCH  55  56
ENDBRANCH  28  55
ENDBRANCH  26  28
ENDBRANCH  24  25
ENDBRANCH  22  24
ENDBRANCH  20  21
BRANCH  20  60
ATOM     60  C   UNK A   1      -5.534   2.686   0.000  0.00  0.00    +0.000 C 
ATOM     61  C   UNK A   1      -6.202   3.171   0.000  0.00  0.00    +0.000 C 
ATOM     62  C   UNK A   1      -5.621   1.866   0.000  0.00  0.00    +0.000 C 
ENDBRANCH  20  60
ENDBRANCH  18  20
ENDBRANCH  13  17
ENDBRANCH   9  10
BRANCH   9  63
ATOM     63  C   UNK A   1      -3.360  -1.234   0.000  0.00  0.00    +0.000 C 
BRANCH  63  64
ATOM     64  C   UNK A   1      -3.273  -2.055   0.000  0.00  0.00    +0.000 C 
BRANCH  64  65
ATOM     65  C   UNK A   1      -2.520  -2.390   0.000  0.00  0.00    +0.000 C 
BRANCH  65  66
ATOM     66  C   UNK A   1      -2.433  -3.211   0.000  0.00  0.00    +0.000 C 
ATOM     67  N   UNK A   1      -1.680  -3.546   0.000  0.00  0.00    +0.000 NA
ENDBRANCH  65  66
ENDBRANCH  64  65
ENDBRANCH  63  64
ENDBRANCH   9  63
ENDBRANCH   7   9
ENDBRANCH   5   6
ENDBRANCH   3   5
ENDBRANCH   1   2
BRANCH   1  68
ATOM     68  N   UNK A   1      -5.103  -5.150   0.000  0.00  0.00    +0.000 NA
ATOM     69  C   UNK A   1      -5.017  -5.971   0.000  0.00  0.00    +0.000 C 
ATOM     70  O   UNK A   1      -5.684  -6.456   0.000  0.00  0.00    +0.000 OA
BRANCH  69  71
ATOM     71  C   UNK A   1      -4.263  -6.306   0.000  0.00  0.00    +0.000 C 
BRANCH  71  72
ATOM     72  N   UNK A   1      -3.596  -5.822   0.000  0.00  0.00    +0.000 NA
ATOM     73  C   UNK A   1      -2.842  -6.157   0.000  0.00  0.00    +0.000 C 
ATOM     74  O   UNK A   1      -2.756  -6.978   0.000  0.00  0.00    +0.000 OA
BRANCH  73  75
ATOM     75  C   UNK A   1      -2.175  -5.672   0.000  0.00  0.00    +0.000 C 
BRANCH  75  76
ATOM     76  N   UNK A   1      -1.421  -6.008   0.000  0.00  0.00    +0.000 NA
ATOM     77  C   UNK A   1      -0.754  -5.523   0.000  0.00  0.00    +0.000 C 
ATOM     78  O   UNK A   1      -0.840  -4.702   0.000  0.00  0.00    +0.000 OA
BRANCH  77  79
ATOM     79  C   UNK A   1       0.000  -5.858   0.000  0.00  0.00    +0.000 C 
BRANCH  79  80
ATOM     80  N   UNK A   1       0.667  -5.373   0.000  0.00  0.00    +0.000 NA
ATOM     81  C   UNK A   1       1.421  -5.709   0.000  0.00  0.00    +0.000 C 
ATOM     82  O   UNK A   1       1.507  -6.529   0.000  0.00  0.00    +0.000 OA
BRANCH  81  83
ATOM     83  C   UNK A   1       2.088  -5.224   0.000  0.00  0.00    +0.000 C 
BRANCH  83  84
ATOM     84  N   UNK A   1       2.842  -5.560   0.000  0.00  0.00    +0.000 NA
ATOM     85  C   UNK A   1       3.510  -5.075   0.000  0.00  0.00    +0.000 C 
ATOM     86  O   UNK A   1       3.423  -4.254   0.000  0.00  0.00    +0.000 OA
BRANCH  85  87
ATOM     87  C   UNK A   1       4.263  -5.410   0.000  0.00  0.00    +0.000 C 
BRANCH  87  88
ATOM     88  N   UNK A   1       4.931  -4.925   0.000  0.00  0.00    +0.000 NA
ATOM     89  C   UNK A   1       5.684  -5.261   0.000  0.00  0.00    +0.000 C 
ATOM     90  O   UNK A   1       5.771  -6.081   0.000  0.00  0.00    +0.000 OA
BRANCH  89  91
ATOM     91  C   UNK A   1       6.352  -4.776   0.000  0.00  0.00    +0.000 C 
BRANCH  91  92
ATOM     92  N   UNK A   1       7.105  -5.111   0.000  0.00  0.00    +0.000 NA
ATOM     93  C   UNK A   1       7.773  -4.627   0.000  0.00  0.00    +0.000 C 
ATOM     94  O   UNK A   1       7.687  -3.806   0.000  0.00  0.00    +0.000 OA
BRANCH  93  95
ATOM     95  C   UNK A   1       8.527  -4.962   0.000  0.00  0.00    +0.000 C 
BRANCH  95  96
ATOM     96  N   UNK A   1       8.613  -5.782   0.000  0.00  0.00    +0.000 NA
ATOM     97  C   UNK A   0       7.945  -6.268   0.000  0.00  0.00    +0.000 C 
ATOM     98  O   UNK A   0       7.192  -5.932   0.000  0.00  0.00    +0.000 OA
BRANCH  97  99
ATOM     99  C   UNK A   0       8.032  -7.088   0.000  0.00  0.00    +0.000 C 
BRANCH  99 100
ATOM    100  C   UNK A   0       7.364  -7.573   0.000  0.00  0.00    +0.000 C 
ATOM    101  N   UNK A   0       6.611  -7.237   0.000  0.00  0.00    +0.000 NA
ENDBRANCH  99 100
ENDBRANCH  97  99
ENDBRANCH  95  96
BRANCH  95 102
ATOM    102  C   UNK A   1       9.194  -4.477   0.000  0.00  0.00    +0.000 C 
BRANCH 102 103
ATOM    103  C   UNK A   1       9.948  -4.813   0.000  0.00  0.00    +0.000 A 
ATOM    104  C   UNK A   1      10.034  -5.633   0.000  0.00  0.00    +0.000 A 
ATOM    105  C   UNK A   1      10.787  -5.969   0.000  0.00  0.00    +0.000 A 
ATOM    106  C   UNK A   1      11.455  -5.484   0.000  0.00  0.00    +0.000 A 
ATOM    107  C   UNK A   1      11.369  -4.663   0.000  0.00  0.00    +0.000 A 
ATOM    108  C   UNK A   1      10.615  -4.328   0.000  0.00  0.00    +0.000 A 
ATOM    109  O   UNK A   1      12.209  -5.819   0.000  0.00  0.00    +0.000 OA
ENDBRANCH 102 103
ENDBRANCH  95 102
ENDBRANCH  93  95
ENDBRANCH  91  92
BRANCH  91 110
ATOM    110  C   UNK A   1       6.266  -3.955   0.000  0.00  0.00    +0.000 C 
ATOM    111  O   UNK A   1       6.933  -3.470   0.000  0.00  0.00    +0.000 OA
ENDBRANCH  91 110
ENDBRANCH  89  91
ENDBRANCH  87  88
BRANCH  87 112
ATOM    112  C   UNK A   1       4.349  -6.231   0.000  0.00  0.00    +0.000 C 
BRANCH 112 113
ATOM    113  C   UNK A   1       5.103  -6.566   0.000  0.00  0.00    +0.000 C 
BRANCH 113 114
ATOM    114  S   UNK A   1       5.189  -7.387   0.000  0.00  0.00    +0.000 S 
ATOM    115  C   UNK A   1       4.522  -7.872   0.000  0.00  0.00    +0.000 C 
ENDBRANCH 113 114
ENDBRANCH 112 113
ENDBRANCH  87 112
ENDBRANCH  85  87
ENDBRANCH  83  84
BRANCH  83 116
ATOM    116  C   UNK A   1       2.002  -4.404   0.000  0.00  0.00    +0.000 C 
BRANCH 116 117
ATOM    117  C   UNK A   1       1.249  -4.068   0.000  0.00  0.00    +0.000 C 
BRANCH 117 118
ATOM    118  C   UNK A   1       1.162  -3.248   0.000  0.00  0.00    +0.000 C 
ATOM    119  O   UNK A   1       0.409  -2.912   0.000  0.00  0.00    +0.000 OA
ATOM    120  O   UNK A   1       1.830  -2.763   0.000  0.00  0.00    +0.000 OA
ENDBRANCH 117 118
ENDBRANCH 116 117
ENDBRANCH  83 116
ENDBRANCH  81  83
ENDBRANCH  79  80
BRANCH  79 121
ATOM    121  C   UNK A   1       0.086  -6.679   0.000  0.00  0.00    +0.000 C 
BRANCH 121 122
ATOM    122  C   UNK A   1      -0.581  -7.164   0.000  0.00  0.00    +0.000 A 
ATOM    123  C   UNK A   1      -1.366  -6.909   0.000  0.00  0.00    +0.000 A 
ATOM    124  N   UNK A   1      -1.851  -7.576   0.000  0.00  0.00    +0.000 NA
ATOM    125  C   UNK A   1      -1.366  -8.244   0.000  0.00  0.00    +0.000 A 
ATOM    126  N   UNK A   1      -0.581  -7.989   0.000  0.00  0.00    +0.000 NA
ENDBRANCH 121 122
ENDBRANCH  79 121
ENDBRANCH  77  79
ENDBRANCH  75  76
BRANCH  75 127
ATOM    127  C   UNK A   1      -2.261  -4.852   0.000  0.00  0.00    +0.000 C 
BRANCH 127 128
ATOM    128  C   UNK A   1      -3.015  -4.516   0.000  0.00  0.00    +0.000 A 
ATOM    129  C   UNK A   1      -3.101  -3.696   0.000  0.00  0.00    +0.000 A 
ATOM    130  C   UNK A   1      -3.854  -3.360   0.000  0.00  0.00    +0.000 A 
ATOM    131  C   UNK A   1      -4.522  -3.845   0.000  0.00  0.00    +0.000 A 
ATOM    132  C   UNK A   1      -4.436  -4.665   0.000  0.00  0.00    +0.000 A 
ATOM    133  C   UNK A   1      -3.682  -5.001   0.000  0.00  0.00    +0.000 A 
ENDBRANCH 127 128
ENDBRANCH  75 127
ENDBRANCH  73  75
ENDBRANCH  71  72
BRANCH  71 134
ATOM    134  C   UNK A   1      -4.177  -7.127   0.000  0.00  0.00    +0.000 C 
BRANCH 134 135
ATOM    135  C   UNK A   1      -4.845  -7.612   0.000  0.00  0.00    +0.000 C 
BRANCH 135 136
ATOM    136  C   UNK A   1      -5.598  -7.276   0.000  0.00  0.00    +0.000 C 
BRANCH 136 137
ATOM    137  N   UNK A   1      -6.266  -7.761   0.000  0.00  0.00    +0.000 NA
ATOM    138  C   UNK A   1      -7.019  -7.426   0.000  0.00  0.00    +0.000 C 
ATOM    139  N   UNK A   1      -7.106  -6.605   0.000  0.00  0.00    +0.000 NA
ATOM    140  N   UNK A   1      -7.687  -7.911   0.000  0.00  0.00    +0.000 NA
ENDBRANCH 136 137
ENDBRANCH 135 136
ENDBRANCH 134 135
ENDBRANCH  71 134
ENDBRANCH  69  71
ENDBRANCH   1  68
BRANCH   1 141
ATOM    141  C   UNK A   1      -6.524  -5.300   0.000  0.00  0.00    +0.000 C 
BRANCH 141 142
ATOM    142  C   UNK A   1      -7.278  -4.964   0.000  0.00  0.00    +0.000 A 
ATOM    143  C   UNK A   1      -7.992  -5.377   0.000  0.00  0.00    +0.000 A 
ATOM    144  C   UNK A   1      -8.605  -4.825   0.000  0.00  0.00    +0.000 A 
ATOM    145  N   UNK A   1      -8.270  -4.071   0.000  0.00  0.00    +0.000 NA
ATOM    146  C   UNK A   1      -7.449  -4.157   0.000  0.00  0.00    +0.000 A 
ATOM    147  C   UNK A   1      -9.390  -5.080   0.000  0.00  0.00    +0.000 A 
ATOM    148  C   UNK A   1      -9.562  -5.886   0.000  0.00  0.00    +0.000 A 
ATOM    149  C   UNK A   1      -8.948  -6.439   0.000  0.00  0.00    +0.000 A 
ATOM    150  C   UNK A   1      -8.164  -6.184   0.000  0.00  0.00    +0.000 A 
ENDBRANCH 141 142
ENDBRANCH   1 141
TORSDOF 73
