REMARK  Name = 
REMARK  1 active torsions:
REMARK  status: ('A' for Active; 'I' for Inactive)
REMARK    1  A    between atoms: C_5  and  N_12
REMARK                            x       y       z     vdW  Elec       q    Type
REMARK                         _______ _______ _______ _____ _____    ______ ____
ROOT
ATOM      1  C   UNL     1      -0.771  -1.247   0.000  0.00  0.00    +0.000 A 
ATOM      2  N   UNL     1       0.053  -1.247   0.000  0.00  0.00    +0.000 NA
ATOM      3  C   UNL     1       0.308  -0.462   0.000  0.00  0.00    +0.000 A 
ATOM      4  S   UNL     1      -0.359   0.023   0.000  0.00  0.00    +0.000 S 
ATOM      5  C   UNL     1      -1.026  -0.462   0.000  0.00  0.00    +0.000 A 
ATOM      6  N   UNL     1       1.093  -0.207   0.000  0.00  0.00    +0.000 N 
ATOM      7  C   UNL     1       1.758  -0.689   0.000  0.00  0.00    +0.000 C 
ATOM      8  C   UNL     1       2.425  -0.204   0.000  0.00  0.00    +0.000 C 
ATOM      9  N   UNL     1       2.170   0.580   0.000  0.00  0.00    +0.000 NA
ATOM     10  C   UNL     1       1.345   0.580   0.000  0.00  0.00    +0.000 C 
ATOM     11  O   UNL     1       0.859   1.247   0.000  0.00  0.00    +0.000 OA
ENDROOT
BRANCH   5  12
ATOM     12  N   UNL     1      -1.812  -0.207   0.000  0.00  0.00    +0.000 N 
ATOM     13  O   UNL     1      -2.425  -0.759   0.000  0.00  0.00    +0.000 OA
ATOM     14  O   UNL     1      -1.984   0.600   0.000  0.00  0.00    +0.000 OA
ENDBRANCH   5  12
TORSDOF 1
