REMARK  Name = 
REMARK  3 active torsions:
REMARK  status: ('A' for Active; 'I' for Inactive)
REMARK    1  A    between atoms: C_2  and  C_5
REMARK    2  A    between atoms: C_10  and  N_11
REMARK    3  A    between atoms: C_17  and  C_18
REMARK                            x       y       z     vdW  Elec       q    Type
REMARK                         _______ _______ _______ _____ _____    ______ ____
ROOT
ATOM      1  N   UNL     1      -0.751   0.143   0.000  0.00  0.00    +0.000 NA
ATOM      2  C   UNL     1      -0.036  -0.269   0.000  0.00  0.00    +0.000 A 
ATOM      3  N   UNL     1       0.678   0.143   0.000  0.00  0.00    +0.000 NA
ATOM      4  C   UNL     1       1.393  -0.269   0.000  0.00  0.00    +0.000 A 
ATOM      5  C   UNL     1       1.393  -1.094   0.000  0.00  0.00    +0.000 A 
ATOM      6  N   UNL     1      -0.036  -1.094   0.000  0.00  0.00    +0.000 NA
ATOM      7  C   UNL     1       0.678  -1.506   0.000  0.00  0.00    +0.000 A 
ENDROOT
BRANCH   7   8
ATOM      8  C   UNL     1       0.678  -2.331   0.000  0.00  0.00    +0.000 A 
ATOM      9  S   UNL     1       1.346  -2.816   0.000  0.00  0.00    +0.000 S 
ATOM     10  C   UNL     1       0.011  -2.816   0.000  0.00  0.00    +0.000 A 
ATOM     11  C   UNL     1      -0.774  -2.561   0.000  0.00  0.00    +0.000 C 
ATOM     12  N   UNL     1       0.266  -3.601   0.000  0.00  0.00    +0.000 NA
ATOM     13  C   UNL     1       1.091  -3.601   0.000  0.00  0.00    +0.000 A 
ATOM     14  C   UNL     1       1.576  -4.268   0.000  0.00  0.00    +0.000 C 
ENDBRANCH   7   8
BRANCH   1  20
ATOM     15  C   UNL     1      -0.751   2.619   0.000  0.00  0.00    +0.000 A 
ATOM     16  C   UNL     1      -0.036   2.206   0.000  0.00  0.00    +0.000 A 
ATOM     17  C   UNL     1      -0.036   1.381   0.000  0.00  0.00    +0.000 A 
ATOM     18  C   UNL     1      -1.465   2.206   0.000  0.00  0.00    +0.000 A 
ATOM     19  C   UNL     1      -1.465   1.381   0.000  0.00  0.00    +0.000 A 
ATOM     20  C   UNL     1      -0.751   0.969   0.000  0.00  0.00    +0.000 A 
BRANCH  15  22
ATOM     21  F   UNL     1      -0.751   4.269   0.000  0.00  0.00    +0.000 F 
ATOM     22  C   UNL     1      -0.751   3.443   0.000  0.00  0.00    +0.000 C 
ATOM     23  F   UNL     1      -1.576   3.443   0.000  0.00  0.00    +0.000 F 
ATOM     24  F   UNL     1       0.074   3.443   0.000  0.00  0.00    +0.000 F 
ENDBRANCH  15  22
ENDBRANCH   1  20
TORSDOF 3
