REMARK  Name = 
REMARK  15 active torsions:
REMARK  status: ('A' for Active; 'I' for Inactive)
REMARK    1  A    between atoms: C_1  and  O_12
REMARK    2  A    between atoms: C_6  and  C_10
REMARK    3  A    between atoms: O_12  and  C_15
REMARK    4  A    between atoms: C_18  and  O_37
REMARK    5  A    between atoms: C_19  and  O_36
REMARK    6  A    between atoms: C_30  and  C_45
REMARK    7  A    between atoms: C_32  and  C_59
REMARK    8  A    between atoms: C_33  and  C_35
REMARK    9  A    between atoms: C_35  and  O_36
REMARK   10  A    between atoms: C_35  and  C_58
REMARK   11  A    between atoms: O_37  and  C_38
REMARK   12  A    between atoms: O_44  and  C_45
REMARK   13  A    between atoms: O_44  and  C_69
REMARK   14  A    between atoms: C_48  and  C_60
REMARK   15  A    between atoms: C_58  and  C_60
REMARK                            x       y       z     vdW  Elec       q    Type
REMARK                         _______ _______ _______ _____ _____    ______ ____
ROOT
ATOM      1  C   UNL     1       2.468  -1.567   0.000  0.00  0.00    +0.000 C 
ATOM      2  C   UNL     1       1.756  -1.984   0.000  0.00  0.00    +0.000 C 
ATOM      3  C   UNL     1       0.331  -1.996   0.000  0.00  0.00    +0.000 C 
ATOM      4  C   UNL     1       1.039  -1.575   0.000  0.00  0.00    +0.000 C 
ATOM      5  C   UNL     1       2.468  -0.742   0.000  0.00  0.00    +0.000 C 
ATOM      6  C   UNL     1       0.339  -2.821   0.000  0.00  0.00    +0.000 C 
ATOM      7  C   UNL     1      -0.369  -3.238   0.000  0.00  0.00    +0.000 C 
ATOM      8  C   UNL     1       1.743  -0.330   0.000  0.00  0.00    +0.000 C 
ATOM      9  C   UNL     1       3.252  -0.488   0.000  0.00  0.00    +0.000 C 
ATOM     10  C   UNL     1       1.026  -0.747   0.000  0.00  0.00    +0.000 C 
ATOM     11  C   UNL     1      -1.086  -2.834   0.000  0.00  0.00    +0.000 C 
ATOM     12  C   UNL     1       3.252  -1.825   0.000  0.00  0.00    +0.000 C 
ATOM     13  C   UNL     1       1.764  -2.809   0.000  0.00  0.00    +0.000 C 
ATOM     14  C   UNL     1      -0.382  -1.584   0.000  0.00  0.00    +0.000 C 
ATOM     15  C   UNL     1       1.056  -3.226   0.000  0.00  0.00    +0.000 C 
ATOM     16  C   UNL     1       3.735  -1.159   0.000  0.00  0.00    +0.000 C 
ATOM     17  C   UNL     1      -1.094  -2.009   0.000  0.00  0.00    +0.000 C 
ATOM     18  C   UNL     1       2.468  -2.392   0.000  0.00  0.00    +0.000 C 
ATOM     19  O   UNL     1       1.739   0.495   0.000  0.00  0.00    +0.000 OA
ATOM     20  C   UNL     1       1.747  -1.155   0.000  0.00  0.00    +0.000 C 
ATOM     21  C   UNL     1       0.318  -1.167   0.000  0.00  0.00    +0.000 C 
ATOM     22  C   UNL     1      -0.362  -4.063   0.000  0.00  0.00    +0.000 C 
ATOM     23  C   UNL     1      -1.086  -3.646   0.000  0.00  0.00    +0.000 C 
ENDROOT
BRANCH   9  24
ATOM     24  C   UNL     1       3.243   0.337   0.000  0.00  0.00    +0.000 C 
ATOM     25  C   UNL     1       3.231   1.162   0.000  0.00  0.00    +0.000 C 
BRANCH  24  26
ATOM     26  O   UNL     1       2.522   0.741   0.000  0.00  0.00    +0.000 OA
BRANCH  26  27
ATOM     27  C   UNL     1       2.527   1.566   0.000  0.00  0.00    +0.000 C 
ATOM     28  C   UNL     1       1.814   1.974   0.000  0.00  0.00    +0.000 C 
ATOM     29  C   UNL     1       1.810   2.795   0.000  0.00  0.00    +0.000 C 
ATOM     30  O   UNL     1       3.243   1.974   0.000  0.00  0.00    +0.000 OA
ATOM     31  C   UNL     1       2.518   3.212   0.000  0.00  0.00    +0.000 C 
ATOM     32  C   UNL     1       3.235   2.799   0.000  0.00  0.00    +0.000 C 
ATOM     33  O   UNL     1       1.097   1.558   0.000  0.00  0.00    +0.000 OA
ATOM     34  O   UNL     1       1.093   3.203   0.000  0.00  0.00    +0.000 OA
ATOM     35  O   UNL     1       2.514   4.037   0.000  0.00  0.00    +0.000 OA
BRANCH  32  36
ATOM     36  C   UNL     1       3.947   3.216   0.000  0.00  0.00    +0.000 C 
BRANCH  36  37
ATOM     37  O   UNL     1       3.939   4.049   0.000  0.00  0.00    +0.000 OA
BRANCH  37  38
ATOM     38  C   UNL     1       4.649   4.469   0.000  0.00  0.00    +0.000 C 
ATOM     39  O   UNL     1       5.370   4.058   0.000  0.00  0.00    +0.000 OA
ATOM     40  C   UNL     1       6.078   4.474   0.000  0.00  0.00    +0.000 C 
ATOM     41  C   UNL     1       6.074   5.299   0.000  0.00  0.00    +0.000 C 
ATOM     42  C   UNL     1       5.355   5.707   0.000  0.00  0.00    +0.000 C 
ATOM     43  C   UNL     1       4.641   5.289   0.000  0.00  0.00    +0.000 C 
ATOM     44  O   UNL     1       3.923   5.696   0.000  0.00  0.00    +0.000 OA
ATOM     45  O   UNL     1       5.350   6.532   0.000  0.00  0.00    +0.000 OA
ATOM     46  O   UNL     1       6.785   5.716   0.000  0.00  0.00    +0.000 OA
ENDBRANCH  37  38
ENDBRANCH  36  37
ENDBRANCH  32  36
ENDBRANCH  26  27
ENDBRANCH  24  26
BRANCH  24  47
ATOM     47  C   UNL     1       3.951   0.762   0.000  0.00  0.00    +0.000 C 
BRANCH  47  48
ATOM     48  C   UNL     1       4.672   0.358   0.000  0.00  0.00    +0.000 C 
BRANCH  48  50
ATOM     49  C   UNL     1       6.102   0.379   0.000  0.00  0.00    +0.000 C 
ATOM     50  C   UNL     1       5.381   0.778   0.000  0.00  0.00    +0.000 C 
ATOM     51  C   UNL     1       6.110  -0.446   0.000  0.00  0.00    +0.000 C 
ATOM     52  C   UNL     1       6.810   0.799   0.000  0.00  0.00    +0.000 C 
ENDBRANCH  48  50
ENDBRANCH  47  48
ENDBRANCH  24  47
ENDBRANCH   9  24
BRANCH  11  53
ATOM     53  O   UNL     1      -1.798  -3.255   0.000  0.00  0.00    +0.000 OA
BRANCH  53  55
ATOM     54  C   UNL     1      -3.232  -3.238   0.000  0.00  0.00    +0.000 C 
ATOM     55  C   UNL     1      -2.515  -2.834   0.000  0.00  0.00    +0.000 C 
ATOM     56  C   UNL     1      -3.936  -2.817   0.000  0.00  0.00    +0.000 C 
ATOM     57  O   UNL     1      -2.503  -2.009   0.000  0.00  0.00    +0.000 OA
ATOM     58  C   UNL     1      -3.932  -1.996   0.000  0.00  0.00    +0.000 C 
ATOM     59  C   UNL     1      -3.215  -1.592   0.000  0.00  0.00    +0.000 C 
ATOM     60  O   UNL     1      -4.657  -3.221   0.000  0.00  0.00    +0.000 OA
ATOM     61  O   UNL     1      -4.644  -1.580   0.000  0.00  0.00    +0.000 OA
BRANCH  59  62
ATOM     62  C   UNL     1      -3.207  -0.767   0.000  0.00  0.00    +0.000 C 
ATOM     63  O   UNL     1      -3.919  -0.351   0.000  0.00  0.00    +0.000 OA
ENDBRANCH  59  62
BRANCH  54  64
ATOM     64  O   UNL     1      -3.240  -4.063   0.000  0.00  0.00    +0.000 OA
BRANCH  64  65
ATOM     65  C   UNL     1      -3.956  -4.474   0.000  0.00  0.00    +0.000 C 
ATOM     66  C   UNL     1      -3.956  -5.299   0.000  0.00  0.00    +0.000 C 
ATOM     67  C   UNL     1      -4.668  -5.707   0.000  0.00  0.00    +0.000 C 
ATOM     68  O   UNL     1      -4.668  -4.057   0.000  0.00  0.00    +0.000 OA
ATOM     69  C   UNL     1      -5.381  -5.299   0.000  0.00  0.00    +0.000 C 
ATOM     70  C   UNL     1      -5.381  -4.474   0.000  0.00  0.00    +0.000 C 
ATOM     71  O   UNL     1      -3.243  -5.711   0.000  0.00  0.00    +0.000 OA
ATOM     72  O   UNL     1      -4.668  -6.532   0.000  0.00  0.00    +0.000 OA
ATOM     73  O   UNL     1      -6.093  -5.711   0.000  0.00  0.00    +0.000 OA
BRANCH  70  74
ATOM     74  C   UNL     1      -6.093  -4.061   0.000  0.00  0.00    +0.000 C 
ATOM     75  O   UNL     1      -6.810  -4.478   0.000  0.00  0.00    +0.000 OA
ENDBRANCH  70  74
ENDBRANCH  64  65
ENDBRANCH  54  64
ENDBRANCH  53  55
ENDBRANCH  11  53
TORSDOF 15
