REMARK  Name = 
REMARK  1 active torsions:
REMARK  status: ('A' for Active; 'I' for Inactive)
REMARK    1  A    between atoms: C_5  and  C_8
REMARK                            x       y       z     vdW  Elec       q    Type
REMARK                         _______ _______ _______ _____ _____    ______ ____
ROOT
ATOM      1  C   UNL     1       0.715  -0.412   0.000  0.00  0.00    +0.000 C 
ATOM      2  C   UNL     1       0.715  -1.238   0.000  0.00  0.00    +0.000 A 
ATOM      3  C   UNL     1       1.429  -1.650   0.000  0.00  0.00    +0.000 A 
ATOM      4  C   UNL     1       1.429  -2.475   0.000  0.00  0.00    +0.000 A 
ATOM      5  C   UNL     1       0.715  -2.888   0.000  0.00  0.00    +0.000 A 
ATOM      6  N   UNL     1       0.000  -2.475   0.000  0.00  0.00    +0.000 NA
ATOM      7  C   UNL     1       0.000  -1.650   0.000  0.00  0.00    +0.000 A 
ENDROOT
BRANCH   5   8
ATOM      8  C   UNL     1       0.715  -3.712   0.000  0.00  0.00    +0.000 A 
ATOM      9  C   UNL     1       1.429  -4.125   0.000  0.00  0.00    +0.000 A 
ATOM     10  C   UNL     1       1.429  -4.950   0.000  0.00  0.00    +0.000 A 
ATOM     11  C   UNL     1       0.715  -5.362   0.000  0.00  0.00    +0.000 A 
ATOM     12  C   UNL     1       0.000  -4.950   0.000  0.00  0.00    +0.000 A 
ATOM     13  N   UNL     1       0.000  -4.125   0.000  0.00  0.00    +0.000 NA
ATOM     14  C   UNL     1       0.715  -6.188   0.000  0.00  0.00    +0.000 C 
ENDBRANCH   5   8
TORSDOF 1
