REMARK  Name = 
REMARK  9 active torsions:
REMARK  status: ('A' for Active; 'I' for Inactive)
REMARK    1  A    between atoms: N_4  and  C_5
REMARK    2  A    between atoms: C_6  and  C_26
REMARK    3  A    between atoms: C_14  and  O_15
REMARK    4  A    between atoms: O_15  and  C_16
REMARK    5  A    between atoms: C_16  and  C_17
REMARK    6  A    between atoms: C_17  and  C_18
REMARK    7  A    between atoms: C_18  and  C_21
REMARK    8  A    between atoms: N_28  and  S_29
REMARK    9  A    between atoms: S_29  and  C_32
REMARK                            x       y       z     vdW  Elec       q    Type
REMARK                         _______ _______ _______ _____ _____    ______ ____
ROOT
ATOM      1  C   UNL     1      -2.201  -4.291   0.000  0.00  0.00    +0.000 A 
ATOM      2  C   UNL     1      -1.739  -3.607   0.000  0.00  0.00    +0.000 A 
ATOM      3  C   UNL     1      -0.916  -3.664   0.000  0.00  0.00    +0.000 A 
ATOM      4  C   UNL     1      -0.555  -4.406   0.000  0.00  0.00    +0.000 A 
ATOM      5  C   UNL     1      -1.016  -5.090   0.000  0.00  0.00    +0.000 A 
ATOM      6  N   UNL     1      -1.839  -5.032   0.000  0.00  0.00    +0.000 NA
ATOM      7  N   UNL     1      -0.654  -5.831   0.000  0.00  0.00    +0.000 N 
ATOM      8  C   UNL     1       0.158  -5.974   0.000  0.00  0.00    +0.000 A 
ATOM      9  C   UNL     1       0.273  -6.791   0.000  0.00  0.00    +0.000 A 
ATOM     10  C   UNL     1      -0.469  -7.153   0.000  0.00  0.00    +0.000 A 
ATOM     11  N   UNL     1      -1.042  -6.560   0.000  0.00  0.00    +0.000 NA
ENDROOT
BRANCH   1  15
ATOM     12  C   UNL     1      -4.893  -3.203   0.000  0.00  0.00    +0.000 C 
ATOM     13  C   UNL     1      -4.261  -3.733   0.000  0.00  0.00    +0.000 C 
ATOM     14  C   UNL     1      -3.461  -3.533   0.000  0.00  0.00    +0.000 C 
ATOM     15  N   UNL     1      -3.024  -4.233   0.000  0.00  0.00    +0.000 N 
ATOM     16  C   UNL     1      -3.554  -4.865   0.000  0.00  0.00    +0.000 C 
ATOM     17  C   UNL     1      -2.870  -5.326   0.000  0.00  0.00    +0.000 C 
ATOM     18  C   UNL     1      -3.941  -5.593   0.000  0.00  0.00    +0.000 C 
ATOM     19  C   UNL     1      -4.319  -4.556   0.000  0.00  0.00    +0.000 C 
ENDBRANCH   1  15
BRANCH   2  20
ATOM     20  C   UNL     1      -2.101  -2.865   0.000  0.00  0.00    +0.000 C 
ATOM     21  O   UNL     1      -1.640  -2.181   0.000  0.00  0.00    +0.000 OA
ATOM     22  N   UNL     1      -2.924  -2.808   0.000  0.00  0.00    +0.000 NA
BRANCH  22  23
ATOM     23  S   UNL     1      -3.286  -2.066   0.000  0.00  0.00    +0.000 S 
ATOM     24  O   UNL     1      -2.544  -1.704   0.000  0.00  0.00    +0.000 OA
ATOM     25  O   UNL     1      -4.027  -2.428   0.000  0.00  0.00    +0.000 OA
BRANCH  23  26
ATOM     26  C   UNL     1      -3.647  -1.325   0.000  0.00  0.00    +0.000 A 
ATOM     27  C   UNL     1      -4.470  -1.267   0.000  0.00  0.00    +0.000 A 
ATOM     28  C   UNL     1      -4.832  -0.525   0.000  0.00  0.00    +0.000 A 
ATOM     29  C   UNL     1      -4.371   0.158   0.000  0.00  0.00    +0.000 A 
ATOM     30  C   UNL     1      -3.548   0.101   0.000  0.00  0.00    +0.000 A 
ATOM     31  C   UNL     1      -3.186  -0.641   0.000  0.00  0.00    +0.000 A 
ENDBRANCH  23  26
ENDBRANCH  22  23
ENDBRANCH   2  20
BRANCH  10  32
ATOM     32  O   UNL     1      -0.612  -7.965   0.000  0.00  0.00    +0.000 OA
BRANCH  32  33
ATOM     33  C   UNL     1       0.020  -8.496   0.000  0.00  0.00    +0.000 C 
BRANCH  33  34
ATOM     34  C   UNL     1      -0.123  -9.308   0.000  0.00  0.00    +0.000 C 
BRANCH  34  35
ATOM     35  C   UNL     1       0.509  -9.839   0.000  0.00  0.00    +0.000 C 
ATOM     36  C   UNL     1       0.921 -10.553   0.000  0.00  0.00    +0.000 C 
ATOM     37  C   UNL     1       0.096 -10.553   0.000  0.00  0.00    +0.000 C 
BRANCH  35  38
ATOM     38  C   UNL     1       1.141  -9.308   0.000  0.00  0.00    +0.000 C 
ATOM     39  F   UNL     1       1.773  -8.778   0.000  0.00  0.00    +0.000 F 
ATOM     40  F   UNL     1       0.611  -8.676   0.000  0.00  0.00    +0.000 F 
ATOM     41  F   UNL     1       1.671  -9.940   0.000  0.00  0.00    +0.000 F 
ENDBRANCH  35  38
ENDBRANCH  34  35
ENDBRANCH  33  34
ENDBRANCH  32  33
ENDBRANCH  10  32
TORSDOF 9
