REMARK  Name = 
REMARK  4 active torsions:
REMARK  status: ('A' for Active; 'I' for Inactive)
REMARK    1  A    between atoms: C_3  and  C_8
REMARK    2  A    between atoms: C_8  and  N_9
REMARK    3  A    between atoms: C_20  and  C_25
REMARK    4  A    between atoms: C_25  and  N_26
REMARK                            x       y       z     vdW  Elec       q    Type
REMARK                         _______ _______ _______ _____ _____    ______ ____
ROOT
ATOM      1  C   UNL     1      -2.276   2.115   0.000  0.00  0.00    +0.000 A 
ATOM      2  C   UNL     1      -1.561   2.527   0.000  0.00  0.00    +0.000 A 
ATOM      3  C   UNL     1      -0.847   2.115   0.000  0.00  0.00    +0.000 A 
ATOM      4  C   UNL     1      -0.847   1.290   0.000  0.00  0.00    +0.000 A 
ATOM      5  C   UNL     1      -1.561   0.877   0.000  0.00  0.00    +0.000 A 
ATOM      6  C   UNL     1      -2.276   1.290   0.000  0.00  0.00    +0.000 A 
ATOM      7  I   UNL     1      -1.561   0.052   0.000  0.00  0.00    +0.000 I 
ENDROOT
BRANCH   3   8
ATOM      8  C   UNL     1      -0.132   2.527   0.000  0.00  0.00    +0.000 C 
BRANCH   8   9
ATOM      9  N   UNL     1       0.582   2.115   0.000  0.00  0.00    +0.000 NA
ATOM     10  C   UNL     1       1.297   2.527   0.000  0.00  0.00    +0.000 C 
ATOM     11  N   UNL     1       2.011   2.115   0.000  0.00  0.00    +0.000 NA
ATOM     12  N   UNL     1       1.297   3.353   0.000  0.00  0.00    +0.000 NA
ENDBRANCH   8   9
ENDBRANCH   3   8
TORSDOF 2
REMARK  Name = 
REMARK  4 active torsions:
REMARK  status: ('A' for Active; 'I' for Inactive)
REMARK    1  A    between atoms: C_3  and  C_8
REMARK    2  A    between atoms: C_8  and  N_9
REMARK    3  A    between atoms: C_20  and  C_25
REMARK    4  A    between atoms: C_25  and  N_26
REMARK                            x       y       z     vdW  Elec       q    Type
REMARK                         _______ _______ _______ _____ _____    ______ ____
ROOT
ATOM      1  S   UNL     1       4.107   0.374   0.000  0.00  0.00    +0.000 S 
ATOM      2  O   UNL     1       4.932   0.374   0.000  0.00  0.00    +0.000 OA
ATOM      3  O   UNL     1       4.112   1.199   0.000  0.00  0.00    +0.000 OA
ATOM      4  O   UNL     1       4.107  -0.451   0.000  0.00  0.00    +0.000 OA
ATOM      5  O   UNL     1       3.282   0.374   0.000  0.00  0.00    +0.000 OA
ENDROOT
TORSDOF 0
REMARK  Name = 
REMARK  4 active torsions:
REMARK  status: ('A' for Active; 'I' for Inactive)
REMARK    1  A    between atoms: C_3  and  C_8
REMARK    2  A    between atoms: C_8  and  N_9
REMARK    3  A    between atoms: C_20  and  C_25
REMARK    4  A    between atoms: C_25  and  N_26
REMARK                            x       y       z     vdW  Elec       q    Type
REMARK                         _______ _______ _______ _____ _____    ______ ____
ROOT
ATOM      1  C   UNL     1      -2.276  -1.523   0.000  0.00  0.00    +0.000 A 
ATOM      2  C   UNL     1      -1.561  -1.111   0.000  0.00  0.00    +0.000 A 
ATOM      3  C   UNL     1      -0.847  -1.523   0.000  0.00  0.00    +0.000 A 
ATOM      4  C   UNL     1      -0.847  -2.348   0.000  0.00  0.00    +0.000 A 
ATOM      5  C   UNL     1      -1.561  -2.761   0.000  0.00  0.00    +0.000 A 
ATOM      6  C   UNL     1      -2.276  -2.348   0.000  0.00  0.00    +0.000 A 
ATOM      7  I   UNL     1      -1.561  -3.586   0.000  0.00  0.00    +0.000 I 
ENDROOT
BRANCH   3   8
ATOM      8  C   UNL     1      -0.132  -1.111   0.000  0.00  0.00    +0.000 C 
BRANCH   8   9
ATOM      9  N   UNL     1       0.582  -1.523   0.000  0.00  0.00    +0.000 NA
ATOM     10  C   UNL     1       1.297  -1.111   0.000  0.00  0.00    +0.000 C 
ATOM     11  N   UNL     1       2.011  -1.523   0.000  0.00  0.00    +0.000 NA
ATOM     12  N   UNL     1       1.297  -0.286   0.000  0.00  0.00    +0.000 NA
ENDBRANCH   8   9
ENDBRANCH   3   8
TORSDOF 2
