REMARK  Name = 
REMARK  9 active torsions:
REMARK  status: ('A' for Active; 'I' for Inactive)
REMARK    1  A    between atoms: N_1  and  C_3
REMARK    2  A    between atoms: C_11  and  S_19
REMARK    3  A    between atoms: C_12  and  O_17
REMARK    4  A    between atoms: N_16  and  C_26
REMARK    5  A    between atoms: O_17  and  C_22
REMARK    6  A    between atoms: S_19  and  C_20
REMARK    7  A    between atoms: C_20  and  C_21
REMARK    8  A    between atoms: C_22  and  C_23
REMARK    9  A    between atoms: C_27  and  C_29
REMARK                            x       y       z     vdW  Elec       q    Type
REMARK                         _______ _______ _______ _____ _____    ______ ____
ROOT
ATOM      1  N   UNL     1      -1.092   0.446   0.000  0.00  0.00    +0.000 N 
ATOM      2  C   UNL     1      -0.444   0.010   0.000  0.00  0.00    +0.000 A 
ATOM      3  N   UNL     1      -0.721   1.271   0.000  0.00  0.00    +0.000 NA
ATOM      4  C   UNL     1       0.269   0.405   0.000  0.00  0.00    +0.000 A 
ATOM      5  N   UNL     1      -0.473  -0.915   0.000  0.00  0.00    +0.000 NA
ATOM      6  N   UNL     1       0.145   1.147   0.000  0.00  0.00    +0.000 NA
ATOM      7  C   UNL     1       0.970  -0.008   0.000  0.00  0.00    +0.000 A 
ATOM      8  C   UNL     1       0.228  -1.328   0.000  0.00  0.00    +0.000 A 
ATOM      9  N   UNL     1       0.970  -0.874   0.000  0.00  0.00    +0.000 NA
ATOM     10  N   UNL     1       1.713   0.405   0.000  0.00  0.00    +0.000 NA
ENDROOT
BRANCH   1  11
ATOM     11  C   UNL     1      -1.835   0.199   0.000  0.00  0.00    +0.000 C 
ATOM     12  C   UNL     1      -2.495   0.694   0.000  0.00  0.00    +0.000 C 
ATOM     13  C   UNL     1      -2.082  -0.544   0.000  0.00  0.00    +0.000 C 
ATOM     14  C   UNL     1      -3.155   0.240   0.000  0.00  0.00    +0.000 C 
ATOM     15  C   UNL     1      -2.908  -0.544   0.000  0.00  0.00    +0.000 C 
ATOM     16  O   UNL     1      -1.629  -1.204   0.000  0.00  0.00    +0.000 OA
ATOM     17  O   UNL     1      -3.155  -1.286   0.000  0.00  0.00    +0.000 OA
BRANCH  14  18
ATOM     18  O   UNL     1      -3.939   0.487   0.000  0.00  0.00    +0.000 OA
BRANCH  18  19
ATOM     19  C   UNL     1      -4.653   0.075   0.000  0.00  0.00    +0.000 C 
BRANCH  19  20
ATOM     20  C   UNL     1      -5.368   0.487   0.000  0.00  0.00    +0.000 C 
ATOM     21  O   UNL     1      -6.082   0.075   0.000  0.00  0.00    +0.000 OA
ENDBRANCH  19  20
ENDBRANCH  18  19
ENDBRANCH  14  18
ENDBRANCH   1  11
BRANCH  10  22
ATOM     22  C   UNL     1       2.427  -0.008   0.000  0.00  0.00    +0.000 C 
ATOM     23  C   UNL     1       3.255   0.015   0.000  0.00  0.00    +0.000 C 
ATOM     24  C   UNL     1       2.823  -0.729   0.000  0.00  0.00    +0.000 C 
BRANCH  23  25
ATOM     25  C   UNL     1       3.974   0.443   0.000  0.00  0.00    +0.000 A 
ATOM     26  C   UNL     1       3.963   1.286   0.000  0.00  0.00    +0.000 A 
ATOM     27  C   UNL     1       4.673   1.708   0.000  0.00  0.00    +0.000 A 
ATOM     28  C   UNL     1       5.392   1.304   0.000  0.00  0.00    +0.000 A 
ATOM     29  C   UNL     1       5.403   0.461   0.000  0.00  0.00    +0.000 A 
ATOM     30  C   UNL     1       4.694   0.039   0.000  0.00  0.00    +0.000 A 
ATOM     31  F   UNL     1       4.662   2.524   0.000  0.00  0.00    +0.000 F 
ATOM     32  F   UNL     1       6.082   1.714   0.000  0.00  0.00    +0.000 F 
ENDBRANCH  23  25
ENDBRANCH  10  22
BRANCH   8  33
ATOM     33  S   UNL     1       0.228  -2.111   0.000  0.00  0.00    +0.000 S 
BRANCH  33  34
ATOM     34  C   UNL     1       0.929  -2.524   0.000  0.00  0.00    +0.000 C 
BRANCH  34  35
ATOM     35  C   UNL     1       1.630  -2.111   0.000  0.00  0.00    +0.000 C 
ATOM     36  C   UNL     1       2.348  -2.518   0.000  0.00  0.00    +0.000 C 
ENDBRANCH  34  35
ENDBRANCH  33  34
ENDBRANCH   8  33
TORSDOF 9
