REMARK  Name = 
REMARK  2 active torsions:
REMARK  status: ('A' for Active; 'I' for Inactive)
REMARK    1  A    between atoms: C_5  and  C_8
REMARK    2  A    between atoms: C_8  and  C_9
REMARK                            x       y       z     vdW  Elec       q    Type
REMARK                         _______ _______ _______ _____ _____    ______ ____
ROOT
ATOM      1  O   UNL     1       0.131   1.609   0.000  0.00  0.00    +0.000 OA
ATOM      2  C   UNL     1       0.131   0.783   0.000  0.00  0.00    +0.000 C 
ENDROOT
BRANCH   2   4
ATOM      3  N   UNL     1       1.501  -0.803   0.000  0.00  0.00    +0.000 N 
ATOM      4  C   UNL     1       0.826   0.351   0.000  0.00  0.00    +0.000 A 
ATOM      5  C   UNL     1       1.625   0.514   0.000  0.00  0.00    +0.000 A 
ATOM      6  C   UNL     1       2.045  -0.187   0.000  0.00  0.00    +0.000 A 
ATOM      7  C   UNL     1       0.747  -0.469   0.000  0.00  0.00    +0.000 A 
ATOM      8  C   UNL     1       2.045   1.242   0.000  0.00  0.00    +0.000 A 
ATOM      9  C   UNL     1       2.870  -0.187   0.000  0.00  0.00    +0.000 A 
ATOM     10  C   UNL     1       2.870   1.242   0.000  0.00  0.00    +0.000 A 
ATOM     11  C   UNL     1       3.277   0.514   0.000  0.00  0.00    +0.000 A 
ATOM     12  C   UNL     1       1.671  -1.609   0.000  0.00  0.00    +0.000 C 
ENDBRANCH   2   4
BRANCH   2  15
ATOM     13  N   UNL     1      -2.792   0.626   0.000  0.00  0.00    +0.000 NA
ATOM     14  N   UNL     1      -2.792  -0.698   0.000  0.00  0.00    +0.000 NA
ATOM     15  C   UNL     1      -0.583   0.377   0.000  0.00  0.00    +0.000 C 
ATOM     16  C   UNL     1      -2.018   0.377   0.000  0.00  0.00    +0.000 A 
ATOM     17  C   UNL     1      -2.018  -0.449   0.000  0.00  0.00    +0.000 A 
ATOM     18  C   UNL     1      -1.298   0.783   0.000  0.00  0.00    +0.000 C 
ATOM     19  C   UNL     1      -0.583  -0.449   0.000  0.00  0.00    +0.000 C 
ATOM     20  C   UNL     1      -1.298  -0.862   0.000  0.00  0.00    +0.000 C 
ATOM     21  C   UNL     1      -3.277  -0.043   0.000  0.00  0.00    +0.000 A 
ENDBRANCH   2  15
TORSDOF 2
