REMARK  Name = 
REMARK  2 active torsions:
REMARK  status: ('A' for Active; 'I' for Inactive)
REMARK    1  A    between atoms: C_9  and  C_17
REMARK    2  A    between atoms: C_10  and  C_30
REMARK                            x       y       z     vdW  Elec       q    Type
REMARK                         _______ _______ _______ _____ _____    ______ ____
ROOT
ATOM      1  C   UNL     1       0.574  -0.482   0.000  0.00  0.00    +0.000 C 
ATOM      2  C   UNL     1      -0.143  -0.882   0.000  0.00  0.00    +0.000 C 
ATOM      3  C   UNL     1      -1.564  -0.882   0.000  0.00  0.00    +0.000 C 
ATOM      4  C   UNL     1       0.574   0.337   0.000  0.00  0.00    +0.000 C 
ATOM      5  C   UNL     1      -0.851  -0.482   0.000  0.00  0.00    +0.000 C 
ATOM      6  C   UNL     1      -1.564  -1.705   0.000  0.00  0.00    +0.000 C 
ATOM      7  C   UNL     1       1.335   0.767   0.000  0.00  0.00    +0.000 C 
ATOM      8  C   UNL     1      -2.294  -2.105   0.000  0.00  0.00    +0.000 C 
ATOM      9  C   UNL     1       1.335   1.559   0.000  0.00  0.00    +0.000 C 
ATOM     10  C   UNL     1       2.008   0.354   0.000  0.00  0.00    +0.000 C 
ATOM     11  C   UNL     1      -0.143  -1.705   0.000  0.00  0.00    +0.000 C 
ATOM     12  C   UNL     1       1.353  -0.864   0.000  0.00  0.00    +0.000 C 
ATOM     13  C   UNL     1      -0.143   0.750   0.000  0.00  0.00    +0.000 C 
ATOM     14  C   UNL     1      -2.294  -0.482   0.000  0.00  0.00    +0.000 C 
ATOM     15  C   UNL     1      -0.851   0.337   0.000  0.00  0.00    +0.000 C 
ATOM     16  C   UNL     1      -0.851  -2.105   0.000  0.00  0.00    +0.000 C 
ATOM     17  C   UNL     1       2.281   1.771   0.000  0.00  0.00    +0.000 C 
ATOM     18  C   UNL     1      -3.015  -1.705   0.000  0.00  0.00    +0.000 C 
ATOM     19  C   UNL     1       2.008  -0.469   0.000  0.00  0.00    +0.000 C 
ATOM     20  C   UNL     1       2.703   0.921   0.000  0.00  0.00    +0.000 C 
ATOM     21  C   UNL     1      -3.015  -0.882   0.000  0.00  0.00    +0.000 C 
ATOM     22  C   UNL     1       0.592  -1.564   0.000  0.00  0.00    +0.000 C 
ATOM     23  C   UNL     1      -0.161  -0.002   0.000  0.00  0.00    +0.000 C 
ATOM     24  C   UNL     1      -1.559   0.354   0.000  0.00  0.00    +0.000 C 
ATOM     25  C   UNL     1      -1.986  -2.910   0.000  0.00  0.00    +0.000 C 
ATOM     26  C   UNL     1      -3.059  -2.857   0.000  0.00  0.00    +0.000 C 
ATOM     27  O   UNL     1      -3.799  -2.048   0.000  0.00  0.00    +0.000 OA
ENDROOT
BRANCH   9  28
ATOM     28  C   UNL     1       0.658   2.092   0.000  0.00  0.00    +0.000 C 
ATOM     29  C   UNL     1       0.658   2.910   0.000  0.00  0.00    +0.000 C 
ATOM     30  C   UNL     1      -0.143   1.744   0.000  0.00  0.00    +0.000 C 
ENDBRANCH   9  28
BRANCH  10  31
ATOM     31  C   UNL     1       2.936  -0.112   0.000  0.00  0.00    +0.000 C 
ATOM     32  O   UNL     1       3.799   0.354   0.000  0.00  0.00    +0.000 OA
ENDBRANCH  10  31
TORSDOF 2
