REMARK  Name = 
REMARK  9 active torsions:
REMARK  status: ('A' for Active; 'I' for Inactive)
REMARK    1  A    between atoms: C_2  and  C_3
REMARK    2  A    between atoms: C_3  and  N_4
REMARK    3  A    between atoms: N_4  and  C_5
REMARK    4  A    between atoms: N_4  and  C_16
REMARK    5  A    between atoms: C_5  and  C_6
REMARK    6  A    between atoms: C_6  and  C_7
REMARK    7  A    between atoms: C_16  and  C_17
REMARK    8  A    between atoms: C_20  and  C_21
REMARK    9  A    between atoms: C_22  and  C_23
REMARK                            x       y       z     vdW  Elec       q    Type
REMARK                         _______ _______ _______ _____ _____    ______ ____
ROOT
ATOM      1  N   UNL     1       6.507  -0.580   0.000  0.00  0.00    +0.000 NA
ENDROOT
BRANCH   1   2
ATOM      2  C   UNL     1       7.332  -0.580   0.000  0.00  0.00    +0.000 C 
BRANCH   2   3
ATOM      3  C   UNL     1       7.745   0.134   0.000  0.00  0.00    +0.000 C 
BRANCH   3   4
ATOM      4  C   UNL     1       8.570   0.134   0.000  0.00  0.00    +0.000 A 
ATOM      5  C   UNL     1       9.055   0.801   0.000  0.00  0.00    +0.000 A 
ATOM      6  N   UNL     1       9.839   0.547   0.000  0.00  0.00    +0.000 NA
ATOM      7  C   UNL     1       9.839  -0.278   0.000  0.00  0.00    +0.000 A 
ATOM      8  C   UNL     1      10.453  -0.831   0.000  0.00  0.00    +0.000 A 
ATOM      9  C   UNL     1      10.281  -1.637   0.000  0.00  0.00    +0.000 A 
ATOM     10  C   UNL     1       9.496  -1.892   0.000  0.00  0.00    +0.000 A 
ATOM     11  C   UNL     1       8.883  -1.340   0.000  0.00  0.00    +0.000 A 
ATOM     12  C   UNL     1       9.055  -0.533   0.000  0.00  0.00    +0.000 A 
ENDBRANCH   3   4
ENDBRANCH   2   3
ENDBRANCH   1   2
BRANCH   1  13
ATOM     13  C   UNL     1       6.095   0.134   0.000  0.00  0.00    +0.000 C 
BRANCH  13  15
ATOM     14  O   UNL     1       4.857   0.849   0.000  0.00  0.00    +0.000 OA
ATOM     15  C   UNL     1       5.270   0.134   0.000  0.00  0.00    +0.000 C 
ENDBRANCH  13  15
ENDBRANCH   1  13
BRANCH   1  16
ATOM     16  C   UNL     1       6.095  -1.295   0.000  0.00  0.00    +0.000 C 
BRANCH  16  17
ATOM     17  C   UNL     1       5.270  -1.295   0.000  0.00  0.00    +0.000 A 
ATOM     18  C   UNL     1       4.857  -2.009   0.000  0.00  0.00    +0.000 A 
ATOM     19  C   UNL     1       4.032  -2.009   0.000  0.00  0.00    +0.000 A 
ATOM     20  C   UNL     1       3.620  -1.295   0.000  0.00  0.00    +0.000 A 
ATOM     21  C   UNL     1       4.032  -0.580   0.000  0.00  0.00    +0.000 A 
ATOM     22  C   UNL     1       4.857  -0.580   0.000  0.00  0.00    +0.000 A 
BRANCH  20  23
ATOM     23  C   UNL     1       2.795  -1.295   0.000  0.00  0.00    +0.000 C 
ATOM     24  C   UNL     1       2.382  -0.580   0.000  0.00  0.00    +0.000 C 
BRANCH  24  25
ATOM     25  C   UNL     1       1.557  -0.580   0.000  0.00  0.00    +0.000 C 
ATOM     26  O   UNL     1       1.145  -1.295   0.000  0.00  0.00    +0.000 OA
ATOM     27  N   UNL     1       1.145   0.134   0.000  0.00  0.00    +0.000 NA
ATOM     28  O   UNL     1       0.320   0.134   0.000  0.00  0.00    +0.000 OA
ENDBRANCH  24  25
ENDBRANCH  20  23
ENDBRANCH  16  17
ENDBRANCH   1  16
TORSDOF 9
