REMARK  Name = 
REMARK  8 active torsions:
REMARK  status: ('A' for Active; 'I' for Inactive)
REMARK    1  A    between atoms: C_5  and  C_8
REMARK    2  A    between atoms: N_10  and  C_11
REMARK    3  A    between atoms: C_11  and  C_12
REMARK    4  A    between atoms: C_12  and  C_13
REMARK    5  A    between atoms: C_13  and  C_14
REMARK    6  A    between atoms: C_14  and  C_15
REMARK    7  A    between atoms: C_15  and  C_16
REMARK    8  A    between atoms: N_18  and  C_19
REMARK                            x       y       z     vdW  Elec       q    Type
REMARK                         _______ _______ _______ _____ _____    ______ ____
ROOT
ATOM      1  C   UNL     1       6.430  -6.188   0.000  0.00  0.00    +0.000 C 
ENDROOT
BRANCH   1   2
ATOM      2  C   UNL     1       5.716  -6.600   0.000  0.00  0.00    +0.000 C 
BRANCH   2   3
ATOM      3  C   UNL     1       5.001  -6.188   0.000  0.00  0.00    +0.000 C 
BRANCH   3   6
ATOM      4  C   UNL     1       3.572  -6.188   0.000  0.00  0.00    +0.000 C 
ATOM      5  O   UNL     1       3.572  -5.362   0.000  0.00  0.00    +0.000 OA
ATOM      6  N   UNL     1       4.287  -6.600   0.000  0.00  0.00    +0.000 NA
BRANCH   4  11
ATOM      7  C   UNL     1       0.715  -7.838   0.000  0.00  0.00    +0.000 C 
ATOM      8  C   UNL     1       1.429  -7.425   0.000  0.00  0.00    +0.000 A 
ATOM      9  C   UNL     1       1.429  -6.600   0.000  0.00  0.00    +0.000 A 
ATOM     10  C   UNL     1       2.143  -6.188   0.000  0.00  0.00    +0.000 A 
ATOM     11  C   UNL     1       2.858  -6.600   0.000  0.00  0.00    +0.000 A 
ATOM     12  C   UNL     1       2.858  -7.425   0.000  0.00  0.00    +0.000 A 
ATOM     13  C   UNL     1       2.143  -7.838   0.000  0.00  0.00    +0.000 A 
ENDBRANCH   4  11
ENDBRANCH   3   6
ENDBRANCH   2   3
ENDBRANCH   1   2
BRANCH   1  14
ATOM     14  C   UNL     1       7.145  -6.600   0.000  0.00  0.00    +0.000 C 
BRANCH  14  15
ATOM     15  C   UNL     1       7.859  -6.188   0.000  0.00  0.00    +0.000 C 
BRANCH  15  16
ATOM     16  C   UNL     1       8.574  -6.600   0.000  0.00  0.00    +0.000 C 
ATOM     17  O   UNL     1       8.574  -7.425   0.000  0.00  0.00    +0.000 OA
ATOM     18  N   UNL     1       9.288  -6.188   0.000  0.00  0.00    +0.000 NA
BRANCH  18  19
ATOM     19  C   UNL     1      10.003  -6.600   0.000  0.00  0.00    +0.000 A 
ATOM     20  C   UNL     1      10.717  -6.188   0.000  0.00  0.00    +0.000 A 
ATOM     21  C   UNL     1      11.431  -6.600   0.000  0.00  0.00    +0.000 A 
ATOM     22  C   UNL     1      11.431  -7.425   0.000  0.00  0.00    +0.000 A 
ATOM     23  C   UNL     1      10.717  -7.838   0.000  0.00  0.00    +0.000 A 
ATOM     24  C   UNL     1      10.003  -7.425   0.000  0.00  0.00    +0.000 A 
ATOM     25  N   UNL     1       9.288  -7.838   0.000  0.00  0.00    +0.000 NA
ENDBRANCH  18  19
ENDBRANCH  15  16
ENDBRANCH  14  15
ENDBRANCH   1  14
TORSDOF 8
