REMARK  Name = 
REMARK  2 active torsions:
REMARK  status: ('A' for Active; 'I' for Inactive)
REMARK    1  A    between atoms: N_2  and  N_3
REMARK    2  A    between atoms: N_2  and  C_8
REMARK                            x       y       z     vdW  Elec       q    Type
REMARK                         _______ _______ _______ _____ _____    ______ ____
ROOT
ATOM      1  N   UNL     1      -0.695   0.396   0.000  0.00  0.00    +0.000 NA
ENDROOT
BRANCH   1   2
ATOM      2  N   UNL     1       0.020   0.809   0.000  0.00  0.00    +0.000 NA
ATOM      3  N   UNL     1      -0.393   2.904   0.000  0.00  0.00    +0.000 NA
ATOM      4  N   UNL     1       0.432   2.904   0.000  0.00  0.00    +0.000 NA
ATOM      5  N   UNL     1      -1.432   1.864   0.000  0.00  0.00    +0.000 NA
ATOM      6  N   UNL     1       1.472   1.864   0.000  0.00  0.00    +0.000 NA
ATOM      7  C   UNL     1       0.020   1.634   0.000  0.00  0.00    +0.000 C 
ATOM      8  C   UNL     1      -0.647   2.119   0.000  0.00  0.00    +0.000 C 
ATOM      9  C   UNL     1       0.687   2.119   0.000  0.00  0.00    +0.000 C 
ENDBRANCH   1   2
BRANCH   1  11
ATOM     10  F   UNL     1      -0.695  -2.904   0.000  0.00  0.00    +0.000 F 
ATOM     11  C   UNL     1      -0.695  -0.428   0.000  0.00  0.00    +0.000 A 
ATOM     12  C   UNL     1       0.020  -0.841   0.000  0.00  0.00    +0.000 A 
ATOM     13  C   UNL     1      -1.409  -0.841   0.000  0.00  0.00    +0.000 A 
ATOM     14  C   UNL     1       0.020  -1.666   0.000  0.00  0.00    +0.000 A 
ATOM     15  C   UNL     1      -1.409  -1.666   0.000  0.00  0.00    +0.000 A 
ATOM     16  C   UNL     1      -0.695  -2.079   0.000  0.00  0.00    +0.000 A 
ENDBRANCH   1  11
TORSDOF 2
