REMARK  Name = 
REMARK  4 active torsions:
REMARK  status: ('A' for Active; 'I' for Inactive)
REMARK    1  A    between atoms: C_7  and  C_8
REMARK    2  A    between atoms: C_16  and  C_18
REMARK    3  A    between atoms: N_20  and  C_31
REMARK    4  A    between atoms: C_22  and  C_23
REMARK                            x       y       z     vdW  Elec       q    Type
REMARK                         _______ _______ _______ _____ _____    ______ ____
ROOT
ATOM      1  C   UNL     1      -0.715   2.062   0.000  0.00  0.00    +0.000 C 
ATOM      2  C   UNL     1      -0.715   1.238   0.000  0.00  0.00    +0.000 C 
ATOM      3  C   UNL     1       0.000   0.825   0.000  0.00  0.00    +0.000 C 
ATOM      4  N   UNL     1       0.000   0.000   0.000  0.00  0.00    +0.000 N 
ATOM      5  C   UNL     1      -0.715  -0.412   0.000  0.00  0.00    +0.000 C 
ATOM      6  C   UNL     1      -1.429   0.000   0.000  0.00  0.00    +0.000 C 
ATOM      7  C   UNL     1      -1.429   0.825   0.000  0.00  0.00    +0.000 C 
ATOM      8  O   UNL     1      -1.866   1.525   0.000  0.00  0.00    +0.000 OA
ATOM      9  C   UNL     1      -2.143  -0.412   0.000  0.00  0.00    +0.000 C 
ATOM     10  C   UNL     1       0.715  -0.412   0.000  0.00  0.00    +0.000 C 
ATOM     11  O   UNL     1       1.429   0.000   0.000  0.00  0.00    +0.000 OA
ENDROOT
BRANCH   7  12
ATOM     12  C   UNL     1      -2.253   0.854   0.000  0.00  0.00    +0.000 A 
ATOM     13  C   UNL     1      -2.691   0.154   0.000  0.00  0.00    +0.000 A 
ATOM     14  C   UNL     1      -3.515   0.183   0.000  0.00  0.00    +0.000 A 
ATOM     15  C   UNL     1      -3.902   0.911   0.000  0.00  0.00    +0.000 A 
ATOM     16  C   UNL     1      -3.465   1.611   0.000  0.00  0.00    +0.000 A 
ATOM     17  C   UNL     1      -2.641   1.582   0.000  0.00  0.00    +0.000 A 
ENDBRANCH   7  12
BRANCH  10  18
ATOM     18  C   UNL     1       0.715  -1.238   0.000  0.00  0.00    +0.000 C 
ATOM     19  C   UNL     1       0.047  -1.722   0.000  0.00  0.00    +0.000 C 
ATOM     20  N   UNL     1       0.302  -2.507   0.000  0.00  0.00    +0.000 NA
ATOM     21  C   UNL     1       1.127  -2.507   0.000  0.00  0.00    +0.000 C 
ATOM     22  C   UNL     1       1.382  -1.722   0.000  0.00  0.00    +0.000 C 
BRANCH  22  23
ATOM     23  C   UNL     1       2.167  -1.468   0.000  0.00  0.00    +0.000 A 
ATOM     24  C   UNL     1       2.338  -0.660   0.000  0.00  0.00    +0.000 A 
ATOM     25  C   UNL     1       3.123  -0.406   0.000  0.00  0.00    +0.000 A 
ATOM     26  C   UNL     1       3.736  -0.958   0.000  0.00  0.00    +0.000 A 
ATOM     27  C   UNL     1       3.564  -1.765   0.000  0.00  0.00    +0.000 A 
ATOM     28  C   UNL     1       2.780  -2.019   0.000  0.00  0.00    +0.000 A 
ATOM     29  F   UNL     1       2.608  -2.826   0.000  0.00  0.00    +0.000 F 
ATOM     30  F   UNL     1       4.520  -0.703   0.000  0.00  0.00    +0.000 F 
ENDBRANCH  22  23
BRANCH  20  31
ATOM     31  C   UNL     1      -0.183  -3.175   0.000  0.00  0.00    +0.000 C 
ATOM     32  C   UNL     1      -0.668  -3.842   0.000  0.00  0.00    +0.000 C 
ATOM     33  C   UNL     1       0.484  -3.659   0.000  0.00  0.00    +0.000 C 
ATOM     34  C   UNL     1      -0.850  -2.690   0.000  0.00  0.00    +0.000 C 
ENDBRANCH  20  31
ENDBRANCH  10  18
TORSDOF 4
