REMARK  Name = 
REMARK  8 active torsions:
REMARK  status: ('A' for Active; 'I' for Inactive)
REMARK    1  A    between atoms: S_1  and  O_5
REMARK    2  A    between atoms: S_1  and  N_12
REMARK    3  A    between atoms: O_5  and  C_20
REMARK    4  A    between atoms: N_9  and  C_18
REMARK    5  A    between atoms: N_14  and  C_24
REMARK    6  A    between atoms: N_15  and  C_27
REMARK    7  A    between atoms: C_19  and  C_20
REMARK    8  A    between atoms: C_26  and  C_27
REMARK                            x       y       z     vdW  Elec       q    Type
REMARK                         _______ _______ _______ _____ _____    ______ ____
ROOT
ATOM      1  O   UNL     1      -1.044   0.352   0.000  0.00  0.00    +0.000 OA
ATOM      2  O   UNL     1      -3.141   0.768   0.000  0.00  0.00    +0.000 OA
ATOM      3  O   UNL     1      -2.083   2.214   0.000  0.00  0.00    +0.000 OA
ATOM      4  C   UNL     1      -2.318   0.768   0.000  0.00  0.00    +0.000 C 
ATOM      5  C   UNL     1      -1.830   1.437   0.000  0.00  0.00    +0.000 C 
ATOM      6  C   UNL     1      -1.830   0.099   0.000  0.00  0.00    +0.000 C 
ATOM      7  C   UNL     1      -1.044   1.175   0.000  0.00  0.00    +0.000 C 
ENDROOT
BRANCH   6   8
ATOM      8  N   UNL     1      -2.092  -0.687   0.000  0.00  0.00    +0.000 N 
ATOM      9  N   UNL     1      -2.092  -2.015   0.000  0.00  0.00    +0.000 NA
ATOM     10  N   UNL     1      -3.583  -0.524   0.000  0.00  0.00    +0.000 NA
ATOM     11  N   UNL     1      -4.297  -1.762   0.000  0.00  0.00    +0.000 NA
ATOM     12  C   UNL     1      -2.869  -0.940   0.000  0.00  0.00    +0.000 A 
ATOM     13  C   UNL     1      -1.604  -1.347   0.000  0.00  0.00    +0.000 A 
ATOM     14  C   UNL     1      -2.869  -1.762   0.000  0.00  0.00    +0.000 A 
ATOM     15  C   UNL     1      -3.583  -2.169   0.000  0.00  0.00    +0.000 A 
ATOM     16  C   UNL     1      -4.297  -0.940   0.000  0.00  0.00    +0.000 A 
BRANCH  15  17
ATOM     17  N   UNL     1      -3.583  -3.001   0.000  0.00  0.00    +0.000 N 
ATOM     18  H   UNL     1      -3.141  -3.254   0.000  0.00  0.00    +0.000 HD
ATOM     19  H   UNL     1      -4.026  -3.254   0.000  0.00  0.00    +0.000 HD
ENDBRANCH  15  17
ENDBRANCH   6   8
BRANCH   7  20
ATOM     20  C   UNL     1      -0.375   1.663   0.000  0.00  0.00    +0.000 C 
BRANCH  20  21
ATOM     21  O   UNL     1       0.375   1.319   0.000  0.00  0.00    +0.000 OA
BRANCH  21  22
ATOM     22  S   UNL     1       1.044   1.808   0.000  0.00  0.00    +0.000 S 
ATOM     23  O   UNL     1       0.556   2.476   0.000  0.00  0.00    +0.000 OA
ATOM     24  O   UNL     1       1.523   1.139   0.000  0.00  0.00    +0.000 OA
BRANCH  22  26
ATOM     25  O   UNL     1       2.544   1.130   0.000  0.00  0.00    +0.000 OA
ATOM     26  N   UNL     1       1.713   2.287   0.000  0.00  0.00    +0.000 N 
ATOM     27  C   UNL     1       2.463   1.952   0.000  0.00  0.00    +0.000 C 
ATOM     28  H   UNL     1       1.658   2.802   0.000  0.00  0.00    +0.000 HD
BRANCH  27  29
ATOM     29  C   UNL     1       3.132   2.440   0.000  0.00  0.00    +0.000 C 
ATOM     30  C   UNL     1       3.050   3.254   0.000  0.00  0.00    +0.000 C 
BRANCH  29  31
ATOM     31  N   UNL     1       3.882   2.097   0.000  0.00  0.00    +0.000 NA
ATOM     32  H   UNL     1       3.936   1.591   0.000  0.00  0.00    +0.000 HD
ATOM     33  H   UNL     1       4.297   2.404   0.000  0.00  0.00    +0.000 HD
ENDBRANCH  29  31
ENDBRANCH  27  29
ENDBRANCH  22  26
ENDBRANCH  21  22
ENDBRANCH  20  21
ENDBRANCH   7  20
TORSDOF 8
