REMARK  Name = 
REMARK  9 active torsions:
REMARK  status: ('A' for Active; 'I' for Inactive)
REMARK    1  A    between atoms: C_1  and  C_2
REMARK    2  A    between atoms: C_12  and  C_15
REMARK    3  A    between atoms: N_13  and  C_14
REMARK    4  A    between atoms: C_20  and  O_25
REMARK    5  A    between atoms: O_25  and  C_29
REMARK    6  A    between atoms: C_26  and  C_28
REMARK    7  A    between atoms: C_28  and  C_32
REMARK    8  A    between atoms: C_29  and  C_33
REMARK    9  A    between atoms: C_32  and  C_33
REMARK                            x       y       z     vdW  Elec       q    Type
REMARK                         _______ _______ _______ _____ _____    ______ ____
ROOT
ATOM      1  C   UNL     1       1.496  -1.448   0.000  0.00  0.00    +0.000 C 
ATOM      2  N   UNL     1       2.208  -1.027   0.000  0.00  0.00    +0.000 NA
ATOM      3  O   UNL     1       1.496  -2.273   0.000  0.00  0.00    +0.000 OA
ENDROOT
BRANCH   2  10
ATOM      4  C   UNL     1       4.342   0.210   0.000  0.00  0.00    +0.000 A 
ATOM      5  O   UNL     1       3.629  -0.202   0.000  0.00  0.00    +0.000 OA
ATOM      6  C   UNL     1       2.917   0.210   0.000  0.00  0.00    +0.000 A 
ATOM      7  C   UNL     1       4.342   1.035   0.000  0.00  0.00    +0.000 A 
ATOM      8  C   UNL     1       3.629   1.448   0.000  0.00  0.00    +0.000 A 
ATOM      9  C   UNL     1       2.921   1.035   0.000  0.00  0.00    +0.000 A 
ATOM     10  C   UNL     1       2.208  -0.202   0.000  0.00  0.00    +0.000 A 
ATOM     11  O   UNL     1       3.629   2.273   0.000  0.00  0.00    +0.000 OA
ATOM     12  C   UNL     1       2.196   1.448   0.000  0.00  0.00    +0.000 A 
ATOM     13  C   UNL     1       1.496   0.210   0.000  0.00  0.00    +0.000 A 
ATOM     14  C   UNL     1       1.492   1.027   0.000  0.00  0.00    +0.000 A 
BRANCH   4  15
ATOM     15  C   UNL     1       5.059  -0.202   0.000  0.00  0.00    +0.000 A 
ATOM     16  N   UNL     1       5.809   0.135   0.000  0.00  0.00    +0.000 NA
ATOM     17  N   UNL     1       6.367  -0.477   0.000  0.00  0.00    +0.000 NA
ATOM     18  N   UNL     1       5.955  -1.190   0.000  0.00  0.00    +0.000 NA
ATOM     19  N   UNL     1       5.146  -1.023   0.000  0.00  0.00    +0.000 NA
ENDBRANCH   4  15
ENDBRANCH   2  10
BRANCH   1  20
ATOM     20  C   UNL     1       0.783  -1.035   0.000  0.00  0.00    +0.000 A 
ATOM     21  C   UNL     1       0.783  -0.210   0.000  0.00  0.00    +0.000 A 
ATOM     22  C   UNL     1       0.071  -1.452   0.000  0.00  0.00    +0.000 A 
ATOM     23  C   UNL     1      -0.646  -0.214   0.000  0.00  0.00    +0.000 A 
ATOM     24  C   UNL     1      -0.642  -1.040   0.000  0.00  0.00    +0.000 A 
ATOM     25  C   UNL     1       0.071   0.198   0.000  0.00  0.00    +0.000 A 
BRANCH  23  26
ATOM     26  O   UNL     1      -1.367   0.198   0.000  0.00  0.00    +0.000 OA
BRANCH  26  27
ATOM     27  C   UNL     1      -2.079  -0.223   0.000  0.00  0.00    +0.000 C 
BRANCH  27  28
ATOM     28  C   UNL     1      -2.792   0.190   0.000  0.00  0.00    +0.000 C 
BRANCH  28  29
ATOM     29  C   UNL     1      -3.504  -0.227   0.000  0.00  0.00    +0.000 C 
BRANCH  29  30
ATOM     30  C   UNL     1      -4.221   0.185   0.000  0.00  0.00    +0.000 C 
BRANCH  30  31
ATOM     31  C   UNL     1      -4.934  -0.235   0.000  0.00  0.00    +0.000 A 
ATOM     32  C   UNL     1      -5.655   0.177   0.000  0.00  0.00    +0.000 A 
ATOM     33  C   UNL     1      -4.930  -1.052   0.000  0.00  0.00    +0.000 A 
ATOM     34  C   UNL     1      -5.642  -1.473   0.000  0.00  0.00    +0.000 A 
ATOM     35  C   UNL     1      -6.367  -0.235   0.000  0.00  0.00    +0.000 A 
ATOM     36  C   UNL     1      -6.367  -1.060   0.000  0.00  0.00    +0.000 A 
ENDBRANCH  30  31
ENDBRANCH  29  30
ENDBRANCH  28  29
ENDBRANCH  27  28
ENDBRANCH  26  27
ENDBRANCH  23  26
ENDBRANCH   1  20
TORSDOF 9
