REMARK  Name = 
REMARK  3 active torsions:
REMARK  status: ('A' for Active; 'I' for Inactive)
REMARK    1  A    between atoms: O_1  and  C_9
REMARK    2  A    between atoms: O_1  and  C_10
REMARK    3  A    between atoms: C_5  and  C_8
REMARK                            x       y       z     vdW  Elec       q    Type
REMARK                         _______ _______ _______ _____ _____    ______ ____
ROOT
ATOM      1  O   UNL     1       0.183   0.413   0.000  0.00  0.00    +0.000 OA
ATOM      2  N   UNL     1      -0.528  -0.826   0.000  0.00  0.00    +0.000 N 
ATOM      3  C   UNL     1      -1.246  -0.413   0.000  0.00  0.00    +0.000 C 
ATOM      4  C   UNL     1      -1.957  -0.826   0.000  0.00  0.00    +0.000 A 
ATOM      5  C   UNL     1      -1.957  -1.653   0.000  0.00  0.00    +0.000 A 
ATOM      6  C   UNL     1       0.183  -0.413   0.000  0.00  0.00    +0.000 C 
ATOM      7  C   UNL     1      -0.528  -1.653   0.000  0.00  0.00    +0.000 C 
ATOM      8  C   UNL     1      -1.246  -2.059   0.000  0.00  0.00    +0.000 C 
ATOM      9  C   UNL     1      -2.675  -0.413   0.000  0.00  0.00    +0.000 A 
ATOM     10  C   UNL     1      -2.675  -2.059   0.000  0.00  0.00    +0.000 A 
ATOM     11  C   UNL     1      -3.387  -0.826   0.000  0.00  0.00    +0.000 A 
ATOM     12  C   UNL     1      -3.387  -1.653   0.000  0.00  0.00    +0.000 A 
ENDROOT
BRANCH   3  13
ATOM     13  C   UNL     1      -1.246   0.413   0.000  0.00  0.00    +0.000 A 
ATOM     14  C   UNL     1      -0.528   0.820   0.000  0.00  0.00    +0.000 A 
ATOM     15  C   UNL     1      -1.957   0.820   0.000  0.00  0.00    +0.000 A 
ATOM     16  C   UNL     1      -0.528   1.639   0.000  0.00  0.00    +0.000 A 
ATOM     17  C   UNL     1      -1.957   1.653   0.000  0.00  0.00    +0.000 A 
ATOM     18  C   UNL     1      -1.246   2.059   0.000  0.00  0.00    +0.000 A 
ENDBRANCH   3  13
BRANCH   6  19
ATOM     19  O   UNL     1       0.887  -0.826   0.000  0.00  0.00    +0.000 OA
BRANCH  19  21
ATOM     20  N   UNL     1       2.675  -0.433   0.000  0.00  0.00    +0.000 NA
ATOM     21  C   UNL     1       1.700  -0.386   0.000  0.00  0.00    +0.000 C 
ATOM     22  C   UNL     1       2.418   0.034   0.000  0.00  0.00    +0.000 C 
ATOM     23  C   UNL     1       1.958  -0.847   0.000  0.00  0.00    +0.000 C 
ATOM     24  C   UNL     1       3.129  -0.386   0.000  0.00  0.00    +0.000 C 
ATOM     25  C   UNL     1       2.418   0.853   0.000  0.00  0.00    +0.000 C 
ATOM     26  C   UNL     1       3.387  -0.847   0.000  0.00  0.00    +0.000 C 
ATOM     27  C   UNL     1       2.675   0.393   0.000  0.00  0.00    +0.000 C 
ENDBRANCH  19  21
ENDBRANCH   6  19
TORSDOF 3
