REMARK  Name = 
REMARK  0 active torsions:
REMARK  status: ('A' for Active; 'I' for Inactive)
REMARK                            x       y       z     vdW  Elec       q    Type
REMARK                         _______ _______ _______ _____ _____    ______ ____
ROOT
ATOM      1  H   UNL     1       0.930   1.522   0.000  0.00  0.00    +0.000 HD
ATOM      2  C   UNL     1       0.398   0.891   0.000  0.00  0.00    +0.000 C 
ATOM      3  C   UNL     1       0.678   0.116   0.000  0.00  0.00    +0.000 C 
ATOM      4  C   UNL     1       1.490  -0.029   0.000  0.00  0.00    +0.000 C 
ATOM      5  C   UNL     1       2.142   0.477   0.000  0.00  0.00    +0.000 C 
ATOM      6  C   UNL     1       2.825   0.014   0.000  0.00  0.00    +0.000 C 
ATOM      7  C   UNL     1       2.595  -0.779   0.000  0.00  0.00    +0.000 C 
ATOM      8  C   UNL     1       1.771  -0.805   0.000  0.00  0.00    +0.000 C 
ATOM      9  C   UNL     1       1.239  -1.436   0.000  0.00  0.00    +0.000 C 
ATOM     10  C   UNL     1       0.427  -1.291   0.000  0.00  0.00    +0.000 C 
ATOM     11  C   UNL     1       0.147  -0.515   0.000  0.00  0.00    +0.000 C 
ATOM     12  C   UNL     1      -0.665  -0.370   0.000  0.00  0.00    +0.000 C 
ATOM     13  C   UNL     1      -1.197  -1.000   0.000  0.00  0.00    +0.000 C 
ATOM     14  C   UNL     1      -2.009  -0.855   0.000  0.00  0.00    +0.000 C 
ATOM     15  C   UNL     1      -2.290  -0.079   0.000  0.00  0.00    +0.000 C 
ATOM     16  O   UNL     1      -3.102   0.066   0.000  0.00  0.00    +0.000 OA
ATOM     17  C   UNL     1      -1.758   0.551   0.000  0.00  0.00    +0.000 C 
ATOM     18  C   UNL     1      -0.946   0.406   0.000  0.00  0.00    +0.000 C 
ATOM     19  C   UNL     1      -0.414   1.037   0.000  0.00  0.00    +0.000 C 
ATOM     20  H   UNL     1      -0.694   1.813   0.000  0.00  0.00    +0.000 HD
ATOM     21  H   UNL     1      -2.541  -1.486   0.000  0.00  0.00    +0.000 HD
ATOM     22  H   UNL     1      -1.342  -1.813   0.000  0.00  0.00    +0.000 HD
ATOM     23  C   UNL     1      -0.385  -1.146   0.000  0.00  0.00    +0.000 C 
ATOM     24  C   UNL     1       2.131  -1.548   0.000  0.00  0.00    +0.000 C 
ATOM     25  O   UNL     1       3.102  -1.430   0.000  0.00  0.00    +0.000 OA
ENDROOT
TORSDOF 0
