REMARK  Name = 
REMARK  8 active torsions:
REMARK  status: ('A' for Active; 'I' for Inactive)
REMARK    1  A    between atoms: C_5  and  C_7
REMARK    2  A    between atoms: C_7  and  C_8
REMARK    3  A    between atoms: C_7  and  C_9
REMARK    4  A    between atoms: C_9  and  O_12
REMARK    5  A    between atoms: O_12  and  C_17
REMARK    6  A    between atoms: N_21  and  C_23
REMARK    7  A    between atoms: C_23  and  C_24
REMARK    8  A    between atoms: C_24  and  C_25
REMARK                            x       y       z     vdW  Elec       q    Type
REMARK                         _______ _______ _______ _____ _____    ______ ____
ROOT
ATOM      1  C   UNL     1      -2.392   0.735   0.000  0.00  0.00    +0.000 C 
ATOM      2  C   UNL     1      -1.554  -0.940   0.000  0.00  0.00    +0.000 C 
ATOM      3  C   UNL     1      -1.586   0.933   0.000  0.00  0.00    +0.000 C 
ATOM      4  C   UNL     1      -0.914  -0.409   0.000  0.00  0.00    +0.000 C 
ATOM      5  C   UNL     1      -0.933   0.428   0.000  0.00  0.00    +0.000 C 
ATOM      6  C   UNL     1      -2.372  -0.767   0.000  0.00  0.00    +0.000 C 
ATOM      7  C   UNL     1      -2.743  -0.026   0.000  0.00  0.00    +0.000 C 
ATOM      8  O   UNL     1      -3.197  -0.716   0.000  0.00  0.00    +0.000 OA
ATOM      9  N   UNL     1      -1.535   0.121   0.000  0.00  0.00    +0.000 N 
ATOM     10  C   UNL     1      -2.116  -0.204   0.000  0.00  0.00    +0.000 C 
ENDROOT
BRANCH   9  11
ATOM     11  C   UNL     1      -0.710   0.128   0.000  0.00  0.00    +0.000 C 
BRANCH  11  12
ATOM     12  C   UNL     1      -0.294  -0.588   0.000  0.00  0.00    +0.000 C 
BRANCH  12  13
ATOM     13  C   UNL     1      -0.710  -1.311   0.000  0.00  0.00    +0.000 C 
ATOM     14  C   UNL     1      -0.288  -2.027   0.000  0.00  0.00    +0.000 C 
ENDBRANCH  12  13
ENDBRANCH  11  12
ENDBRANCH   9  11
BRANCH   5  15
ATOM     15  O   UNL     1      -0.217   0.844   0.000  0.00  0.00    +0.000 OA
BRANCH  15  16
ATOM     16  C   UNL     1       0.460   0.454   0.000  0.00  0.00    +0.000 C 
ATOM     17  O   UNL     1       0.460  -0.332   0.000  0.00  0.00    +0.000 OA
BRANCH  16  18
ATOM     18  C   UNL     1       1.145   0.844   0.000  0.00  0.00    +0.000 C 
BRANCH  18  23
ATOM     19  C   UNL     1       2.507  -0.735   0.000  0.00  0.00    +0.000 A 
ATOM     20  C   UNL     1       3.197  -0.345   0.000  0.00  0.00    +0.000 A 
ATOM     21  C   UNL     1       3.197   0.441   0.000  0.00  0.00    +0.000 A 
ATOM     22  C   UNL     1       2.513   0.844   0.000  0.00  0.00    +0.000 A 
ATOM     23  C   UNL     1       1.829   0.448   0.000  0.00  0.00    +0.000 A 
ATOM     24  C   UNL     1       1.822  -0.339   0.000  0.00  0.00    +0.000 A 
ENDBRANCH  18  23
BRANCH  18  25
ATOM     25  C   UNL     1       1.145   1.631   0.000  0.00  0.00    +0.000 C 
ATOM     26  O   UNL     1       1.829   2.027   0.000  0.00  0.00    +0.000 OA
ENDBRANCH  18  25
ENDBRANCH  16  18
ENDBRANCH  15  16
ENDBRANCH   5  15
TORSDOF 8
