REMARK  Name = 
REMARK  3 active torsions:
REMARK  status: ('A' for Active; 'I' for Inactive)
REMARK    1  A    between atoms: O_2  and  SB_3
REMARK    2  A    between atoms: SB_3  and  O_4
REMARK    3  A    between atoms: SB_3  and  O_6
REMARK                            x       y       z     vdW  Elec       q    Type
REMARK                         _______ _______ _______ _____ _____    ______ ____
ROOT
ATOM      1 SB   UNL     1       0.000   0.357   0.000  0.00  0.00    +0.000 Sb
ENDROOT
BRANCH   1   3
ATOM      2  H   UNL     1       1.238   1.072   0.000  0.00  0.00    +0.000 HD
ATOM      3  O   UNL     1       0.412   1.072   0.000  0.00  0.00    +0.000 OA
ENDBRANCH   1   3
BRANCH   1   4
ATOM      4  O   UNL     1       0.412  -0.357   0.000  0.00  0.00    +0.000 OA
ATOM      5  H   UNL     1       0.000  -1.072   0.000  0.00  0.00    +0.000 HD
ENDBRANCH   1   4
BRANCH   1   6
ATOM      6  O   UNL     1      -0.825   0.357   0.000  0.00  0.00    +0.000 OA
ATOM      7  H   UNL     1      -1.238   1.072   0.000  0.00  0.00    +0.000 HD
ENDBRANCH   1   6
TORSDOF 3
