REMARK  Name = 
REMARK  4 active torsions:
REMARK  status: ('A' for Active; 'I' for Inactive)
REMARK    1  A    between atoms: C_6  and  C_8
REMARK    2  A    between atoms: C_8  and  C_9
REMARK    3  A    between atoms: C_9  and  C_11
REMARK    4  A    between atoms: C_11  and  N_12
REMARK                            x       y       z     vdW  Elec       q    Type
REMARK                         _______ _______ _______ _____ _____    ______ ____
ROOT
ATOM      1  C   UNL     1      -0.357   0.412   0.000  0.00  0.00    +0.000 C 
ATOM      2  O   UNL     1      -0.357   1.237   0.000  0.00  0.00    +0.000 OA
ENDROOT
BRANCH   1   8
ATOM      3  C   UNL     1      -1.786   0.412   0.000  0.00  0.00    +0.000 A 
ATOM      4  C   UNL     1      -2.501   0.000   0.000  0.00  0.00    +0.000 A 
ATOM      5  C   UNL     1      -2.501  -0.825   0.000  0.00  0.00    +0.000 A 
ATOM      6  C   UNL     1      -1.786  -1.238   0.000  0.00  0.00    +0.000 A 
ATOM      7  C   UNL     1      -1.072  -0.825   0.000  0.00  0.00    +0.000 A 
ATOM      8  C   UNL     1      -1.072   0.000   0.000  0.00  0.00    +0.000 A 
ATOM      9  C   UNL     1      -3.215  -1.238   0.000  0.00  0.00    +0.000 C 
ENDBRANCH   1   8
BRANCH   1  10
ATOM     10  C   UNL     1       0.357   0.000   0.000  0.00  0.00    +0.000 C 
ATOM     11  C   UNL     1       0.357  -0.825   0.000  0.00  0.00    +0.000 C 
BRANCH  10  12
ATOM     12  C   UNL     1       1.072   0.412   0.000  0.00  0.00    +0.000 C 
BRANCH  12  13
ATOM     13  N   UNL     1       1.786   0.000   0.000  0.00  0.00    +0.000 NA
ATOM     14  C   UNL     1       1.786  -0.825   0.000  0.00  0.00    +0.000 C 
ATOM     15  C   UNL     1       2.501  -1.238   0.000  0.00  0.00    +0.000 C 
ATOM     16  C   UNL     1       3.215  -0.825   0.000  0.00  0.00    +0.000 C 
ATOM     17  C   UNL     1       3.215   0.000   0.000  0.00  0.00    +0.000 C 
ATOM     18  C   UNL     1       2.501   0.412   0.000  0.00  0.00    +0.000 C 
ENDBRANCH  12  13
ENDBRANCH  10  12
ENDBRANCH   1  10
TORSDOF 4
