REMARK  Name = 
REMARK  10 active torsions:
REMARK  status: ('A' for Active; 'I' for Inactive)
REMARK    1  A    between atoms: C_3  and  C_12
REMARK    2  A    between atoms: C_5  and  O_7
REMARK    3  A    between atoms: O_7  and  C_8
REMARK    4  A    between atoms: C_8  and  C_9
REMARK    5  A    between atoms: C_12  and  N_13
REMARK    6  A    between atoms: N_13  and  C_14
REMARK    7  A    between atoms: N_13  and  S_26
REMARK    8  A    between atoms: C_14  and  C_15
REMARK    9  A    between atoms: C_18  and  N_21
REMARK   10  A    between atoms: S_26  and  C_29
REMARK                            x       y       z     vdW  Elec       q    Type
REMARK                         _______ _______ _______ _____ _____    ______ ____
ROOT
ATOM      1  N   UNL     1      -0.763  -1.003   0.000  0.00  0.00    +0.000 NA
ENDROOT
BRANCH   1   2
ATOM      2  S   UNL     1      -1.478  -1.416   0.000  0.00  0.00    +0.000 S 
ATOM      3  O   UNL     1      -2.192  -1.828   0.000  0.00  0.00    +0.000 OA
ATOM      4  O   UNL     1      -1.065  -2.130   0.000  0.00  0.00    +0.000 OA
BRANCH   2   5
ATOM      5  C   UNL     1      -1.890  -0.701   0.000  0.00  0.00    +0.000 A 
ATOM      6  C   UNL     1      -2.715  -0.701   0.000  0.00  0.00    +0.000 A 
ATOM      7  C   UNL     1      -3.128   0.013   0.000  0.00  0.00    +0.000 A 
ATOM      8  C   UNL     1      -2.715   0.728   0.000  0.00  0.00    +0.000 A 
ATOM      9  N   UNL     1      -1.890   0.728   0.000  0.00  0.00    +0.000 NA
ATOM     10  C   UNL     1      -1.478   0.013   0.000  0.00  0.00    +0.000 A 
ENDBRANCH   2   5
ENDBRANCH   1   2
BRANCH   1  11
ATOM     11  C   UNL     1      -0.049  -1.416   0.000  0.00  0.00    +0.000 C 
BRANCH  11  12
ATOM     12  C   UNL     1      -0.049  -2.241   0.000  0.00  0.00    +0.000 A 
ATOM     13  C   UNL     1       0.665  -2.653   0.000  0.00  0.00    +0.000 A 
ATOM     14  C   UNL     1       0.665  -3.478   0.000  0.00  0.00    +0.000 A 
ATOM     15  C   UNL     1      -0.049  -3.891   0.000  0.00  0.00    +0.000 A 
ATOM     16  C   UNL     1      -0.763  -3.478   0.000  0.00  0.00    +0.000 A 
ATOM     17  C   UNL     1      -0.763  -2.653   0.000  0.00  0.00    +0.000 A 
BRANCH  15  18
ATOM     18  N   UNL     1      -0.049  -4.716   0.000  0.00  0.00    +0.000 N 
ATOM     19  C   UNL     1       0.619  -5.201   0.000  0.00  0.00    +0.000 A 
ATOM     20  C   UNL     1       0.364  -5.985   0.000  0.00  0.00    +0.000 A 
ATOM     21  C   UNL     1      -0.461  -5.985   0.000  0.00  0.00    +0.000 A 
ATOM     22  N   UNL     1      -0.716  -5.201   0.000  0.00  0.00    +0.000 NA
ENDBRANCH  15  18
ENDBRANCH  11  12
ENDBRANCH   1  11
BRANCH   1  23
ATOM     23  C   UNL     1      -0.763  -0.178   0.000  0.00  0.00    +0.000 C 
BRANCH  23  26
ATOM     24  C   UNL     1       0.665   1.472   0.000  0.00  0.00    +0.000 A 
ATOM     25  C   UNL     1      -0.049   1.059   0.000  0.00  0.00    +0.000 A 
ATOM     26  C   UNL     1      -0.049   0.234   0.000  0.00  0.00    +0.000 A 
ATOM     27  C   UNL     1       0.665  -0.178   0.000  0.00  0.00    +0.000 A 
ATOM     28  C   UNL     1       1.380   0.234   0.000  0.00  0.00    +0.000 A 
ATOM     29  C   UNL     1       1.380   1.059   0.000  0.00  0.00    +0.000 A 
BRANCH  28  30
ATOM     30  O   UNL     1       2.095  -0.178   0.000  0.00  0.00    +0.000 OA
BRANCH  30  31
ATOM     31  C   UNL     1       2.809   0.234   0.000  0.00  0.00    +0.000 C 
BRANCH  31  32
ATOM     32  C   UNL     1       3.523  -0.178   0.000  0.00  0.00    +0.000 C 
ATOM     33  O   UNL     1       4.238   0.234   0.000  0.00  0.00    +0.000 OA
ATOM     34  O   UNL     1       3.523  -1.003   0.000  0.00  0.00    +0.000 OA
ENDBRANCH  31  32
ENDBRANCH  30  31
ENDBRANCH  28  30
ENDBRANCH  23  26
ENDBRANCH   1  23
TORSDOF 10
