REMARK  Name = 
REMARK  3 active torsions:
REMARK  status: ('A' for Active; 'I' for Inactive)
REMARK    1  A    between atoms: N_11  and  C_16
REMARK    2  A    between atoms: C_16  and  C_21
REMARK    3  A    between atoms: O_18  and  C_22
REMARK                            x       y       z     vdW  Elec       q    Type
REMARK                         _______ _______ _______ _____ _____    ______ ____
ROOT
ATOM      1  N   UNL     1      -1.669  -1.314   0.000  0.00  0.00    +0.000 NA
ATOM      2  C   UNL     1      -0.848  -1.227   0.000  0.00  0.00    +0.000 A 
ATOM      3  N   UNL     1      -0.363  -1.895   0.000  0.00  0.00    +0.000 NA
ATOM      4  N   UNL     1      -0.513  -0.474   0.000  0.00  0.00    +0.000 NA
ATOM      5  C   UNL     1      -0.998   0.194   0.000  0.00  0.00    +0.000 A 
ATOM      6  C   UNL     1      -1.818   0.107   0.000  0.00  0.00    +0.000 A 
ATOM      7  C   UNL     1      -2.154  -0.646   0.000  0.00  0.00    +0.000 A 
ATOM      8 CL   UNL     1      -2.974  -0.732   0.000  0.00  0.00    +0.000 Cl
ATOM      9  N   UNL     1      -2.154   0.861   0.000  0.00  0.00    +0.000 NA
ATOM     10  C   UNL     1      -1.541   1.413   0.000  0.00  0.00    +0.000 A 
ATOM     11  N   UNL     1      -0.826   1.001   0.000  0.00  0.00    +0.000 N 
ENDROOT
BRANCH  11  12
ATOM     12  C   UNL     1      -0.072   1.336   0.000  0.00  0.00    +0.000 C 
BRANCH  12  19
ATOM     13  C   UNL     1       2.597  -0.603   0.000  0.00  0.00    +0.000 C 
ATOM     14  C   UNL     1       1.435   2.007   0.000  0.00  0.00    +0.000 C 
ATOM     15  C   UNL     1       1.176  -0.454   0.000  0.00  0.00    +0.000 A 
ATOM     16  N   UNL     1       0.509   0.031   0.000  0.00  0.00    +0.000 NA
ATOM     17  C   UNL     1       1.930  -0.118   0.000  0.00  0.00    +0.000 A 
ATOM     18  C   UNL     1       1.348   1.187   0.000  0.00  0.00    +0.000 A 
ATOM     19  C   UNL     1       0.595   0.851   0.000  0.00  0.00    +0.000 A 
ATOM     20  C   UNL     1       2.016   0.702   0.000  0.00  0.00    +0.000 A 
BRANCH  20  22
ATOM     21  C   UNL     1       2.856   1.858   0.000  0.00  0.00    +0.000 C 
ATOM     22  O   UNL     1       2.770   1.038   0.000  0.00  0.00    +0.000 OA
ENDBRANCH  20  22
ENDBRANCH  12  19
ENDBRANCH  11  12
TORSDOF 3
