REMARK  Name = 
REMARK  4 active torsions:
REMARK  status: ('A' for Active; 'I' for Inactive)
REMARK    1  A    between atoms: C_2  and  C_4
REMARK    2  A    between atoms: C_10  and  N_11
REMARK    3  A    between atoms: C_23  and  C_25
REMARK    4  A    between atoms: C_31  and  C_34
REMARK                            x       y       z     vdW  Elec       q    Type
REMARK                         _______ _______ _______ _____ _____    ______ ____
ROOT
ATOM      1  N   UNL     1      -1.072  -1.444   0.000  0.00  0.00    +0.000 N 
ATOM      2  C   UNL     1      -1.786  -1.031   0.000  0.00  0.00    +0.000 A 
ATOM      3  O   UNL     1      -2.607  -0.945   0.000  0.00  0.00    +0.000 OA
ATOM      4  N   UNL     1      -1.786  -0.206   0.000  0.00  0.00    +0.000 NA
ATOM      5  C   UNL     1      -1.072   0.206   0.000  0.00  0.00    +0.000 A 
ATOM      6  N   UNL     1      -1.072   1.031   0.000  0.00  0.00    +0.000 N 
ATOM      7  C   UNL     1      -0.357   1.444   0.000  0.00  0.00    +0.000 C 
ATOM      8  C   UNL     1      -0.357   2.269   0.000  0.00  0.00    +0.000 C 
ATOM      9  N   UNL     1      -1.072   2.681   0.000  0.00  0.00    +0.000 N 
ATOM     10  C   UNL     1      -1.786   2.269   0.000  0.00  0.00    +0.000 C 
ATOM     11  C   UNL     1      -1.786   1.444   0.000  0.00  0.00    +0.000 C 
ATOM     12  C   UNL     1      -2.501   1.031   0.000  0.00  0.00    +0.000 C 
ATOM     13  C   UNL     1      -1.072   3.506   0.000  0.00  0.00    +0.000 C 
ATOM     14  O   UNL     1      -0.357   3.919   0.000  0.00  0.00    +0.000 OA
ATOM     15  C   UNL     1      -0.357  -0.206   0.000  0.00  0.00    +0.000 A 
ATOM     16  C   UNL     1       0.357   0.206   0.000  0.00  0.00    +0.000 A 
ATOM     17  C   UNL     1       1.072  -0.206   0.000  0.00  0.00    +0.000 A 
ATOM     18  F   UNL     1       1.786   0.206   0.000  0.00  0.00    +0.000 F 
ATOM     19  C   UNL     1       1.072  -1.031   0.000  0.00  0.00    +0.000 A 
ATOM     20  N   UNL     1       0.357  -1.444   0.000  0.00  0.00    +0.000 NA
ATOM     21  C   UNL     1      -0.357  -1.031   0.000  0.00  0.00    +0.000 A 
ENDROOT
BRANCH  19  22
ATOM     22  C   UNL     1       1.786  -1.444   0.000  0.00  0.00    +0.000 A 
ATOM     23  C   UNL     1       2.501  -1.031   0.000  0.00  0.00    +0.000 A 
ATOM     24  O   UNL     1       2.501  -0.206   0.000  0.00  0.00    +0.000 OA
ATOM     25  C   UNL     1       3.215  -1.444   0.000  0.00  0.00    +0.000 A 
ATOM     26  C   UNL     1       3.215  -2.269   0.000  0.00  0.00    +0.000 A 
ATOM     27  C   UNL     1       2.501  -2.681   0.000  0.00  0.00    +0.000 A 
ATOM     28  C   UNL     1       1.786  -2.269   0.000  0.00  0.00    +0.000 A 
ATOM     29  F   UNL     1       1.072  -2.681   0.000  0.00  0.00    +0.000 F 
ENDBRANCH  19  22
BRANCH   1  36
ATOM     30  C   UNL     1      -1.786  -2.681   0.000  0.00  0.00    +0.000 A 
ATOM     31  N   UNL     1      -1.786  -3.506   0.000  0.00  0.00    +0.000 NA
ATOM     32  C   UNL     1      -1.072  -3.919   0.000  0.00  0.00    +0.000 A 
ATOM     33  C   UNL     1      -0.357  -3.506   0.000  0.00  0.00    +0.000 A 
ATOM     34  C   UNL     1      -0.357  -2.681   0.000  0.00  0.00    +0.000 A 
ATOM     35  C   UNL     1       0.357  -2.269   0.000  0.00  0.00    +0.000 C 
ATOM     36  C   UNL     1      -1.072  -2.269   0.000  0.00  0.00    +0.000 A 
BRANCH  30  38
ATOM     37  C   UNL     1      -3.215  -2.681   0.000  0.00  0.00    +0.000 C 
ATOM     38  C   UNL     1      -2.501  -2.269   0.000  0.00  0.00    +0.000 C 
ATOM     39  C   UNL     1      -2.501  -1.444   0.000  0.00  0.00    +0.000 C 
ENDBRANCH  30  38
ENDBRANCH   1  36
BRANCH  13  40
ATOM     40  C   UNL     1      -1.786   3.919   0.000  0.00  0.00    +0.000 C 
ATOM     41  C   UNL     1      -2.501   3.506   0.000  0.00  0.00    +0.000 C 
ENDBRANCH  13  40
TORSDOF 4
