REMARK  Name = 
REMARK  3 active torsions:
REMARK  status: ('A' for Active; 'I' for Inactive)
REMARK    1  A    between atoms: C_4  and  C_7
REMARK    2  A    between atoms: C_5  and  C_10
REMARK    3  A    between atoms: C_10  and  C_11
REMARK                            x       y       z     vdW  Elec       q    Type
REMARK                         _______ _______ _______ _____ _____    ______ ____
ROOT
ATOM      1  N   UNL     1       1.072  -1.444   0.000  0.00  0.00    +0.000 NA
ATOM      2  C   UNL     1       1.072   0.206   0.000  0.00  0.00    +0.000 A 
ATOM      3  C   UNL     1       0.357  -1.031   0.000  0.00  0.00    +0.000 A 
ATOM      4  C   UNL     1       0.357  -0.206   0.000  0.00  0.00    +0.000 A 
ATOM      5  C   UNL     1       1.786  -0.206   0.000  0.00  0.00    +0.000 A 
ATOM      6  C   UNL     1       1.786  -1.031   0.000  0.00  0.00    +0.000 A 
ENDROOT
BRANCH   2   9
ATOM      7  S   UNL     1       1.786   1.444   0.000  0.00  0.00    +0.000 S 
ATOM      8  N   UNL     1       0.357   1.444   0.000  0.00  0.00    +0.000 NA
ATOM      9  C   UNL     1       1.072   1.031   0.000  0.00  0.00    +0.000 C 
ENDBRANCH   2   9
BRANCH   3  10
ATOM     10  C   UNL     1      -0.357  -1.444   0.000  0.00  0.00    +0.000 C 
BRANCH  10  11
ATOM     11  C   UNL     1      -1.072  -1.031   0.000  0.00  0.00    +0.000 C 
ATOM     12  C   UNL     1      -1.786  -1.444   0.000  0.00  0.00    +0.000 C 
ENDBRANCH  10  11
ENDBRANCH   3  10
TORSDOF 3
