REMARK  Name = 
REMARK  0 active torsions:
REMARK  status: ('A' for Active; 'I' for Inactive)
REMARK                            x       y       z     vdW  Elec       q    Type
REMARK                         _______ _______ _______ _____ _____    ______ ____
ROOT
ATOM      1  O   UNL     1       2.951   1.601   0.000  0.00  0.00    +0.000 OA
ATOM      2  O   UNL     1      -2.951  -1.652   0.000  0.00  0.00    +0.000 OA
ATOM      3  C   UNL     1       1.500   0.863   0.000  0.00  0.00    +0.000 C 
ATOM      4  C   UNL     1       1.500   0.041   0.000  0.00  0.00    +0.000 C 
ATOM      5  C   UNL     1       0.786  -0.372   0.000  0.00  0.00    +0.000 C 
ATOM      6  C   UNL     1       0.073   0.041   0.000  0.00  0.00    +0.000 C 
ATOM      7  C   UNL     1      -0.678  -0.379   0.000  0.00  0.00    +0.000 C 
ATOM      8  C   UNL     1       2.283   1.117   0.000  0.00  0.00    +0.000 C 
ATOM      9  C   UNL     1       0.786   1.277   0.000  0.00  0.00    +0.000 C 
ATOM     10  C   UNL     1       0.073   0.863   0.000  0.00  0.00    +0.000 C 
ATOM     11  C   UNL     1       2.283  -0.213   0.000  0.00  0.00    +0.000 C 
ATOM     12  C   UNL     1       0.799  -1.232   0.000  0.00  0.00    +0.000 C 
ATOM     13  C   UNL     1      -0.684  -1.238   0.000  0.00  0.00    +0.000 C 
ATOM     14  C   UNL     1       2.760   0.449   0.000  0.00  0.00    +0.000 C 
ATOM     15  C   UNL     1       0.054  -1.671   0.000  0.00  0.00    +0.000 C 
ATOM     16  C   UNL     1       1.500   1.691   0.000  0.00  0.00    +0.000 C 
ATOM     17  C   UNL     1      -0.672   0.449   0.000  0.00  0.00    +0.000 C 
ATOM     18  C   UNL     1       2.028   1.901   0.000  0.00  0.00    +0.000 C 
ATOM     19  C   UNL     1      -1.449   0.086   0.000  0.00  0.00    +0.000 C 
ATOM     20  C   UNL     1      -1.461  -1.691   0.000  0.00  0.00    +0.000 C 
ATOM     21  C   UNL     1      -2.225  -0.347   0.000  0.00  0.00    +0.000 C 
ATOM     22  C   UNL     1      -2.238  -1.245   0.000  0.00  0.00    +0.000 C 
ENDROOT
TORSDOF 0
