REMARK  Name = 
REMARK  9 active torsions:
REMARK  status: ('A' for Active; 'I' for Inactive)
REMARK    1  A    between atoms: N_8  and  CA_18
REMARK    2  A    between atoms: N_9  and  C_20
REMARK    3  A    between atoms: N_10  and  C_29
REMARK    4  A    between atoms: C_17  and  CA_18
REMARK    5  A    between atoms: C_17  and  C_21
REMARK    6  A    between atoms: C_17  and  C_28
REMARK    7  A    between atoms: CA_18  and  C_27
REMARK    8  A    between atoms: C_21  and  C_23
REMARK    9  A    between atoms: C_23  and  C_29
REMARK                            x       y       z     vdW  Elec       q    Type
REMARK                         _______ _______ _______ _____ _____    ______ ____
ROOT
ATOM      1  O   UNL     1       3.024  -1.650   0.000  0.00  0.00    +0.000 OA
ATOM      2  O   UNL     1       1.595   2.475   0.000  0.00  0.00    +0.000 OA
ATOM      3  N   UNL     1       2.310  -0.412   0.000  0.00  0.00    +0.000 N 
ATOM      4  N   UNL     1       2.310   1.238   0.000  0.00  0.00    +0.000 N 
ATOM      5  N   UNL     1       1.595  -1.650   0.000  0.00  0.00    +0.000 N 
ATOM      6  N   UNL     1       3.024   2.475   0.000  0.00  0.00    +0.000 N 
ATOM      7  C   UNL     1       1.595   0.000   0.000  0.00  0.00    +0.000 C 
ATOM      8  C   UNL     1       3.024   0.000   0.000  0.00  0.00    +0.000 C 
ATOM      9  C   UNL     1       1.595   0.825   0.000  0.00  0.00    +0.000 C 
ATOM     10  C   UNL     1       3.024   0.825   0.000  0.00  0.00    +0.000 C 
ATOM     11  C   UNL     1       2.310  -1.238   0.000  0.00  0.00    +0.000 C 
ATOM     12  C   UNL     1       2.310   2.062   0.000  0.00  0.00    +0.000 C 
ATOM     13  H   UNL     1       1.152  -1.394   0.000  0.00  0.00    +0.000 HD
ATOM     14  H   UNL     1       3.467   2.219   0.000  0.00  0.00    +0.000 HD
ENDROOT
BRANCH   6  15
ATOM     15  C   UNL     1       3.024   3.300   0.000  0.00  0.00    +0.000 C 
ATOM     16  C   UNL     1       2.199   3.300   0.000  0.00  0.00    +0.000 C 
ATOM     17  C   UNL     1       3.849   3.300   0.000  0.00  0.00    +0.000 C 
ATOM     18  C   UNL     1       3.024   4.125   0.000  0.00  0.00    +0.000 C 
ENDBRANCH   6  15
BRANCH   5  19
ATOM     19  CA  UNL     1       1.595  -2.475   0.000  0.00  0.00    +0.000 C 
BRANCH  19  22
ATOM     20  O   UNL     1       2.310  -3.712   0.000  0.00  0.00    +0.000 OA
ATOM     21  OXT UNL     1       3.024  -2.475   0.000  0.00  0.00    +0.000 OA
ATOM     22  C   UNL     1       2.310  -2.888   0.000  0.00  0.00    +0.000 C 
ENDBRANCH  19  22
BRANCH  19  23
ATOM     23  C   UNL     1       0.881  -2.888   0.000  0.00  0.00    +0.000 C 
BRANCH  23  25
ATOM     24  O   UNL     1       1.595  -4.125   0.000  0.00  0.00    +0.000 OA
ATOM     25  C   UNL     1       0.881  -3.712   0.000  0.00  0.00    +0.000 C 
ENDBRANCH  23  25
BRANCH  23  26
ATOM     26  C   UNL     1       0.166  -2.475   0.000  0.00  0.00    +0.000 C 
BRANCH  26  27
ATOM     27  C   UNL     1      -0.548  -2.888   0.000  0.00  0.00    +0.000 C 
BRANCH  27  28
ATOM     28  C   UNL     1      -1.263  -2.475   0.000  0.00  0.00    +0.000 C 
BRANCH  28  29
ATOM     29  N   UNL     1      -1.977  -2.888   0.000  0.00  0.00    +0.000 NA
ATOM     30  N   UNL     1      -3.406  -2.888   0.000  0.00  0.00    +0.000 N 
ATOM     31  N   UNL     1      -2.692  -1.650   0.000  0.00  0.00    +0.000 N 
ATOM     32  C   UNL     1      -2.692  -2.475   0.000  0.00  0.00    +0.000 C 
ATOM     33  H   UNL     1      -3.406  -3.399   0.000  0.00  0.00    +0.000 HD
ATOM     34  H   UNL     1      -3.849  -2.632   0.000  0.00  0.00    +0.000 HD
ATOM     35  H   UNL     1      -2.249  -1.394   0.000  0.00  0.00    +0.000 HD
ATOM     36  H   UNL     1      -3.135  -1.394   0.000  0.00  0.00    +0.000 HD
ENDBRANCH  28  29
ENDBRANCH  27  28
ENDBRANCH  26  27
ENDBRANCH  23  26
ENDBRANCH  19  23
ENDBRANCH   5  19
TORSDOF 9
