REMARK  Name = 
REMARK  3 active torsions:
REMARK  status: ('A' for Active; 'I' for Inactive)
REMARK    1  A    between atoms: C_2  and  O_12
REMARK    2  A    between atoms: C_2  and  C_15
REMARK    3  A    between atoms: O_12  and  C_17
REMARK                            x       y       z     vdW  Elec       q    Type
REMARK                         _______ _______ _______ _____ _____    ______ ____
ROOT
ATOM      1  C   UNL     1       0.659   0.262   0.000  0.00  0.00    +0.000 C 
ATOM      2  C   UNL     1       1.568   0.577   0.000  0.00  0.00    +0.000 C 
ATOM      3  C   UNL     1      -0.052  -0.891   0.000  0.00  0.00    +0.000 C 
ATOM      4  C   UNL     1       0.659  -0.526   0.000  0.00  0.00    +0.000 C 
ATOM      5  C   UNL     1      -0.742  -0.539   0.000  0.00  0.00    +0.000 C 
ATOM      6  C   UNL     1      -1.454  -1.756   0.000  0.00  0.00    +0.000 C 
ATOM      7  C   UNL     1      -0.062   0.663   0.000  0.00  0.00    +0.000 C 
ATOM      8  C   UNL     1      -1.454  -0.965   0.000  0.00  0.00    +0.000 C 
ATOM      9  C   UNL     1      -0.742   0.262   0.000  0.00  0.00    +0.000 C 
ATOM     10  C   UNL     1      -2.163  -2.160   0.000  0.00  0.00    +0.000 C 
ATOM     11  C   UNL     1       2.064  -0.052   0.000  0.00  0.00    +0.000 C 
ATOM     12  C   UNL     1       1.645  -0.777   0.000  0.00  0.00    +0.000 C 
ATOM     13  C   UNL     1      -0.052  -1.746   0.000  0.00  0.00    +0.000 C 
ATOM     14  C   UNL     1      -2.172  -0.548   0.000  0.00  0.00    +0.000 C 
ATOM     15  C   UNL     1      -0.733  -2.150   0.000  0.00  0.00    +0.000 C 
ATOM     16  C   UNL     1      -2.884  -1.778   0.000  0.00  0.00    +0.000 C 
ATOM     17  O   UNL     1      -3.609  -2.198   0.000  0.00  0.00    +0.000 OA
ATOM     18  C   UNL     1       0.650   1.209   0.000  0.00  0.00    +0.000 C 
ATOM     19  C   UNL     1      -2.884  -0.965   0.000  0.00  0.00    +0.000 C 
ATOM     20  C   UNL     1      -1.657   0.863   0.000  0.00  0.00    +0.000 C 
ENDROOT
BRANCH   2  21
ATOM     21  C   UNL     1       1.702   1.473   0.000  0.00  0.00    +0.000 C 
ATOM     22  O   UNL     1       2.713   1.921   0.000  0.00  0.00    +0.000 OA
ATOM     23  C   UNL     1       1.127   2.198   0.000  0.00  0.00    +0.000 C 
ENDBRANCH   2  21
BRANCH   2  24
ATOM     24  O   UNL     1       2.493   0.863   0.000  0.00  0.00    +0.000 OA
BRANCH  24  25
ATOM     25  C   UNL     1       3.208   0.415   0.000  0.00  0.00    +0.000 C 
ATOM     26  O   UNL     1       3.399  -0.205   0.000  0.00  0.00    +0.000 OA
ATOM     27  C   UNL     1       3.609   1.273   0.000  0.00  0.00    +0.000 C 
ENDBRANCH  24  25
ENDBRANCH   2  24
TORSDOF 3
