REMARK  Name = 
REMARK  6 active torsions:
REMARK  status: ('A' for Active; 'I' for Inactive)
REMARK    1  A    between atoms: O_1  and  C_8
REMARK    2  A    between atoms: O_1  and  C_16
REMARK    3  A    between atoms: N_5  and  C_9
REMARK    4  A    between atoms: N_6  and  C_13
REMARK    5  A    between atoms: C_9  and  C_14
REMARK    6  A    between atoms: C_13  and  C_18
REMARK                            x       y       z     vdW  Elec       q    Type
REMARK                         _______ _______ _______ _____ _____    ______ ____
ROOT
ATOM      1  C   UNL     1      -0.221   0.206   0.000  0.00  0.00    +0.000 C 
ATOM      2  C   UNL     1      -0.221   1.031   0.000  0.00  0.00    +0.000 C 
ENDROOT
BRANCH   1   5
ATOM      3  O   UNL     1       0.493  -1.031   0.000  0.00  0.00    +0.000 OA
ATOM      4  N   UNL     1       1.208   0.206   0.000  0.00  0.00    +0.000 N 
ATOM      5  C   UNL     1       0.493  -0.206   0.000  0.00  0.00    +0.000 C 
ATOM      6  H   UNL     1       1.208   0.718   0.000  0.00  0.00    +0.000 HD
BRANCH   4   7
ATOM      7  C   UNL     1       1.922  -0.206   0.000  0.00  0.00    +0.000 C 
ATOM      8  C   UNL     1       1.922  -1.031   0.000  0.00  0.00    +0.000 C 
BRANCH   7  11
ATOM      9  O   UNL     1       2.636   1.031   0.000  0.00  0.00    +0.000 OA
ATOM     10  N   UNL     1       3.351  -0.206   0.000  0.00  0.00    +0.000 N 
ATOM     11  C   UNL     1       2.636   0.206   0.000  0.00  0.00    +0.000 C 
ATOM     12  H   UNL     1       3.794   0.049   0.000  0.00  0.00    +0.000 HD
ATOM     13  H   UNL     1       3.351  -0.718   0.000  0.00  0.00    +0.000 HD
ENDBRANCH   7  11
ENDBRANCH   4   7
ENDBRANCH   1   5
BRANCH   1  15
ATOM     14  O   UNL     1      -1.651   1.031   0.000  0.00  0.00    +0.000 OA
ATOM     15  N   UNL     1      -0.936  -0.206   0.000  0.00  0.00    +0.000 N 
ATOM     16  C   UNL     1      -1.651   0.206   0.000  0.00  0.00    +0.000 C 
ATOM     17  H   UNL     1      -0.936  -0.718   0.000  0.00  0.00    +0.000 HD
BRANCH  16  18
ATOM     18  O   UNL     1      -2.365  -0.206   0.000  0.00  0.00    +0.000 OA
BRANCH  18  19
ATOM     19  C   UNL     1      -3.079   0.206   0.000  0.00  0.00    +0.000 C 
ATOM     20  C   UNL     1      -3.794   0.619   0.000  0.00  0.00    +0.000 C 
ATOM     21  C   UNL     1      -3.492  -0.508   0.000  0.00  0.00    +0.000 C 
ATOM     22  C   UNL     1      -2.667   0.921   0.000  0.00  0.00    +0.000 C 
ENDBRANCH  18  19
ENDBRANCH  16  18
ENDBRANCH   1  15
TORSDOF 6
