REMARK  Name = 
REMARK  8 active torsions:
REMARK  status: ('A' for Active; 'I' for Inactive)
REMARK    1  A    between atoms: C_1  and  N_26
REMARK    2  A    between atoms: C_2  and  N_3
REMARK    3  A    between atoms: C_6  and  O_7
REMARK    4  A    between atoms: C_11  and  O_12
REMARK    5  A    between atoms: C_17  and  S_19
REMARK    6  A    between atoms: S_19  and  C_20
REMARK    7  A    between atoms: C_27  and  C_28
REMARK    8  A    between atoms: C_28  and  O_29
REMARK                            x       y       z     vdW  Elec       q    Type
REMARK                         _______ _______ _______ _____ _____    ______ ____
ROOT
ATOM      1  C   UNL     1       0.000   0.206   0.000  0.00  0.00    +0.000 A 
ATOM      2  C   UNL     1      -0.714  -0.206   0.000  0.00  0.00    +0.000 A 
ATOM      3  C   UNL     1      -1.429   0.206   0.000  0.00  0.00    +0.000 A 
ATOM      4  C   UNL     1      -1.429   1.031   0.000  0.00  0.00    +0.000 A 
ATOM      5  C   UNL     1      -0.714   1.444   0.000  0.00  0.00    +0.000 A 
ATOM      6  C   UNL     1       0.000   1.031   0.000  0.00  0.00    +0.000 A 
ENDROOT
BRANCH   2   7
ATOM      7  N   UNL     1      -0.714  -1.031   0.000  0.00  0.00    +0.000 NA
ATOM      8  C   UNL     1      -1.429  -1.444   0.000  0.00  0.00    +0.000 C 
ATOM      9  N   UNL     1      -1.429  -2.269   0.000  0.00  0.00    +0.000 NA
ATOM     10  C   UNL     1      -0.714  -2.681   0.000  0.00  0.00    +0.000 C 
ATOM     11  O   UNL     1       0.000  -2.269   0.000  0.00  0.00    +0.000 OA
ATOM     12  N   UNL     1      -2.143  -1.031   0.000  0.00  0.00    +0.000 NA
ATOM     13  C   UNL     1      -2.858  -1.444   0.000  0.00  0.00    +0.000 C 
ATOM     14  O   UNL     1      -2.858  -2.269   0.000  0.00  0.00    +0.000 OA
BRANCH  13  15
ATOM     15  O   UNL     1      -3.572  -1.031   0.000  0.00  0.00    +0.000 OA
ATOM     16  C   UNL     1      -3.572  -0.206   0.000  0.00  0.00    +0.000 C 
ENDBRANCH  13  15
BRANCH  10  17
ATOM     17  O   UNL     1      -0.714  -3.506   0.000  0.00  0.00    +0.000 OA
ATOM     18  C   UNL     1      -1.429  -3.919   0.000  0.00  0.00    +0.000 C 
ENDBRANCH  10  17
ENDBRANCH   2   7
BRANCH   1  19
ATOM     19  N   UNL     1       0.714  -0.206   0.000  0.00  0.00    +0.000 NA
ATOM     20  C   UNL     1       1.429   0.206   0.000  0.00  0.00    +0.000 C 
ATOM     21  O   UNL     1       1.429   1.031   0.000  0.00  0.00    +0.000 OA
BRANCH  20  22
ATOM     22  C   UNL     1       2.143  -0.206   0.000  0.00  0.00    +0.000 C 
BRANCH  22  23
ATOM     23  O   UNL     1       2.858   0.206   0.000  0.00  0.00    +0.000 OA
ATOM     24  C   UNL     1       3.572  -0.206   0.000  0.00  0.00    +0.000 C 
ENDBRANCH  22  23
ENDBRANCH  20  22
ENDBRANCH   1  19
BRANCH   5  25
ATOM     25  S   UNL     1      -0.714   2.269   0.000  0.00  0.00    +0.000 S 
BRANCH  25  26
ATOM     26  C   UNL     1       0.000   2.681   0.000  0.00  0.00    +0.000 A 
ATOM     27  C   UNL     1       0.000   3.506   0.000  0.00  0.00    +0.000 A 
ATOM     28  C   UNL     1       0.714   3.919   0.000  0.00  0.00    +0.000 A 
ATOM     29  C   UNL     1       1.429   3.506   0.000  0.00  0.00    +0.000 A 
ATOM     30  C   UNL     1       1.429   2.681   0.000  0.00  0.00    +0.000 A 
ATOM     31  C   UNL     1       0.714   2.269   0.000  0.00  0.00    +0.000 A 
ENDBRANCH  25  26
ENDBRANCH   5  25
TORSDOF 8
