REMARK  Name = 
REMARK  41 active torsions:
REMARK  status: ('A' for Active; 'I' for Inactive)
REMARK    1  A    between atoms: C_1  and  C_3
REMARK    2  A    between atoms: C_3  and  N_4
REMARK    3  A    between atoms: C_7  and  C_9
REMARK    4  A    between atoms: C_14  and  C_16
REMARK    5  A    between atoms: C_16  and  N_17
REMARK    6  A    between atoms: C_16  and  C_20
REMARK    7  A    between atoms: N_18  and  C_19
REMARK    8  A    between atoms: N_18  and  C_23
REMARK    9  A    between atoms: C_19  and  C_21
REMARK   10  A    between atoms: C_20  and  C_22
REMARK   11  A    between atoms: C_21  and  C_22
REMARK   12  A    between atoms: C_26  and  C_27
REMARK   13  A    between atoms: C_27  and  C_29
REMARK   14  A    between atoms: C_27  and  N_30
REMARK   15  A    between atoms: C_29  and  C_31
REMARK   16  A    between atoms: C_34  and  C_36
REMARK   17  A    between atoms: C_36  and  N_37
REMARK   18  A    between atoms: C_36  and  C_40
REMARK   19  A    between atoms: N_38  and  C_39
REMARK   20  A    between atoms: C_39  and  C_41
REMARK   21  A    between atoms: C_40  and  C_42
REMARK   22  A    between atoms: C_41  and  C_42
REMARK   23  A    between atoms: C_46  and  C_47
REMARK   24  A    between atoms: C_47  and  C_49
REMARK   25  A    between atoms: C_47  and  N_51
REMARK   26  A    between atoms: C_49  and  C_50
REMARK   27  A    between atoms: C_58  and  CA_59
REMARK   28  A    between atoms: CA_59  and  N_61
REMARK   29  A    between atoms: CA_59  and  C_62
REMARK   30  A    between atoms: C_64  and  CA_66
REMARK   31  A    between atoms: CA_66  and  N_67
REMARK   32  A    between atoms: CA_66  and  C_68
REMARK   33  A    between atoms: C_68  and  C_73
REMARK   34  A    between atoms: C_75  and  CA_76
REMARK   35  A    between atoms: CA_76  and  C_78
REMARK   36  A    between atoms: CA_76  and  N_79
REMARK   37  A    between atoms: C_78  and  C_80
REMARK   38  A    between atoms: C_87  and  CA_89
REMARK   39  A    between atoms: CA_89  and  N_90
REMARK   40  A    between atoms: CA_89  and  C_91
REMARK   41  A    between atoms: C_91  and  C_98
REMARK                            x       y       z     vdW  Elec       q    Type
REMARK                         _______ _______ _______ _____ _____    ______ ____
ROOT
ATOM      1  C   UNL     1       0.138   1.852   0.000  0.00  0.00    +0.000 C 
ENDROOT
BRANCH   1   2
ATOM      2  N   UNL     1      -0.571   1.438   0.000  0.00  0.00    +0.000 NA
ATOM      3  C   UNL     1      -1.281   1.852   0.000  0.00  0.00    +0.000 C 
ATOM      4  O   UNL     1      -1.990   1.438   0.000  0.00  0.00    +0.000 OA
BRANCH   3   5
ATOM      5  CA  UNL     1      -1.281   2.680   0.000  0.00  0.00    +0.000 C 
BRANCH   5   6
ATOM      6  N   UNL     1      -1.990   3.094   0.000  0.00  0.00    +0.000 NA
ATOM      7  C   UNL     1      -2.719   2.680   0.000  0.00  0.00    +0.000 C 
ATOM      8  O   UNL     1      -2.719   1.852   0.000  0.00  0.00    +0.000 OA
BRANCH   7   9
ATOM      9  CA  UNL     1      -3.428   3.094   0.000  0.00  0.00    +0.000 C 
BRANCH   9  10
ATOM     10  N   UNL     1      -4.138   2.680   0.000  0.00  0.00    +0.000 NA
ATOM     11  C   UNL     1      -4.138   1.852   0.000  0.00  0.00    +0.000 C 
ATOM     12  O   UNL     1      -3.428   1.438   0.000  0.00  0.00    +0.000 OA
BRANCH  11  13
ATOM     13  CA  UNL     1      -4.847   1.438   0.000  0.00  0.00    +0.000 C 
BRANCH  13  14
ATOM     14  N   UNL     1      -5.556   1.852   0.000  0.00  0.00    +0.000 NA
ATOM     15  C   UNL     1      -6.285   1.438   0.000  0.00  0.00    +0.000 C 
ATOM     16  O   UNL     1      -6.285   0.611   0.000  0.00  0.00    +0.000 OA
BRANCH  15  17
ATOM     17  CA  UNL     1      -6.995   1.852   0.000  0.00  0.00    +0.000 C 
BRANCH  17  18
ATOM     18  N   UNL     1      -7.704   1.438   0.000  0.00  0.00    +0.000 NA
ATOM     19  C   UNL     1      -7.704   0.630   0.000  0.00  0.00    +0.000 C 
ATOM     20  O   UNL     1      -6.995   0.217   0.000  0.00  0.00    +0.000 OA
ATOM     21  C   UNL     1      -8.433   0.217   0.000  0.00  0.00    +0.000 C 
ENDBRANCH  17  18
BRANCH  17  22
ATOM     22  C   UNL     1      -6.995   2.680   0.000  0.00  0.00    +0.000 C 
BRANCH  22  29
ATOM     23  C   UNL     1      -8.414   4.335   0.000  0.00  0.00    +0.000 A 
ATOM     24  C   UNL     1      -9.143   3.921   0.000  0.00  0.00    +0.000 A 
ATOM     25  C   UNL     1      -8.414   5.162   0.000  0.00  0.00    +0.000 A 
ATOM     26  C   UNL     1      -9.852   4.335   0.000  0.00  0.00    +0.000 A 
ATOM     27  C   UNL     1      -9.143   3.094   0.000  0.00  0.00    +0.000 A 
ATOM     28  C   UNL     1      -7.704   3.921   0.000  0.00  0.00    +0.000 A 
ATOM     29  C   UNL     1      -7.704   3.094   0.000  0.00  0.00    +0.000 A 
ATOM     30  C   UNL     1      -8.433   2.680   0.000  0.00  0.00    +0.000 A 
ATOM     31  C   UNL     1      -9.852   5.162   0.000  0.00  0.00    +0.000 A 
ATOM     32  C   UNL     1      -9.143   5.576   0.000  0.00  0.00    +0.000 A 
ENDBRANCH  22  29
ENDBRANCH  17  22
ENDBRANCH  15  17
ENDBRANCH  13  14
BRANCH  13  33
ATOM     33  C   UNL     1      -4.847   0.611   0.000  0.00  0.00    +0.000 C 
BRANCH  33  34
ATOM     34  C   UNL     1      -4.138   0.197   0.000  0.00  0.00    +0.000 A 
ATOM     35  C   UNL     1      -4.138  -0.611   0.000  0.00  0.00    +0.000 A 
ATOM     36  C   UNL     1      -3.428   0.611   0.000  0.00  0.00    +0.000 A 
ATOM     37  C   UNL     1      -2.719   0.197   0.000  0.00  0.00    +0.000 A 
ATOM     38  C   UNL     1      -3.428  -1.044   0.000  0.00  0.00    +0.000 A 
ATOM     39  C   UNL     1      -2.719  -0.630   0.000  0.00  0.00    +0.000 A 
ATOM     40 CL   UNL     1      -1.990  -1.044   0.000  0.00  0.00    +0.000 Cl
ENDBRANCH  33  34
ENDBRANCH  13  33
ENDBRANCH  11  13
ENDBRANCH   9  10
BRANCH   9  41
ATOM     41  C   UNL     1      -3.428   3.921   0.000  0.00  0.00    +0.000 C 
BRANCH  41  46
ATOM     42  N   UNL     1      -4.847   5.576   0.000  0.00  0.00    +0.000 NA
ATOM     43  C   UNL     1      -4.138   5.162   0.000  0.00  0.00    +0.000 A 
ATOM     44  C   UNL     1      -5.556   5.162   0.000  0.00  0.00    +0.000 A 
ATOM     45  C   UNL     1      -5.556   4.315   0.000  0.00  0.00    +0.000 A 
ATOM     46  C   UNL     1      -4.138   4.315   0.000  0.00  0.00    +0.000 A 
ATOM     47  C   UNL     1      -4.847   3.921   0.000  0.00  0.00    +0.000 A 
ENDBRANCH  41  46
ENDBRANCH   9  41
ENDBRANCH   7   9
ENDBRANCH   5   6
BRANCH   5  48
ATOM     48  C   UNL     1      -0.571   3.074   0.000  0.00  0.00    +0.000 C 
ATOM     49  O   UNL     1      -0.571   3.901   0.000  0.00  0.00    +0.000 OA
ENDBRANCH   5  48
ENDBRANCH   3   5
ENDBRANCH   1   2
BRANCH   1  51
ATOM     50  N   UNL     1       0.867   0.611   0.000  0.00  0.00    +0.000 NA
ATOM     51  C   UNL     1       0.867   1.438   0.000  0.00  0.00    +0.000 C 
ATOM     52  O   UNL     1       1.576   1.852   0.000  0.00  0.00    +0.000 OA
BRANCH  50  53
ATOM     53  C   UNL     1       1.576   0.197   0.000  0.00  0.00    +0.000 C 
BRANCH  53  55
ATOM     54  N   UNL     1       2.995   0.197   0.000  0.00  0.00    +0.000 NA
ATOM     55  C   UNL     1       2.286   0.611   0.000  0.00  0.00    +0.000 C 
ATOM     56  O   UNL     1       2.286   1.438   0.000  0.00  0.00    +0.000 OA
BRANCH  54  57
ATOM     57  C   UNL     1       3.704   0.611   0.000  0.00  0.00    +0.000 C 
BRANCH  57  59
ATOM     58  N   UNL     1       4.433  -0.630   0.000  0.00  0.00    +0.000 NA
ATOM     59  C   UNL     1       4.433   0.197   0.000  0.00  0.00    +0.000 C 
ATOM     60  O   UNL     1       5.143   0.611   0.000  0.00  0.00    +0.000 OA
BRANCH  58  61
ATOM     61  C   UNL     1       5.143  -1.044   0.000  0.00  0.00    +0.000 C 
BRANCH  61  67
ATOM     62  N   UNL     1       6.561  -1.044   0.000  0.00  0.00    +0.000 N 
ATOM     63  C   UNL     1       7.330  -0.709   0.000  0.00  0.00    +0.000 C 
ATOM     64  C   UNL     1       6.660  -1.872   0.000  0.00  0.00    +0.000 C 
ATOM     65  C   UNL     1       7.862  -1.340   0.000  0.00  0.00    +0.000 C 
ATOM     66  C   UNL     1       7.448  -2.049   0.000  0.00  0.00    +0.000 C 
ATOM     67  C   UNL     1       5.852  -0.630   0.000  0.00  0.00    +0.000 C 
ATOM     68  O   UNL     1       5.852   0.197   0.000  0.00  0.00    +0.000 OA
BRANCH  63  70
ATOM     69  N   UNL     1       8.276   0.335   0.000  0.00  0.00    +0.000 NA
ATOM     70  C   UNL     1       7.487   0.099   0.000  0.00  0.00    +0.000 C 
ATOM     71  O   UNL     1       6.896   0.650   0.000  0.00  0.00    +0.000 OA
BRANCH  69  72
ATOM     72  C   UNL     1       8.453   1.143   0.000  0.00  0.00    +0.000 C 
ATOM     73  C   UNL     1       7.842   1.694   0.000  0.00  0.00    +0.000 C 
BRANCH  72  74
ATOM     74  C   UNL     1       9.241   1.399   0.000  0.00  0.00    +0.000 C 
ATOM     75  O   UNL     1       9.852   0.847   0.000  0.00  0.00    +0.000 OA
ATOM     76  N   UNL     1       9.418   2.207   0.000  0.00  0.00    +0.000 NA
ENDBRANCH  72  74
ENDBRANCH  69  72
ENDBRANCH  63  70
ENDBRANCH  61  67
BRANCH  61  77
ATOM     77  C   UNL     1       5.143  -1.872   0.000  0.00  0.00    +0.000 C 
BRANCH  77  78
ATOM     78  C   UNL     1       4.414  -2.286   0.000  0.00  0.00    +0.000 C 
BRANCH  78  79
ATOM     79  C   UNL     1       4.414  -3.113   0.000  0.00  0.00    +0.000 C 
BRANCH  79  80
ATOM     80  C   UNL     1       3.704  -3.507   0.000  0.00  0.00    +0.000 C 
BRANCH  80  81
ATOM     81  N   UNL     1       3.704  -4.335   0.000  0.00  0.00    +0.000 NA
BRANCH  81  82
ATOM     82  C   UNL     1       2.995  -4.748   0.000  0.00  0.00    +0.000 C 
ATOM     83  C   UNL     1       2.286  -4.335   0.000  0.00  0.00    +0.000 C 
ATOM     84  C   UNL     1       2.995  -5.576   0.000  0.00  0.00    +0.000 C 
ENDBRANCH  81  82
ENDBRANCH  80  81
ENDBRANCH  79  80
ENDBRANCH  78  79
ENDBRANCH  77  78
ENDBRANCH  61  77
ENDBRANCH  58  61
ENDBRANCH  57  59
BRANCH  57  85
ATOM     85  C   UNL     1       3.704   1.438   0.000  0.00  0.00    +0.000 C 
BRANCH  85  86
ATOM     86  C   UNL     1       4.433   1.833   0.000  0.00  0.00    +0.000 C 
ATOM     87  C   UNL     1       5.143   1.419   0.000  0.00  0.00    +0.000 C 
ATOM     88  C   UNL     1       4.433   2.660   0.000  0.00  0.00    +0.000 C 
ENDBRANCH  85  86
ENDBRANCH  57  85
ENDBRANCH  54  57
ENDBRANCH  53  55
BRANCH  53  89
ATOM     89  C   UNL     1       1.576  -0.630   0.000  0.00  0.00    +0.000 C 
BRANCH  89  90
ATOM     90  C   UNL     1       0.847  -1.044   0.000  0.00  0.00    +0.000 C 
BRANCH  90  91
ATOM     91  C   UNL     1       0.847  -1.872   0.000  0.00  0.00    +0.000 C 
BRANCH  91  92
ATOM     92  C   UNL     1       0.138  -2.266   0.000  0.00  0.00    +0.000 C 
BRANCH  92  93
ATOM     93  N   UNL     1       0.138  -3.093   0.000  0.00  0.00    +0.000 NA
ATOM     94  C   UNL     1      -0.571  -3.507   0.000  0.00  0.00    +0.000 C 
ATOM     95  O   UNL     1      -1.281  -3.093   0.000  0.00  0.00    +0.000 OA
ATOM     96  N   UNL     1      -0.571  -4.335   0.000  0.00  0.00    +0.000 NA
ENDBRANCH  92  93
ENDBRANCH  91  92
ENDBRANCH  90  91
ENDBRANCH  89  90
ENDBRANCH  53  89
ENDBRANCH  50  53
ENDBRANCH   1  51
BRANCH   1  97
ATOM     97  C   UNL     1       0.138   2.680   0.000  0.00  0.00    +0.000 C 
BRANCH  97  98
ATOM     98  C   UNL     1       0.867   3.074   0.000  0.00  0.00    +0.000 A 
ATOM     99  C   UNL     1       2.286   3.901   0.000  0.00  0.00    +0.000 A 
ATOM    100  C   UNL     1       0.867   3.901   0.000  0.00  0.00    +0.000 A 
ATOM    101  C   UNL     1       1.576   2.660   0.000  0.00  0.00    +0.000 A 
ATOM    102  C   UNL     1       1.576   4.315   0.000  0.00  0.00    +0.000 A 
ATOM    103  C   UNL     1       2.286   3.074   0.000  0.00  0.00    +0.000 A 
ATOM    104  O   UNL     1       3.015   4.315   0.000  0.00  0.00    +0.000 OA
ENDBRANCH  97  98
ENDBRANCH   1  97
TORSDOF 41
