REMARK  Name = 
REMARK  3 active torsions:
REMARK  status: ('A' for Active; 'I' for Inactive)
REMARK    1  A    between atoms: C_4  and  C_7
REMARK    2  A    between atoms: C_10  and  C_13
REMARK    3  A    between atoms: C_16  and  C_19
REMARK                            x       y       z     vdW  Elec       q    Type
REMARK                         _______ _______ _______ _____ _____    ______ ____
ROOT
ATOM      1  C   UNL     1       0.715  -5.362   0.000  0.00  0.00    +0.000 A 
ATOM      2  C   UNL     1       0.000  -4.950   0.000  0.00  0.00    +0.000 A 
ATOM      3  C   UNL     1       0.000  -4.125   0.000  0.00  0.00    +0.000 A 
ATOM      4  C   UNL     1       0.715  -3.712   0.000  0.00  0.00    +0.000 A 
ATOM      5  C   UNL     1       1.429  -4.125   0.000  0.00  0.00    +0.000 A 
ATOM      6  C   UNL     1       1.429  -4.950   0.000  0.00  0.00    +0.000 A 
ENDROOT
BRANCH   1  10
ATOM      7  C   UNL     1       0.715  -7.838   0.000  0.00  0.00    +0.000 A 
ATOM      8  C   UNL     1       0.000  -7.425   0.000  0.00  0.00    +0.000 A 
ATOM      9  C   UNL     1       0.000  -6.600   0.000  0.00  0.00    +0.000 A 
ATOM     10  C   UNL     1       0.715  -6.188   0.000  0.00  0.00    +0.000 A 
ATOM     11  C   UNL     1       1.429  -6.600   0.000  0.00  0.00    +0.000 A 
ATOM     12  C   UNL     1       1.429  -7.425   0.000  0.00  0.00    +0.000 A 
ENDBRANCH   1  10
BRANCH   4  13
ATOM     13  C   UNL     1       0.715  -2.888   0.000  0.00  0.00    +0.000 A 
ATOM     14  C   UNL     1       0.000  -2.475   0.000  0.00  0.00    +0.000 A 
ATOM     15  C   UNL     1       0.000  -1.650   0.000  0.00  0.00    +0.000 A 
ATOM     16  C   UNL     1       0.715  -1.238   0.000  0.00  0.00    +0.000 A 
ATOM     17  C   UNL     1       1.429  -1.650   0.000  0.00  0.00    +0.000 A 
ATOM     18  C   UNL     1       1.429  -2.475   0.000  0.00  0.00    +0.000 A 
BRANCH  16  19
ATOM     19  C   UNL     1       0.715  -0.412   0.000  0.00  0.00    +0.000 A 
ATOM     20  C   UNL     1       0.000   0.000   0.000  0.00  0.00    +0.000 A 
ATOM     21  C   UNL     1       0.000   0.825   0.000  0.00  0.00    +0.000 A 
ATOM     22  C   UNL     1       0.715   1.238   0.000  0.00  0.00    +0.000 A 
ATOM     23  C   UNL     1       1.429   0.825   0.000  0.00  0.00    +0.000 A 
ATOM     24  C   UNL     1       1.429   0.000   0.000  0.00  0.00    +0.000 A 
ENDBRANCH  16  19
ENDBRANCH   4  13
TORSDOF 3
