REMARK  Name = 
REMARK  5 active torsions:
REMARK  status: ('A' for Active; 'I' for Inactive)
REMARK    1  A    between atoms: C_5  and  N_13
REMARK    2  A    between atoms: C_8  and  C_11
REMARK    3  A    between atoms: N_13  and  S_14
REMARK    4  A    between atoms: S_14  and  C_17
REMARK    5  A    between atoms: C_21  and  C_23
REMARK                            x       y       z     vdW  Elec       q    Type
REMARK                         _______ _______ _______ _____ _____    ______ ____
ROOT
ATOM      1  C   UNL     1       3.279   2.062   0.000  0.00  0.00    +0.000 C 
ATOM      2  C   UNL     1       3.279   1.238   0.000  0.00  0.00    +0.000 A 
ATOM      3  C   UNL     1       3.993   0.825   0.000  0.00  0.00    +0.000 A 
ATOM      4  C   UNL     1       3.993   0.000   0.000  0.00  0.00    +0.000 A 
ATOM      5  C   UNL     1       3.279  -0.412   0.000  0.00  0.00    +0.000 A 
ATOM      6  C   UNL     1       2.564   0.000   0.000  0.00  0.00    +0.000 A 
ATOM      7  C   UNL     1       2.564   0.825   0.000  0.00  0.00    +0.000 A 
ATOM      8  C   UNL     1       1.780   1.080   0.000  0.00  0.00    +0.000 A 
ATOM      9  C   UNL     1       1.295   0.412   0.000  0.00  0.00    +0.000 A 
ATOM     10  N   UNL     1       1.780  -0.255   0.000  0.00  0.00    +0.000 NA
ENDROOT
BRANCH   8  11
ATOM     11  C   UNL     1       1.525   1.865   0.000  0.00  0.00    +0.000 C 
ATOM     12  N   UNL     1       1.270   2.649   0.000  0.00  0.00    +0.000 NA
ENDBRANCH   8  11
BRANCH   5  13
ATOM     13  N   UNL     1       3.279  -1.238   0.000  0.00  0.00    +0.000 NA
BRANCH  13  14
ATOM     14  S   UNL     1       3.993  -1.650   0.000  0.00  0.00    +0.000 S 
ATOM     15  O   UNL     1       3.581  -2.365   0.000  0.00  0.00    +0.000 OA
ATOM     16  O   UNL     1       4.406  -0.935   0.000  0.00  0.00    +0.000 OA
BRANCH  14  17
ATOM     17  C   UNL     1       4.708  -2.062   0.000  0.00  0.00    +0.000 A 
ATOM     18  C   UNL     1       5.422  -1.650   0.000  0.00  0.00    +0.000 A 
ATOM     19  C   UNL     1       6.137  -2.062   0.000  0.00  0.00    +0.000 A 
ATOM     20  C   UNL     1       6.137  -2.888   0.000  0.00  0.00    +0.000 A 
ATOM     21  C   UNL     1       5.422  -3.300   0.000  0.00  0.00    +0.000 A 
ATOM     22  C   UNL     1       4.708  -2.888   0.000  0.00  0.00    +0.000 A 
BRANCH  21  23
ATOM     23  C   UNL     1       5.422  -4.125   0.000  0.00  0.00    +0.000 C 
ATOM     24  N   UNL     1       5.422  -4.950   0.000  0.00  0.00    +0.000 NA
ENDBRANCH  21  23
ENDBRANCH  14  17
ENDBRANCH  13  14
ENDBRANCH   5  13
TORSDOF 5
