REMARK  Name = 
REMARK  7 active torsions:
REMARK  status: ('A' for Active; 'I' for Inactive)
REMARK    1  A    between atoms: C_1  and  N_4
REMARK    2  A    between atoms: C_9  and  C_12
REMARK    3  A    between atoms: C_12  and  N_15
REMARK    4  A    between atoms: N_15  and  C_16
REMARK    5  A    between atoms: N_15  and  C_17
REMARK    6  A    between atoms: C_16  and  C_18
REMARK    7  A    between atoms: C_17  and  C_19
REMARK                            x       y       z     vdW  Elec       q    Type
REMARK                         _______ _______ _______ _____ _____    ______ ____
ROOT
ATOM      1  N   UNL     1      -0.357  -0.619   0.000  0.00  0.00    +0.000 NA
ATOM      2  C   UNL     1       0.357  -0.206   0.000  0.00  0.00    +0.000 C 
ATOM      3  O   UNL     1       0.357   0.619   0.000  0.00  0.00    +0.000 OA
ENDROOT
BRANCH   1   4
ATOM      4  C   UNL     1      -1.072  -0.206   0.000  0.00  0.00    +0.000 A 
ATOM      5  C   UNL     1      -1.072   0.619   0.000  0.00  0.00    +0.000 A 
ATOM      6  C   UNL     1      -1.786  -0.619   0.000  0.00  0.00    +0.000 A 
ATOM      7  C   UNL     1      -1.786   1.031   0.000  0.00  0.00    +0.000 A 
ATOM      8  C   UNL     1      -0.357   1.031   0.000  0.00  0.00    +0.000 C 
ATOM      9  C   UNL     1      -2.501  -0.206   0.000  0.00  0.00    +0.000 A 
ATOM     10  C   UNL     1      -1.786  -1.444   0.000  0.00  0.00    +0.000 C 
ATOM     11  C   UNL     1      -2.501   0.619   0.000  0.00  0.00    +0.000 A 
ATOM     12 BR   UNL     1      -1.786   1.856   0.000  0.00  0.00    +0.000 Br
ATOM     13  C   UNL     1      -3.215   1.031   0.000  0.00  0.00    +0.000 C 
ENDBRANCH   1   4
BRANCH   2  14
ATOM     14  C   UNL     1       1.072  -0.619   0.000  0.00  0.00    +0.000 C 
BRANCH  14  15
ATOM     15  N   UNL     1       1.786  -0.206   0.000  0.00  0.00    +0.000 NA
BRANCH  15  16
ATOM     16  C   UNL     1       1.786   0.619   0.000  0.00  0.00    +0.000 C 
BRANCH  16  17
ATOM     17  C   UNL     1       2.501   1.031   0.000  0.00  0.00    +0.000 C 
ATOM     18  O   UNL     1       3.215   0.619   0.000  0.00  0.00    +0.000 OA
ATOM     19  O   UNL     1       2.501   1.856   0.000  0.00  0.00    +0.000 OA
ENDBRANCH  16  17
ENDBRANCH  15  16
BRANCH  15  20
ATOM     20  C   UNL     1       2.501  -0.619   0.000  0.00  0.00    +0.000 C 
BRANCH  20  21
ATOM     21  C   UNL     1       2.501  -1.444   0.000  0.00  0.00    +0.000 C 
ATOM     22  O   UNL     1       3.215  -1.856   0.000  0.00  0.00    +0.000 OA
ATOM     23  O   UNL     1       1.786  -1.856   0.000  0.00  0.00    +0.000 OA
ENDBRANCH  20  21
ENDBRANCH  15  20
ENDBRANCH  14  15
ENDBRANCH   2  14
TORSDOF 7
