REMARK  Name = 
REMARK  5 active torsions:
REMARK  status: ('A' for Active; 'I' for Inactive)
REMARK    1  A    between atoms: N_14  and  C_15
REMARK    2  A    between atoms: C_27  and  C_28
REMARK    3  A    between atoms: C_28  and  C_30
REMARK    4  A    between atoms: C_30  and  O_31
REMARK    5  A    between atoms: O_31  and  C_32
REMARK                            x       y       z     vdW  Elec       q    Type
REMARK                         _______ _______ _______ _____ _____    ______ ____
ROOT
ATOM      1  C   UNL     1       2.022  -1.547   0.000  0.00  0.00    +0.000 C 
ATOM      2  C   UNL     1       2.820  -1.757   0.000  0.00  0.00    +0.000 C 
ATOM      3  C   UNL     1       3.459  -1.235   0.000  0.00  0.00    +0.000 C 
ATOM      4  C   UNL     1       4.153  -1.681   0.000  0.00  0.00    +0.000 C 
ATOM      5  C   UNL     1       4.949  -1.464   0.000  0.00  0.00    +0.000 C 
ATOM      6  C   UNL     1       5.159  -0.666   0.000  0.00  0.00    +0.000 C 
ATOM      7  C   UNL     1       5.954  -0.448   0.000  0.00  0.00    +0.000 C 
ATOM      8  C   UNL     1       6.541  -1.029   0.000  0.00  0.00    +0.000 C 
ATOM      9  C   UNL     1       7.336  -0.812   0.000  0.00  0.00    +0.000 C 
ATOM     10  C   UNL     1       7.923  -1.392   0.000  0.00  0.00    +0.000 A 
ATOM     11  C   UNL     1       7.713  -2.190   0.000  0.00  0.00    +0.000 A 
ATOM     12  C   UNL     1       8.407  -2.636   0.000  0.00  0.00    +0.000 A 
ATOM     13  N   UNL     1       9.046  -2.114   0.000  0.00  0.00    +0.000 NA
ATOM     14  N   UNL     1       8.746  -1.345   0.000  0.00  0.00    +0.000 N 
ATOM     15  C   UNL     1       6.917  -2.407   0.000  0.00  0.00    +0.000 C 
ATOM     16  C   UNL     1       6.331  -1.827   0.000  0.00  0.00    +0.000 C 
ATOM     17  C   UNL     1       5.535  -2.044   0.000  0.00  0.00    +0.000 C 
ATOM     18  C   UNL     1       5.325  -2.842   0.000  0.00  0.00    +0.000 C 
ATOM     19  C   UNL     1       4.529  -3.059   0.000  0.00  0.00    +0.000 C 
ATOM     20  C   UNL     1       3.943  -2.479   0.000  0.00  0.00    +0.000 C 
ATOM     21  C   UNL     1       3.120  -2.526   0.000  0.00  0.00    +0.000 C 
ATOM     22  O   UNL     1       2.390  -2.912   0.000  0.00  0.00    +0.000 OA
ATOM     23  C   UNL     1       3.651  -3.250   0.000  0.00  0.00    +0.000 C 
ATOM     24  O   UNL     1       5.911  -3.423   0.000  0.00  0.00    +0.000 OA
ATOM     25  C   UNL     1       6.121  -2.625   0.000  0.00  0.00    +0.000 C 
ATOM     26  C   UNL     1       6.164   0.350   0.000  0.00  0.00    +0.000 C 
ENDROOT
BRANCH  14  27
ATOM     27  C   UNL     1       9.192  -0.651   0.000  0.00  0.00    +0.000 A 
ATOM     28  C   UNL     1       8.814   0.082   0.000  0.00  0.00    +0.000 A 
ATOM     29  C   UNL     1       9.260   0.776   0.000  0.00  0.00    +0.000 A 
ATOM     30  C   UNL     1      10.084   0.737   0.000  0.00  0.00    +0.000 A 
ATOM     31  C   UNL     1      10.462   0.004   0.000  0.00  0.00    +0.000 A 
ATOM     32  C   UNL     1      10.016  -0.690   0.000  0.00  0.00    +0.000 A 
ENDBRANCH  14  27
BRANCH  21  33
ATOM     33  C   UNL     1       3.072  -3.349   0.000  0.00  0.00    +0.000 C 
ATOM     34  O   UNL     1       3.761  -3.803   0.000  0.00  0.00    +0.000 OA
BRANCH  33  35
ATOM     35  C   UNL     1       2.334  -3.720   0.000  0.00  0.00    +0.000 C 
BRANCH  35  36
ATOM     36  O   UNL     1       2.287  -4.543   0.000  0.00  0.00    +0.000 OA
BRANCH  36  37
ATOM     37  C   UNL     1       1.549  -4.914   0.000  0.00  0.00    +0.000 C 
ATOM     38  O   UNL     1       1.502  -5.737   0.000  0.00  0.00    +0.000 OA
ATOM     39  C   UNL     1       0.860  -4.460   0.000  0.00  0.00    +0.000 C 
ENDBRANCH  36  37
ENDBRANCH  35  36
ENDBRANCH  33  35
ENDBRANCH  21  33
TORSDOF 5
