REMARK  Name = 
REMARK  11 active torsions:
REMARK  status: ('A' for Active; 'I' for Inactive)
REMARK    1  A    between atoms: C_2  and  O_3
REMARK    2  A    between atoms: O_3  and  C_4
REMARK    3  A    between atoms: N_8  and  S_28
REMARK    4  A    between atoms: C_14  and  O_17
REMARK    5  A    between atoms: O_17  and  C_18
REMARK    6  A    between atoms: C_18  and  C_19
REMARK    7  A    between atoms: C_19  and  N_20
REMARK    8  A    between atoms: S_28  and  C_31
REMARK    9  A    between atoms: C_34  and  C_39
REMARK   10  A    between atoms: C_36  and  O_37
REMARK   11  A    between atoms: N_41  and  C_42
REMARK                            x       y       z     vdW  Elec       q    Type
REMARK                         _______ _______ _______ _____ _____    ______ ____
ROOT
ATOM      1  C   UNL     1       0.427  -0.361   0.000  0.00  0.00    +0.000 A 
ATOM      2  C   UNL     1      -0.099   0.275   0.000  0.00  0.00    +0.000 A 
ATOM      3  C   UNL     1       0.188   1.048   0.000  0.00  0.00    +0.000 A 
ATOM      4  C   UNL     1       1.002   1.186   0.000  0.00  0.00    +0.000 A 
ATOM      5  N   UNL     1       1.444   1.883   0.000  0.00  0.00    +0.000 N 
ATOM      6  C   UNL     1       2.243   1.678   0.000  0.00  0.00    +0.000 C 
ATOM      7  O   UNL     1       2.878   2.204   0.000  0.00  0.00    +0.000 OA
ATOM      8  C   UNL     1       2.295   0.854   0.000  0.00  0.00    +0.000 C 
ATOM      9  C   UNL     1       3.026   1.237   0.000  0.00  0.00    +0.000 C 
ATOM     10  C   UNL     1       3.723   0.795   0.000  0.00  0.00    +0.000 C 
ATOM     11  C   UNL     1       3.688  -0.029   0.000  0.00  0.00    +0.000 C 
ATOM     12  C   UNL     1       2.957  -0.412   0.000  0.00  0.00    +0.000 C 
ATOM     13  C   UNL     1       2.261   0.030   0.000  0.00  0.00    +0.000 C 
ATOM     14  C   UNL     1       1.528   0.550   0.000  0.00  0.00    +0.000 A 
ATOM     15  C   UNL     1       1.241  -0.223   0.000  0.00  0.00    +0.000 A 
ENDROOT
BRANCH   5  16
ATOM     16  S   UNL     1       1.140   2.650   0.000  0.00  0.00    +0.000 S 
ATOM     17  O   UNL     1       1.907   2.954   0.000  0.00  0.00    +0.000 OA
ATOM     18  O   UNL     1       0.373   2.346   0.000  0.00  0.00    +0.000 OA
BRANCH  16  19
ATOM     19  C   UNL     1       0.836   3.417   0.000  0.00  0.00    +0.000 A 
ATOM     20  C   UNL     1       0.019   3.537   0.000  0.00  0.00    +0.000 A 
ATOM     21  C   UNL     1      -0.284   4.304   0.000  0.00  0.00    +0.000 A 
ATOM     22  C   UNL     1       0.228   4.950   0.000  0.00  0.00    +0.000 A 
ATOM     23  C   UNL     1       1.044   4.830   0.000  0.00  0.00    +0.000 A 
ATOM     24  C   UNL     1       1.348   4.063   0.000  0.00  0.00    +0.000 A 
BRANCH  22  25
ATOM     25  C   UNL     1      -0.076   5.717   0.000  0.00  0.00    +0.000 C 
ATOM     26  O   UNL     1      -0.892   5.838   0.000  0.00  0.00    +0.000 OA
ATOM     27  N   UNL     1       0.436   6.364   0.000  0.00  0.00    +0.000 NA
BRANCH  27  28
ATOM     28  C   UNL     1       0.132   7.131   0.000  0.00  0.00    +0.000 C 
ATOM     29  C   UNL     1      -0.172   7.898   0.000  0.00  0.00    +0.000 C 
ATOM     30  C   UNL     1       0.899   7.435   0.000  0.00  0.00    +0.000 C 
ATOM     31  C   UNL     1      -0.635   6.827   0.000  0.00  0.00    +0.000 C 
ENDBRANCH  27  28
ENDBRANCH  22  25
BRANCH  24  32
ATOM     32  O   UNL     1       2.164   3.943   0.000  0.00  0.00    +0.000 OA
ATOM     33  C   UNL     1       2.676   4.590   0.000  0.00  0.00    +0.000 C 
ENDBRANCH  24  32
ENDBRANCH  16  19
ENDBRANCH   5  16
BRANCH  11  34
ATOM     34  O   UNL     1       4.385  -0.471   0.000  0.00  0.00    +0.000 OA
BRANCH  34  35
ATOM     35  C   UNL     1       4.351  -1.295   0.000  0.00  0.00    +0.000 C 
BRANCH  35  36
ATOM     36  C   UNL     1       5.047  -1.737   0.000  0.00  0.00    +0.000 C 
BRANCH  36  37
ATOM     37  N   UNL     1       5.013  -2.562   0.000  0.00  0.00    +0.000 NA
ATOM     38  C   UNL     1       5.710  -3.003   0.000  0.00  0.00    +0.000 C 
ATOM     39  C   UNL     1       5.676  -3.828   0.000  0.00  0.00    +0.000 C 
ATOM     40  O   UNL     1       4.945  -4.210   0.000  0.00  0.00    +0.000 OA
ATOM     41  C   UNL     1       4.248  -3.768   0.000  0.00  0.00    +0.000 C 
ATOM     42  C   UNL     1       4.282  -2.944   0.000  0.00  0.00    +0.000 C 
ENDBRANCH  36  37
ENDBRANCH  35  36
ENDBRANCH  34  35
ENDBRANCH  11  34
BRANCH   1  43
ATOM     43  O   UNL     1       0.140  -1.134   0.000  0.00  0.00    +0.000 OA
BRANCH  43  45
ATOM     44  C   UNL     1       0.379  -2.543   0.000  0.00  0.00    +0.000 C 
ATOM     45  C   UNL     1       0.666  -1.770   0.000  0.00  0.00    +0.000 C 
ENDBRANCH  43  45
ENDBRANCH   1  43
TORSDOF 11
