REMARK  Name = 
REMARK  5 active torsions:
REMARK  status: ('A' for Active; 'I' for Inactive)
REMARK    1  A    between atoms: N_2  and  N_3
REMARK    2  A    between atoms: N_2  and  S_15
REMARK    3  A    between atoms: C_4  and  C_5
REMARK    4  A    between atoms: S_15  and  C_18
REMARK    5  A    between atoms: C_20  and  N_25
REMARK                            x       y       z     vdW  Elec       q    Type
REMARK                         _______ _______ _______ _____ _____    ______ ____
ROOT
ATOM      1  C   UNL     1       0.374  -3.719   0.000  0.00  0.00    +0.000 C 
ATOM      2  N   UNL     1      -0.178  -3.106   0.000  0.00  0.00    +0.000 N 
ENDROOT
BRANCH   2   3
ATOM      3  S   UNL     1      -0.985  -3.278   0.000  0.00  0.00    +0.000 S 
ATOM      4  O   UNL     1      -1.157  -2.471   0.000  0.00  0.00    +0.000 OA
ATOM      5  O   UNL     1      -0.814  -4.085   0.000  0.00  0.00    +0.000 OA
BRANCH   3   6
ATOM      6  C   UNL     1      -1.792  -3.449   0.000  0.00  0.00    +0.000 A 
ATOM      7  C   UNL     1      -2.047  -4.234   0.000  0.00  0.00    +0.000 A 
ATOM      8  C   UNL     1      -2.854  -4.405   0.000  0.00  0.00    +0.000 A 
ATOM      9  C   UNL     1      -3.406  -3.792   0.000  0.00  0.00    +0.000 A 
ATOM     10  C   UNL     1      -3.151  -3.008   0.000  0.00  0.00    +0.000 A 
ATOM     11  C   UNL     1      -2.344  -2.836   0.000  0.00  0.00    +0.000 A 
ATOM     12  C   UNL     1      -2.089  -2.051   0.000  0.00  0.00    +0.000 C 
BRANCH   8  13
ATOM     13  N   UNL     1      -3.109  -5.190   0.000  0.00  0.00    +0.000 N 
ATOM     14  O   UNL     1      -2.557  -5.803   0.000  0.00  0.00    +0.000 OA
ATOM     15  O   UNL     1      -3.916  -5.362   0.000  0.00  0.00    +0.000 OA
ENDBRANCH   8  13
ENDBRANCH   3   6
ENDBRANCH   2   3
BRANCH   2  16
ATOM     16  N   UNL     1       0.077  -2.321   0.000  0.00  0.00    +0.000 NA
ATOM     17  C   UNL     1       0.884  -2.150   0.000  0.00  0.00    +0.000 C 
BRANCH  17  18
ATOM     18  C   UNL     1       1.139  -1.365   0.000  0.00  0.00    +0.000 A 
ATOM     19  C   UNL     1       0.654  -0.698   0.000  0.00  0.00    +0.000 A 
ATOM     20  N   UNL     1       1.139  -0.030   0.000  0.00  0.00    +0.000 NA
ATOM     21  C   UNL     1       1.923  -0.285   0.000  0.00  0.00    +0.000 A 
ATOM     22  C   UNL     1       2.638   0.127   0.000  0.00  0.00    +0.000 A 
ATOM     23  C   UNL     1       3.352  -0.285   0.000  0.00  0.00    +0.000 A 
ATOM     24  C   UNL     1       3.352  -1.110   0.000  0.00  0.00    +0.000 A 
ATOM     25 BR   UNL     1       4.067  -1.523   0.000  0.00  0.00    +0.000 Br
ATOM     26  C   UNL     1       2.638  -1.523   0.000  0.00  0.00    +0.000 A 
ATOM     27  N   UNL     1       1.923  -1.110   0.000  0.00  0.00    +0.000 N 
ENDBRANCH  17  18
ENDBRANCH   2  16
TORSDOF 5
