REMARK  Name = 
REMARK  16 active torsions:
REMARK  status: ('A' for Active; 'I' for Inactive)
REMARK    1  A    between atoms: O_1  and  C_17
REMARK    2  A    between atoms: O_1  and  C_26
REMARK    3  A    between atoms: O_2  and  C_18
REMARK    4  A    between atoms: O_2  and  C_27
REMARK    5  A    between atoms: O_5  and  C_28
REMARK    6  A    between atoms: O_5  and  C_30
REMARK    7  A    between atoms: O_6  and  C_29
REMARK    8  A    between atoms: O_6  and  C_31
REMARK    9  A    between atoms: N_10  and  C_23
REMARK   10  A    between atoms: C_11  and  C_14
REMARK   11  A    between atoms: C_12  and  C_17
REMARK   12  A    between atoms: C_13  and  C_18
REMARK   13  A    between atoms: C_26  and  C_28
REMARK   14  A    between atoms: C_27  and  C_29
REMARK   15  A    between atoms: C_30  and  C_32
REMARK   16  A    between atoms: C_31  and  C_33
REMARK                            x       y       z     vdW  Elec       q    Type
REMARK                         _______ _______ _______ _____ _____    ______ ____
ROOT
ATOM      1  N   UNL     1       0.000  -2.219   0.000  0.00  0.00    +0.000 N 
ATOM      2  C   UNL     1       0.000  -0.569   0.000  0.00  0.00    +0.000 C 
ATOM      3  C   UNL     1       0.715  -0.982   0.000  0.00  0.00    +0.000 C 
ATOM      4  C   UNL     1      -0.715  -0.982   0.000  0.00  0.00    +0.000 C 
ATOM      5  C   UNL     1       0.715  -1.807   0.000  0.00  0.00    +0.000 C 
ATOM      6  C   UNL     1      -0.715  -1.807   0.000  0.00  0.00    +0.000 C 
ATOM      7  C   UNL     1       1.429  -2.219   0.000  0.00  0.00    +0.000 C 
ATOM      8  C   UNL     1      -1.429  -2.219   0.000  0.00  0.00    +0.000 C 
ATOM      9  H   UNL     1       0.000  -2.731   0.000  0.00  0.00    +0.000 HD
ENDROOT
BRANCH   2  10
ATOM     10  C   UNL     1       0.000   0.256   0.000  0.00  0.00    +0.000 A 
ATOM     11  C   UNL     1       0.715   0.668   0.000  0.00  0.00    +0.000 A 
ATOM     12  C   UNL     1      -0.715   0.668   0.000  0.00  0.00    +0.000 A 
ATOM     13  C   UNL     1       0.715   1.493   0.000  0.00  0.00    +0.000 A 
ATOM     14  C   UNL     1      -0.715   1.493   0.000  0.00  0.00    +0.000 A 
ATOM     15  C   UNL     1       0.000   1.906   0.000  0.00  0.00    +0.000 A 
BRANCH  13  18
ATOM     16  O   UNL     1       1.429   2.731   0.000  0.00  0.00    +0.000 OA
ATOM     17  O   UNL     1       2.143   1.493   0.000  0.00  0.00    +0.000 OA
ATOM     18  N   UNL     1       1.429   1.906   0.000  0.00  0.00    +0.000 N 
ENDBRANCH  13  18
ENDBRANCH   2  10
BRANCH   4  20
ATOM     19  O   UNL     1      -1.429   0.256   0.000  0.00  0.00    +0.000 OA
ATOM     20  C   UNL     1      -1.429  -0.569   0.000  0.00  0.00    +0.000 C 
BRANCH  20  21
ATOM     21  O   UNL     1      -2.143  -0.982   0.000  0.00  0.00    +0.000 OA
BRANCH  21  22
ATOM     22  C   UNL     1      -2.858  -0.569   0.000  0.00  0.00    +0.000 C 
BRANCH  22  23
ATOM     23  C   UNL     1      -3.572  -0.982   0.000  0.00  0.00    +0.000 C 
BRANCH  23  24
ATOM     24  O   UNL     1      -4.287  -0.569   0.000  0.00  0.00    +0.000 OA
BRANCH  24  25
ATOM     25  C   UNL     1      -5.001  -0.982   0.000  0.00  0.00    +0.000 C 
BRANCH  25  26
ATOM     26  C   UNL     1      -5.716  -0.569   0.000  0.00  0.00    +0.000 C 
ATOM     27  C   UNL     1      -6.430  -0.982   0.000  0.00  0.00    +0.000 C 
ENDBRANCH  25  26
ENDBRANCH  24  25
ENDBRANCH  23  24
ENDBRANCH  22  23
ENDBRANCH  21  22
ENDBRANCH  20  21
ENDBRANCH   4  20
BRANCH   3  29
ATOM     28  O   UNL     1       1.429   0.256   0.000  0.00  0.00    +0.000 OA
ATOM     29  C   UNL     1       1.429  -0.569   0.000  0.00  0.00    +0.000 C 
BRANCH  29  30
ATOM     30  O   UNL     1       2.143  -0.982   0.000  0.00  0.00    +0.000 OA
BRANCH  30  31
ATOM     31  C   UNL     1       2.858  -0.569   0.000  0.00  0.00    +0.000 C 
BRANCH  31  32
ATOM     32  C   UNL     1       3.572  -0.982   0.000  0.00  0.00    +0.000 C 
BRANCH  32  33
ATOM     33  O   UNL     1       4.287  -0.569   0.000  0.00  0.00    +0.000 OA
BRANCH  33  34
ATOM     34  C   UNL     1       5.001  -0.982   0.000  0.00  0.00    +0.000 C 
BRANCH  34  35
ATOM     35  C   UNL     1       5.716  -0.569   0.000  0.00  0.00    +0.000 C 
ATOM     36  C   UNL     1       6.430  -0.982   0.000  0.00  0.00    +0.000 C 
ENDBRANCH  34  35
ENDBRANCH  33  34
ENDBRANCH  32  33
ENDBRANCH  31  32
ENDBRANCH  30  31
ENDBRANCH  29  30
ENDBRANCH   3  29
TORSDOF 16
