REMARK  Name = 
REMARK  12 active torsions:
REMARK  status: ('A' for Active; 'I' for Inactive)
REMARK    1  A    between atoms: C_2  and  O_10
REMARK    2  A    between atoms: C_5  and  O_9
REMARK    3  A    between atoms: O_9  and  C_24
REMARK    4  A    between atoms: N_13  and  C_14
REMARK    5  A    between atoms: C_14  and  C_15
REMARK    6  A    between atoms: C_15  and  C_16
REMARK    7  A    between atoms: C_16  and  O_17
REMARK    8  A    between atoms: O_17  and  C_18
REMARK    9  A    between atoms: C_28  and  N_31
REMARK   10  A    between atoms: C_32  and  C_34
REMARK   11  A    between atoms: C_34  and  C_35
REMARK   12  A    between atoms: N_37  and  C_38
REMARK                            x       y       z     vdW  Elec       q    Type
REMARK                         _______ _______ _______ _____ _____    ______ ____
ROOT
ATOM      1  O   UNL     1      -0.714  -0.674   0.000  0.00  0.00    +0.000 OA
ENDROOT
BRANCH   1   6
ATOM      2  C   UNL     1      -1.429   1.388   0.000  0.00  0.00    +0.000 A 
ATOM      3  C   UNL     1      -2.858   0.563   0.000  0.00  0.00    +0.000 A 
ATOM      4  C   UNL     1      -2.143   0.151   0.000  0.00  0.00    +0.000 A 
ATOM      5  C   UNL     1      -1.429   0.563   0.000  0.00  0.00    +0.000 A 
ATOM      6  C   UNL     1      -0.714   0.151   0.000  0.00  0.00    +0.000 A 
ATOM      7  C   UNL     1       0.000   0.563   0.000  0.00  0.00    +0.000 A 
ATOM      8  C   UNL     1       0.000   1.388   0.000  0.00  0.00    +0.000 A 
ATOM      9  N   UNL     1      -0.714   1.801   0.000  0.00  0.00    +0.000 NA
ATOM     10  C   UNL     1      -2.858   1.388   0.000  0.00  0.00    +0.000 A 
ATOM     11  C   UNL     1      -2.143   1.801   0.000  0.00  0.00    +0.000 A 
BRANCH   3  12
ATOM     12  O   UNL     1      -3.572   0.151   0.000  0.00  0.00    +0.000 OA
ATOM     13  C   UNL     1      -3.572  -0.674   0.000  0.00  0.00    +0.000 C 
ENDBRANCH   3  12
BRANCH  10  14
ATOM     14  O   UNL     1      -3.572   1.801   0.000  0.00  0.00    +0.000 OA
BRANCH  14  15
ATOM     15  C   UNL     1      -4.287   1.388   0.000  0.00  0.00    +0.000 C 
BRANCH  15  16
ATOM     16  C   UNL     1      -5.001   1.801   0.000  0.00  0.00    +0.000 C 
BRANCH  16  17
ATOM     17  C   UNL     1      -5.716   1.388   0.000  0.00  0.00    +0.000 C 
BRANCH  17  19
ATOM     18  C   UNL     1      -7.145   1.388   0.000  0.00  0.00    +0.000 C 
ATOM     19  N   UNL     1      -6.430   1.801   0.000  0.00  0.00    +0.000 NA
ATOM     20  C   UNL     1      -7.145   3.038   0.000  0.00  0.00    +0.000 C 
ATOM     21  O   UNL     1      -7.859   2.626   0.000  0.00  0.00    +0.000 OA
ATOM     22  C   UNL     1      -7.859   1.801   0.000  0.00  0.00    +0.000 C 
ATOM     23  C   UNL     1      -6.430   2.626   0.000  0.00  0.00    +0.000 C 
ENDBRANCH  17  19
ENDBRANCH  16  17
ENDBRANCH  15  16
ENDBRANCH  14  15
ENDBRANCH  10  14
ENDBRANCH   1   6
BRANCH   1  24
ATOM     24  C   UNL     1       0.000  -1.087   0.000  0.00  0.00    +0.000 A 
ATOM     25  C   UNL     1       0.714  -0.674   0.000  0.00  0.00    +0.000 A 
ATOM     26  C   UNL     1       0.000  -1.912   0.000  0.00  0.00    +0.000 A 
ATOM     27  C   UNL     1       0.714  -2.324   0.000  0.00  0.00    +0.000 A 
ATOM     28  C   UNL     1       1.429  -1.912   0.000  0.00  0.00    +0.000 A 
ATOM     29  C   UNL     1       1.429  -1.087   0.000  0.00  0.00    +0.000 A 
ATOM     30  F   UNL     1      -0.714  -2.324   0.000  0.00  0.00    +0.000 F 
BRANCH  28  31
ATOM     31  N   UNL     1       2.143  -2.324   0.000  0.00  0.00    +0.000 NA
ATOM     32  C   UNL     1       2.858  -1.912   0.000  0.00  0.00    +0.000 C 
ATOM     33  O   UNL     1       2.858  -1.087   0.000  0.00  0.00    +0.000 OA
BRANCH  32  34
ATOM     34  C   UNL     1       3.572  -2.324   0.000  0.00  0.00    +0.000 C 
ATOM     35  C   UNL     1       3.160  -3.038   0.000  0.00  0.00    +0.000 C 
ATOM     36  C   UNL     1       3.985  -3.038   0.000  0.00  0.00    +0.000 C 
BRANCH  34  37
ATOM     37  C   UNL     1       4.287  -1.912   0.000  0.00  0.00    +0.000 C 
ATOM     38  O   UNL     1       4.287  -1.087   0.000  0.00  0.00    +0.000 OA
ATOM     39  N   UNL     1       5.001  -2.324   0.000  0.00  0.00    +0.000 NA
BRANCH  39  40
ATOM     40  C   UNL     1       5.716  -1.912   0.000  0.00  0.00    +0.000 A 
ATOM     41  C   UNL     1       5.716  -1.087   0.000  0.00  0.00    +0.000 A 
ATOM     42  C   UNL     1       6.430  -0.674   0.000  0.00  0.00    +0.000 A 
ATOM     43  C   UNL     1       6.430  -2.324   0.000  0.00  0.00    +0.000 A 
ATOM     44  C   UNL     1       7.145  -1.912   0.000  0.00  0.00    +0.000 A 
ATOM     45  C   UNL     1       7.145  -1.087   0.000  0.00  0.00    +0.000 A 
ATOM     46  F   UNL     1       7.859  -0.674   0.000  0.00  0.00    +0.000 F 
ENDBRANCH  39  40
ENDBRANCH  34  37
ENDBRANCH  32  34
ENDBRANCH  28  31
ENDBRANCH   1  24
TORSDOF 12
