REMARK  Name = 
REMARK  2 active torsions:
REMARK  status: ('A' for Active; 'I' for Inactive)
REMARK    1  A    between atoms: C_1  and  CA_2
REMARK    2  A    between atoms: CA_2  and  CB_3
REMARK                            x       y       z     vdW  Elec       q    Type
REMARK                         _______ _______ _______ _____ _____    ______ ____
ROOT
ATOM      1  CA  CYS A   1      -0.102  -0.177   0.000  0.00  0.00    +0.000 C 
ATOM      2  N   CYS A   1      -0.102  -1.002   0.000  0.00  0.00    +0.000 NA
ENDROOT
BRANCH   1   3
ATOM      3  C   CYS A   1       0.612   0.236   0.000  0.00  0.00    +0.000 C 
ATOM      4  OXT CYS A   1       1.327  -0.177   0.000  0.00  0.00    +0.000 OA
ATOM      5  O   CYS A   1       0.612   1.061   0.000  0.00  0.00    +0.000 OA
ENDBRANCH   1   3
BRANCH   1   6
ATOM      6  CB  CYS A   1      -0.817   0.236   0.000  0.00  0.00    +0.000 C 
ATOM      7  SG  CYS A   1      -1.531  -0.177   0.000  0.00  0.00    +0.000 S 
ENDBRANCH   1   6
TORSDOF 2
