REMARK  Name = 
REMARK  6 active torsions:
REMARK  status: ('A' for Active; 'I' for Inactive)
REMARK    1  A    between atoms: N_1  and  C_2
REMARK    2  A    between atoms: N_1  and  C_3
REMARK    3  A    between atoms: N_1  and  C_4
REMARK    4  A    between atoms: C_2  and  C_5
REMARK    5  A    between atoms: C_3  and  C_6
REMARK    6  A    between atoms: C_4  and  C_7
REMARK                            x       y       z     vdW  Elec       q    Type
REMARK                         _______ _______ _______ _____ _____    ______ ____
ROOT
ATOM      1  N   UNL     1       0.000  -0.825   0.000  0.00  0.00    +0.000 NA
ENDROOT
BRANCH   1   2
ATOM      2  C   UNL     1      -0.715  -1.238   0.000  0.00  0.00    +0.000 C 
BRANCH   2   3
ATOM      3  C   UNL     1      -1.429  -0.825   0.000  0.00  0.00    +0.000 C 
ATOM      4  O   UNL     1      -2.143  -1.238   0.000  0.00  0.00    +0.000 OA
ENDBRANCH   2   3
ENDBRANCH   1   2
BRANCH   1   5
ATOM      5  C   UNL     1       0.715  -1.237   0.000  0.00  0.00    +0.000 C 
BRANCH   5   6
ATOM      6  C   UNL     1       1.429  -0.825   0.000  0.00  0.00    +0.000 C 
ATOM      7  O   UNL     1       2.143  -1.237   0.000  0.00  0.00    +0.000 OA
ATOM      8  O   UNL     1       1.429   0.000   0.000  0.00  0.00    +0.000 OA
ENDBRANCH   5   6
ENDBRANCH   1   5
BRANCH   1   9
ATOM      9  C   UNL     1       0.000   0.000   0.000  0.00  0.00    +0.000 C 
BRANCH   9  10
ATOM     10  C   UNL     1      -0.715   0.412   0.000  0.00  0.00    +0.000 C 
ATOM     11  O   UNL     1      -0.715   1.238   0.000  0.00  0.00    +0.000 OA
ENDBRANCH   9  10
ENDBRANCH   1   9
TORSDOF 6
