REMARK  Name = 
REMARK  15 active torsions:
REMARK  status: ('A' for Active; 'I' for Inactive)
REMARK    1  A    between atoms: C_2  and  C_4
REMARK    2  A    between atoms: C_7  and  C_8
REMARK    3  A    between atoms: C_8  and  C_9
REMARK    4  A    between atoms: C_9  and  C_10
REMARK    5  A    between atoms: C_10  and  C_11
REMARK    6  A    between atoms: C_12  and  C_13
REMARK    7  A    between atoms: C_13  and  C_14
REMARK    8  A    between atoms: C_14  and  N_15
REMARK    9  A    between atoms: N_15  and  S_16
REMARK   10  A    between atoms: S_16  and  C_19
REMARK   11  A    between atoms: C_19  and  C_20
REMARK   12  A    between atoms: C_21  and  C_26
REMARK   13  A    between atoms: N_30  and  C_31
REMARK   14  A    between atoms: C_31  and  C_32
REMARK   15  A    between atoms: C_31  and  C_38
REMARK                            x       y       z     vdW  Elec       q    Type
REMARK                         _______ _______ _______ _____ _____    ______ ____
ROOT
ATOM      1  C   UNL     1      -0.143  -0.030   0.000  0.00  0.00    +0.000 A 
ATOM      2  C   UNL     1      -0.628  -0.698   0.000  0.00  0.00    +0.000 A 
ATOM      3  N   UNL     1      -0.143  -1.365   0.000  0.00  0.00    +0.000 N 
ATOM      4  C   UNL     1       0.641  -1.110   0.000  0.00  0.00    +0.000 A 
ATOM      5  C   UNL     1       0.641  -0.285   0.000  0.00  0.00    +0.000 A 
ATOM      6  C   UNL     1       1.356   0.127   0.000  0.00  0.00    +0.000 A 
ATOM      7  C   UNL     1       2.070  -0.285   0.000  0.00  0.00    +0.000 A 
ATOM      8 CL   UNL     1       2.784   0.127   0.000  0.00  0.00    +0.000 Cl
ATOM      9  C   UNL     1       2.070  -1.110   0.000  0.00  0.00    +0.000 A 
ATOM     10  C   UNL     1       1.356  -1.523   0.000  0.00  0.00    +0.000 A 
ENDROOT
BRANCH   2  11
ATOM     11  C   UNL     1      -1.453  -0.698   0.000  0.00  0.00    +0.000 C 
BRANCH  11  12
ATOM     12  C   UNL     1      -1.866   0.017   0.000  0.00  0.00    +0.000 C 
BRANCH  12  13
ATOM     13  N   UNL     1      -2.691   0.017   0.000  0.00  0.00    +0.000 NA
BRANCH  13  14
ATOM     14  S   UNL     1      -3.103  -0.698   0.000  0.00  0.00    +0.000 S 
ATOM     15  O   UNL     1      -3.818  -0.285   0.000  0.00  0.00    +0.000 OA
ATOM     16  O   UNL     1      -2.389  -1.110   0.000  0.00  0.00    +0.000 OA
BRANCH  14  17
ATOM     17  C   UNL     1      -3.516  -1.412   0.000  0.00  0.00    +0.000 C 
BRANCH  17  18
ATOM     18  C   UNL     1      -4.341  -1.412   0.000  0.00  0.00    +0.000 A 
ATOM     19  C   UNL     1      -4.753  -2.127   0.000  0.00  0.00    +0.000 A 
ATOM     20  C   UNL     1      -5.578  -2.127   0.000  0.00  0.00    +0.000 A 
ATOM     21  C   UNL     1      -5.991  -1.412   0.000  0.00  0.00    +0.000 A 
ATOM     22  C   UNL     1      -5.578  -0.698   0.000  0.00  0.00    +0.000 A 
ATOM     23  C   UNL     1      -4.753  -0.698   0.000  0.00  0.00    +0.000 A 
BRANCH  19  24
ATOM     24  C   UNL     1      -4.341  -2.841   0.000  0.00  0.00    +0.000 C 
ATOM     25  F   UNL     1      -3.928  -3.556   0.000  0.00  0.00    +0.000 F 
ATOM     26  F   UNL     1      -5.055  -3.254   0.000  0.00  0.00    +0.000 F 
ATOM     27  F   UNL     1      -3.627  -2.429   0.000  0.00  0.00    +0.000 F 
ENDBRANCH  19  24
ENDBRANCH  17  18
ENDBRANCH  14  17
ENDBRANCH  13  14
ENDBRANCH  12  13
ENDBRANCH  11  12
ENDBRANCH   2  11
BRANCH   1  28
ATOM     28  C   UNL     1      -0.398   0.754   0.000  0.00  0.00    +0.000 C 
BRANCH  28  29
ATOM     29  C   UNL     1      -1.205   0.926   0.000  0.00  0.00    +0.000 C 
BRANCH  29  30
ATOM     30  C   UNL     1      -1.460   1.710   0.000  0.00  0.00    +0.000 C 
BRANCH  30  34
ATOM     31  C   UNL     1       0.196   3.550   0.000  0.00  0.00    +0.000 A 
ATOM     32  C   UNL     1       0.451   2.765   0.000  0.00  0.00    +0.000 A 
ATOM     33  C   UNL     1      -0.101   2.152   0.000  0.00  0.00    +0.000 A 
ATOM     34  C   UNL     1      -0.908   2.323   0.000  0.00  0.00    +0.000 A 
ATOM     35  C   UNL     1      -1.163   3.108   0.000  0.00  0.00    +0.000 A 
ATOM     36  C   UNL     1      -0.611   3.721   0.000  0.00  0.00    +0.000 A 
BRANCH  31  38
ATOM     37  O   UNL     1       0.493   4.947   0.000  0.00  0.00    +0.000 OA
ATOM     38  C   UNL     1       0.748   4.163   0.000  0.00  0.00    +0.000 C 
ATOM     39  O   UNL     1       1.555   3.991   0.000  0.00  0.00    +0.000 OA
ENDBRANCH  31  38
ENDBRANCH  30  34
ENDBRANCH  29  30
ENDBRANCH  28  29
ENDBRANCH   1  28
BRANCH   3  40
ATOM     40  C   UNL     1      -0.398  -2.150   0.000  0.00  0.00    +0.000 C 
BRANCH  40  41
ATOM     41  C   UNL     1      -1.205  -2.321   0.000  0.00  0.00    +0.000 A 
ATOM     42  C   UNL     1      -1.460  -3.106   0.000  0.00  0.00    +0.000 A 
ATOM     43  C   UNL     1      -2.267  -3.278   0.000  0.00  0.00    +0.000 A 
ATOM     44  C   UNL     1      -2.819  -2.665   0.000  0.00  0.00    +0.000 A 
ATOM     45  C   UNL     1      -2.564  -1.880   0.000  0.00  0.00    +0.000 A 
ATOM     46  C   UNL     1      -1.758  -1.708   0.000  0.00  0.00    +0.000 A 
ENDBRANCH  40  41
BRANCH  40  47
ATOM     47  C   UNL     1       0.154  -2.763   0.000  0.00  0.00    +0.000 A 
ATOM     48  C   UNL     1       0.961  -2.592   0.000  0.00  0.00    +0.000 A 
ATOM     49  C   UNL     1       1.513  -3.205   0.000  0.00  0.00    +0.000 A 
ATOM     50  C   UNL     1       1.258  -3.989   0.000  0.00  0.00    +0.000 A 
ATOM     51  C   UNL     1       0.451  -4.161   0.000  0.00  0.00    +0.000 A 
ATOM     52  C   UNL     1      -0.101  -3.548   0.000  0.00  0.00    +0.000 A 
ENDBRANCH  40  47
ENDBRANCH   3  40
TORSDOF 15
