REMARK  Name = 
REMARK  5 active torsions:
REMARK  status: ('A' for Active; 'I' for Inactive)
REMARK    1  A    between atoms: C_2  and  C_3
REMARK    2  A    between atoms: C_3  and  N_4
REMARK    3  A    between atoms: C_3  and  C_14
REMARK    4  A    between atoms: N_4  and  C_5
REMARK    5  A    between atoms: C_15  and  C_25
REMARK                            x       y       z     vdW  Elec       q    Type
REMARK                         _______ _______ _______ _____ _____    ______ ____
ROOT
ATOM      1  C   UNL     1       0.715  -1.238   0.000  0.00  0.00    +0.000 A 
ATOM      2  C   UNL     1       0.715  -0.412   0.000  0.00  0.00    +0.000 A 
ATOM      3  C   UNL     1       1.429   0.000   0.000  0.00  0.00    +0.000 A 
ATOM      4  O   UNL     1       1.429   0.825   0.000  0.00  0.00    +0.000 OA
ATOM      5  C   UNL     1       2.143  -0.412   0.000  0.00  0.00    +0.000 A 
ATOM      6  C   UNL     1       2.858   0.000   0.000  0.00  0.00    +0.000 A 
ATOM      7  C   UNL     1       3.572  -0.412   0.000  0.00  0.00    +0.000 A 
ATOM      8  C   UNL     1       3.572  -1.238   0.000  0.00  0.00    +0.000 A 
ATOM      9  C   UNL     1       2.858  -1.650   0.000  0.00  0.00    +0.000 A 
ATOM     10  C   UNL     1       2.143  -1.238   0.000  0.00  0.00    +0.000 A 
ATOM     11  O   UNL     1       1.429  -1.650   0.000  0.00  0.00    +0.000 OA
ENDROOT
BRANCH   2  12
ATOM     12  C   UNL     1       0.000   0.000   0.000  0.00  0.00    +0.000 A 
ATOM     13  C   UNL     1      -0.715  -0.412   0.000  0.00  0.00    +0.000 A 
ATOM     14  C   UNL     1      -1.429   0.000   0.000  0.00  0.00    +0.000 A 
ATOM     15  C   UNL     1      -1.429   0.825   0.000  0.00  0.00    +0.000 A 
ATOM     16  C   UNL     1      -0.715   1.238   0.000  0.00  0.00    +0.000 A 
ATOM     17  F   UNL     1      -0.715   2.062   0.000  0.00  0.00    +0.000 F 
ATOM     18  C   UNL     1       0.000   0.825   0.000  0.00  0.00    +0.000 A 
ENDBRANCH   2  12
BRANCH   1  19
ATOM     19  C   UNL     1       0.000  -1.650   0.000  0.00  0.00    +0.000 C 
BRANCH  19  21
ATOM     20  C   UNL     1      -1.429  -1.650   0.000  0.00  0.00    +0.000 C 
ATOM     21  C   UNL     1      -0.715  -1.238   0.000  0.00  0.00    +0.000 C 
ENDBRANCH  19  21
BRANCH  19  22
ATOM     22  N   UNL     1       0.000  -2.475   0.000  0.00  0.00    +0.000 NA
BRANCH  22  23
ATOM     23  C   UNL     1      -0.715  -2.888   0.000  0.00  0.00    +0.000 A 
ATOM     24  C   UNL     1      -0.715  -3.712   0.000  0.00  0.00    +0.000 A 
ATOM     25  N   UNL     1      -0.101  -4.264   0.000  0.00  0.00    +0.000 NA
ATOM     26  C   UNL     1      -0.437  -5.018   0.000  0.00  0.00    +0.000 A 
ATOM     27  N   UNL     1      -1.257  -4.932   0.000  0.00  0.00    +0.000 NA
ATOM     28  C   UNL     1      -1.429  -4.125   0.000  0.00  0.00    +0.000 A 
ATOM     29  N   UNL     1      -2.143  -3.712   0.000  0.00  0.00    +0.000 NA
ATOM     30  C   UNL     1      -2.143  -2.888   0.000  0.00  0.00    +0.000 A 
ATOM     31  N   UNL     1      -1.429  -2.475   0.000  0.00  0.00    +0.000 NA
ENDBRANCH  22  23
ENDBRANCH  19  22
ENDBRANCH   1  19
TORSDOF 5
