REMARK  Name = 
REMARK  13 active torsions:
REMARK  status: ('A' for Active; 'I' for Inactive)
REMARK    1  A    between atoms: C_2  and  O_51
REMARK    2  A    between atoms: C_4  and  N_8
REMARK    3  A    between atoms: C_5  and  O_34
REMARK    4  A    between atoms: C_12  and  O_51
REMARK    5  A    between atoms: C_13  and  C_29
REMARK    6  A    between atoms: C_29  and  C_35
REMARK    7  A    between atoms: C_30  and  C_39
REMARK    8  A    between atoms: C_32  and  C_36
REMARK    9  A    between atoms: O_34  and  C_58
REMARK   10  A    between atoms: C_39  and  O_52
REMARK   11  A    between atoms: C_44  and  O_47
REMARK   12  A    between atoms: C_45  and  O_50
REMARK   13  A    between atoms: C_46  and  O_52
REMARK                            x       y       z     vdW  Elec       q    Type
REMARK                         _______ _______ _______ _____ _____    ______ ____
ROOT
ATOM      1  C   UNL     1       1.786  -1.031   0.000  0.00  0.00    +0.000 C 
ATOM      2  C   UNL     1       1.786  -0.206   0.000  0.00  0.00    +0.000 C 
ATOM      3  C   UNL     1       1.071  -1.444   0.000  0.00  0.00    +0.000 C 
ATOM      4  C   UNL     1       1.071  -2.269   0.000  0.00  0.00    +0.000 C 
ATOM      5  C   UNL     1       0.357  -2.681   0.000  0.00  0.00    +0.000 C 
ATOM      6  C   UNL     1      -0.357  -2.269   0.000  0.00  0.00    +0.000 C 
ATOM      7  C   UNL     1      -1.072  -1.031   0.000  0.00  0.00    +0.000 C 
ATOM      8  C   UNL     1      -1.072  -0.206   0.000  0.00  0.00    +0.000 C 
ATOM      9  C   UNL     1      -0.357   0.206   0.000  0.00  0.00    +0.000 C 
ATOM     10  C   UNL     1      -0.357   1.031   0.000  0.00  0.00    +0.000 C 
ATOM     11  C   UNL     1       0.357   1.444   0.000  0.00  0.00    +0.000 C 
ATOM     12  C   UNL     1       1.071   1.031   0.000  0.00  0.00    +0.000 C 
ATOM     13  C   UNL     1       1.071   0.206   0.000  0.00  0.00    +0.000 C 
ATOM     14  O   UNL     1       0.357   2.269   0.000  0.00  0.00    +0.000 OA
ATOM     15  O   UNL     1       1.786  -2.681   0.000  0.00  0.00    +0.000 OA
ATOM     16  O   UNL     1      -1.072  -2.681   0.000  0.00  0.00    +0.000 OA
ATOM     17  C   UNL     1       1.786   1.444   0.000  0.00  0.00    +0.000 C 
ATOM     18  C   UNL     1      -1.786  -1.444   0.000  0.00  0.00    +0.000 C 
ATOM     19  C   UNL     1       0.357  -1.031   0.000  0.00  0.00    +0.000 C 
ATOM     20  C   UNL     1      -1.786  -2.269   0.000  0.00  0.00    +0.000 C 
ATOM     21  C   UNL     1      -1.786   0.206   0.000  0.00  0.00    +0.000 C 
ATOM     22  O   UNL     1      -0.357  -1.444   0.000  0.00  0.00    +0.000 OA
ENDROOT
BRANCH  20  23
ATOM     23  C   UNL     1      -2.501  -2.681   0.000  0.00  0.00    +0.000 C 
ATOM     24  C   UNL     1      -2.501  -3.506   0.000  0.00  0.00    +0.000 C 
ENDBRANCH  20  23
BRANCH   2  25
ATOM     25  C   UNL     1       2.501   0.206   0.000  0.00  0.00    +0.000 C 
BRANCH  25  26
ATOM     26  C   UNL     1       2.501   1.031   0.000  0.00  0.00    +0.000 C 
ATOM     27  O   UNL     1       3.215   1.444   0.000  0.00  0.00    +0.000 OA
ENDBRANCH  25  26
ENDBRANCH   2  25
BRANCH   1  28
ATOM     28  O   UNL     1       2.501  -1.444   0.000  0.00  0.00    +0.000 OA
BRANCH  28  30
ATOM     29  O   UNL     1       3.215  -0.206   0.000  0.00  0.00    +0.000 OA
ATOM     30  C   UNL     1       3.215  -1.031   0.000  0.00  0.00    +0.000 C 
ATOM     31  C   UNL     1       3.929  -1.444   0.000  0.00  0.00    +0.000 C 
ATOM     32  C   UNL     1       4.644  -1.031   0.000  0.00  0.00    +0.000 C 
ATOM     33  C   UNL     1       4.644  -0.206   0.000  0.00  0.00    +0.000 C 
ATOM     34  C   UNL     1       3.929   0.206   0.000  0.00  0.00    +0.000 C 
ATOM     35  C   UNL     1       3.929   1.031   0.000  0.00  0.00    +0.000 C 
ATOM     36  O   UNL     1       3.929  -2.269   0.000  0.00  0.00    +0.000 OA
BRANCH  32  37
ATOM     37  N   UNL     1       5.359  -1.444   0.000  0.00  0.00    +0.000 NA
ATOM     38  C   UNL     1       6.073  -1.031   0.000  0.00  0.00    +0.000 C 
ATOM     39  C   UNL     1       5.359  -2.269   0.000  0.00  0.00    +0.000 C 
ENDBRANCH  32  37
BRANCH  33  40
ATOM     40  O   UNL     1       5.359   0.206   0.000  0.00  0.00    +0.000 OA
BRANCH  40  46
ATOM     41  O   UNL     1       6.073   1.444   0.000  0.00  0.00    +0.000 OA
ATOM     42  C   UNL     1       6.073   2.269   0.000  0.00  0.00    +0.000 C 
ATOM     43  C   UNL     1       5.359   2.681   0.000  0.00  0.00    +0.000 C 
ATOM     44  C   UNL     1       4.644   2.269   0.000  0.00  0.00    +0.000 C 
ATOM     45  C   UNL     1       4.644   1.444   0.000  0.00  0.00    +0.000 C 
ATOM     46  C   UNL     1       5.359   1.031   0.000  0.00  0.00    +0.000 C 
ATOM     47  O   UNL     1       5.359   3.506   0.000  0.00  0.00    +0.000 OA
ATOM     48  C   UNL     1       6.788   2.681   0.000  0.00  0.00    +0.000 C 
ATOM     49  O   UNL     1       4.232   2.983   0.000  0.00  0.00    +0.000 OA
ATOM     50  C   UNL     1       3.819   2.269   0.000  0.00  0.00    +0.000 C 
ENDBRANCH  40  46
ENDBRANCH  33  40
ENDBRANCH  28  30
ENDBRANCH   1  28
BRANCH  18  51
ATOM     51  C   UNL     1      -2.501  -1.031   0.000  0.00  0.00    +0.000 C 
BRANCH  51  52
ATOM     52  O   UNL     1      -3.215  -1.444   0.000  0.00  0.00    +0.000 OA
BRANCH  52  58
ATOM     53  O   UNL     1      -3.930  -0.206   0.000  0.00  0.00    +0.000 OA
ATOM     54  C   UNL     1      -4.644   0.206   0.000  0.00  0.00    +0.000 C 
ATOM     55  C   UNL     1      -5.359  -0.206   0.000  0.00  0.00    +0.000 C 
ATOM     56  C   UNL     1      -5.359  -1.031   0.000  0.00  0.00    +0.000 C 
ATOM     57  C   UNL     1      -4.644  -1.444   0.000  0.00  0.00    +0.000 C 
ATOM     58  C   UNL     1      -3.930  -1.031   0.000  0.00  0.00    +0.000 C 
ATOM     59  O   UNL     1      -6.073   0.206   0.000  0.00  0.00    +0.000 OA
ATOM     60  C   UNL     1      -4.644   1.031   0.000  0.00  0.00    +0.000 C 
BRANCH  57  61
ATOM     61  O   UNL     1      -4.644  -2.269   0.000  0.00  0.00    +0.000 OA
ATOM     62  C   UNL     1      -5.359  -2.681   0.000  0.00  0.00    +0.000 C 
ENDBRANCH  57  61
BRANCH  56  63
ATOM     63  O   UNL     1      -6.073  -1.444   0.000  0.00  0.00    +0.000 OA
ATOM     64  C   UNL     1      -6.788  -1.031   0.000  0.00  0.00    +0.000 C 
ENDBRANCH  56  63
ENDBRANCH  52  58
ENDBRANCH  51  52
ENDBRANCH  18  51
TORSDOF 13
