REMARK  Name = 
REMARK  2 active torsions:
REMARK  status: ('A' for Active; 'I' for Inactive)
REMARK    1  A    between atoms: C_2  and  C_7
REMARK    2  A    between atoms: C_12  and  C_18
REMARK                            x       y       z     vdW  Elec       q    Type
REMARK                         _______ _______ _______ _____ _____    ______ ____
ROOT
ATOM      1  C   UNL     1       0.826  -0.111   0.000  0.00  0.00    +0.000 A 
ATOM      2  N   UNL     1       0.341  -0.778   0.000  0.00  0.00    +0.000 NA
ATOM      3  O   UNL     1       0.341   0.557   0.000  0.00  0.00    +0.000 OA
ATOM      4  C   UNL     1      -0.443  -0.523   0.000  0.00  0.00    +0.000 A 
ATOM      5  C   UNL     1      -0.443   0.302   0.000  0.00  0.00    +0.000 A 
ATOM      6  C   UNL     1      -1.872   0.302   0.000  0.00  0.00    +0.000 A 
ATOM      7  C   UNL     1      -1.158   0.714   0.000  0.00  0.00    +0.000 A 
ATOM      8  C   UNL     1      -1.872  -0.523   0.000  0.00  0.00    +0.000 A 
ATOM      9  C   UNL     1      -1.158  -0.935   0.000  0.00  0.00    +0.000 A 
ENDROOT
BRANCH   1  11
ATOM     10  C   UNL     1       2.064  -0.825   0.000  0.00  0.00    +0.000 A 
ATOM     11  C   UNL     1       1.651  -0.111   0.000  0.00  0.00    +0.000 A 
ATOM     12  C   UNL     1       2.889  -0.825   0.000  0.00  0.00    +0.000 A 
ATOM     13  C   UNL     1       2.064   0.604   0.000  0.00  0.00    +0.000 A 
ATOM     14  C   UNL     1       3.301  -0.111   0.000  0.00  0.00    +0.000 A 
ATOM     15  C   UNL     1       2.889   0.604   0.000  0.00  0.00    +0.000 A 
ATOM     16 CL   UNL     1       3.301  -1.539   0.000  0.00  0.00    +0.000 Cl
ATOM     17 CL   UNL     1       3.301   1.318   0.000  0.00  0.00    +0.000 Cl
ENDBRANCH   1  11
BRANCH   6  18
ATOM     18  C   UNL     1      -2.587   0.714   0.000  0.00  0.00    +0.000 C 
ATOM     19  O   UNL     1      -3.301   0.302   0.000  0.00  0.00    +0.000 OA
ATOM     20  O   UNL     1      -2.587   1.539   0.000  0.00  0.00    +0.000 OA
ENDBRANCH   6  18
TORSDOF 2
