REMARK  Name = 
REMARK  11 active torsions:
REMARK  status: ('A' for Active; 'I' for Inactive)
REMARK    1  A    between atoms: N_3  and  C_11
REMARK    2  A    between atoms: N_3  and  C_13
REMARK    3  A    between atoms: N_4  and  C_12
REMARK    4  A    between atoms: N_4  and  C_14
REMARK    5  A    between atoms: N_5  and  C_15
REMARK    6  A    between atoms: N_6  and  C_16
REMARK    7  A    between atoms: C_11  and  C_12
REMARK    8  A    between atoms: C_13  and  C_15
REMARK    9  A    between atoms: C_14  and  C_16
REMARK   10  A    between atoms: C_19  and  C_25
REMARK   11  A    between atoms: C_20  and  C_26
REMARK                            x       y       z     vdW  Elec       q    Type
REMARK                         _______ _______ _______ _____ _____    ______ ____
ROOT
ATOM      1  C   UNL     1      -0.004   0.396   0.000  0.00  0.00    +0.000 C 
ENDROOT
BRANCH   1   2
ATOM      2  N   UNL     1       0.677   0.800   0.000  0.00  0.00    +0.000 NA
ATOM      3  H   UNL     1       1.105   0.559   0.000  0.00  0.00    +0.000 HD
BRANCH   2   4
ATOM      4  C   UNL     1       0.667   1.592   0.000  0.00  0.00    +0.000 C 
BRANCH   4   5
ATOM      5  C   UNL     1       1.349   1.996   0.000  0.00  0.00    +0.000 C 
BRANCH   5   7
ATOM      6  O   UNL     1       2.712   2.804   0.000  0.00  0.00    +0.000 OA
ATOM      7  N   UNL     1       1.340   2.788   0.000  0.00  0.00    +0.000 N 
ATOM      8  C   UNL     1       2.021   3.192   0.000  0.00  0.00    +0.000 C 
ATOM      9  H   UNL     1       0.912   3.029   0.000  0.00  0.00    +0.000 HD
BRANCH   8  13
ATOM     10  N   UNL     1       3.406   4.011   0.000  0.00  0.00    +0.000 NA
ATOM     11  N   UNL     1       3.406   5.596   0.000  0.00  0.00    +0.000 NA
ATOM     12  C   UNL     1       2.720   4.407   0.000  0.00  0.00    +0.000 A 
ATOM     13  C   UNL     1       2.012   3.984   0.000  0.00  0.00    +0.000 A 
ATOM     14  C   UNL     1       2.720   5.200   0.000  0.00  0.00    +0.000 A 
ATOM     15  C   UNL     1       4.092   4.407   0.000  0.00  0.00    +0.000 A 
ATOM     16  C   UNL     1       4.092   5.200   0.000  0.00  0.00    +0.000 A 
ATOM     17  C   UNL     1       4.800   3.984   0.000  0.00  0.00    +0.000 A 
ATOM     18  C   UNL     1       1.294   4.391   0.000  0.00  0.00    +0.000 A 
ATOM     19  C   UNL     1       2.012   5.623   0.000  0.00  0.00    +0.000 A 
ATOM     20  C   UNL     1       1.294   5.216   0.000  0.00  0.00    +0.000 A 
ATOM     21  C   UNL     1       4.800   5.623   0.000  0.00  0.00    +0.000 A 
ATOM     22  C   UNL     1       5.518   4.391   0.000  0.00  0.00    +0.000 A 
ATOM     23  C   UNL     1       5.518   5.216   0.000  0.00  0.00    +0.000 A 
ATOM     24  C   UNL     1       4.791   3.192   0.000  0.00  0.00    +0.000 C 
ENDBRANCH   8  13
ENDBRANCH   5   7
ENDBRANCH   4   5
ENDBRANCH   2   4
ENDBRANCH   1   2
BRANCH   1  25
ATOM     25  C   UNL     1       0.004  -0.396   0.000  0.00  0.00    +0.000 C 
BRANCH  25  26
ATOM     26  N   UNL     1      -0.677  -0.800   0.000  0.00  0.00    +0.000 NA
ATOM     27  H   UNL     1      -1.105  -0.559   0.000  0.00  0.00    +0.000 HD
BRANCH  26  28
ATOM     28  C   UNL     1      -0.668  -1.592   0.000  0.00  0.00    +0.000 C 
BRANCH  28  29
ATOM     29  C   UNL     1      -1.349  -1.996   0.000  0.00  0.00    +0.000 C 
BRANCH  29  31
ATOM     30  O   UNL     1      -2.712  -2.804   0.000  0.00  0.00    +0.000 OA
ATOM     31  N   UNL     1      -1.340  -2.788   0.000  0.00  0.00    +0.000 N 
ATOM     32  C   UNL     1      -2.021  -3.192   0.000  0.00  0.00    +0.000 C 
ATOM     33  H   UNL     1      -0.912  -3.029   0.000  0.00  0.00    +0.000 HD
BRANCH  32  37
ATOM     34  N   UNL     1      -3.406  -4.011   0.000  0.00  0.00    +0.000 NA
ATOM     35  N   UNL     1      -3.406  -5.596   0.000  0.00  0.00    +0.000 NA
ATOM     36  C   UNL     1      -2.720  -4.407   0.000  0.00  0.00    +0.000 A 
ATOM     37  C   UNL     1      -2.012  -3.984   0.000  0.00  0.00    +0.000 A 
ATOM     38  C   UNL     1      -2.720  -5.200   0.000  0.00  0.00    +0.000 A 
ATOM     39  C   UNL     1      -4.092  -4.407   0.000  0.00  0.00    +0.000 A 
ATOM     40  C   UNL     1      -4.092  -5.200   0.000  0.00  0.00    +0.000 A 
ATOM     41  C   UNL     1      -4.800  -3.984   0.000  0.00  0.00    +0.000 A 
ATOM     42  C   UNL     1      -1.294  -4.391   0.000  0.00  0.00    +0.000 A 
ATOM     43  C   UNL     1      -2.012  -5.623   0.000  0.00  0.00    +0.000 A 
ATOM     44  C   UNL     1      -1.294  -5.216   0.000  0.00  0.00    +0.000 A 
ATOM     45  C   UNL     1      -4.800  -5.623   0.000  0.00  0.00    +0.000 A 
ATOM     46  C   UNL     1      -5.518  -4.391   0.000  0.00  0.00    +0.000 A 
ATOM     47  C   UNL     1      -5.518  -5.216   0.000  0.00  0.00    +0.000 A 
ATOM     48  C   UNL     1      -4.791  -3.192   0.000  0.00  0.00    +0.000 C 
ENDBRANCH  32  37
ENDBRANCH  29  31
ENDBRANCH  28  29
ENDBRANCH  26  28
ENDBRANCH  25  26
ENDBRANCH   1  25
TORSDOF 11
