REMARK  Name = 
REMARK  10 active torsions:
REMARK  status: ('A' for Active; 'I' for Inactive)
REMARK    1  A    between atoms: C_3  and  C_5
REMARK    2  A    between atoms: C_5  and  C_6
REMARK    3  A    between atoms: C_6  and  C_7
REMARK    4  A    between atoms: C_7  and  C_8
REMARK    5  A    between atoms: C_8  and  C_9
REMARK    6  A    between atoms: C_9  and  C_10
REMARK    7  A    between atoms: C_10  and  N_11
REMARK    8  A    between atoms: C_12  and  C_14
REMARK    9  A    between atoms: N_20  and  C_21
REMARK   10  A    between atoms: N_20  and  C_27
REMARK                            x       y       z     vdW  Elec       q    Type
REMARK                         _______ _______ _______ _____ _____    ______ ____
ROOT
ATOM      1  C   UNL     1      15.718  -3.300   0.000  0.00  0.00    +0.000 A 
ATOM      2  C   UNL     1      16.433  -2.888   0.000  0.00  0.00    +0.000 A 
ATOM      3  N   UNL     1      17.147  -3.300   0.000  0.00  0.00    +0.000 NA
ATOM      4  C   UNL     1      17.147  -4.125   0.000  0.00  0.00    +0.000 A 
ATOM      5  N   UNL     1      16.433  -4.537   0.000  0.00  0.00    +0.000 NA
ATOM      6  C   UNL     1      15.718  -4.125   0.000  0.00  0.00    +0.000 A 
ATOM      7  N   UNL     1      17.862  -4.537   0.000  0.00  0.00    +0.000 N 
ENDROOT
BRANCH   7   8
ATOM      8  C   UNL     1      17.862  -5.362   0.000  0.00  0.00    +0.000 A 
ATOM      9  C   UNL     1      18.576  -5.775   0.000  0.00  0.00    +0.000 A 
ATOM     10  C   UNL     1      18.576  -6.600   0.000  0.00  0.00    +0.000 A 
ATOM     11  C   UNL     1      17.862  -7.013   0.000  0.00  0.00    +0.000 A 
ATOM     12  C   UNL     1      17.147  -6.600   0.000  0.00  0.00    +0.000 A 
ATOM     13  C   UNL     1      17.147  -5.775   0.000  0.00  0.00    +0.000 A 
ATOM     14 CL   UNL     1      16.433  -5.362   0.000  0.00  0.00    +0.000 Cl
ENDBRANCH   7   8
BRANCH   7  15
ATOM     15  C   UNL     1      18.576  -4.125   0.000  0.00  0.00    +0.000 A 
ATOM     16  C   UNL     1      18.576  -3.300   0.000  0.00  0.00    +0.000 A 
ATOM     17  C   UNL     1      19.291  -2.888   0.000  0.00  0.00    +0.000 A 
ATOM     18  C   UNL     1      20.005  -3.300   0.000  0.00  0.00    +0.000 A 
ATOM     19  C   UNL     1      20.005  -4.125   0.000  0.00  0.00    +0.000 A 
ATOM     20  C   UNL     1      19.291  -4.537   0.000  0.00  0.00    +0.000 A 
ENDBRANCH   7  15
BRANCH   1  22
ATOM     21  N   UNL     1      14.289  -3.300   0.000  0.00  0.00    +0.000 NA
ATOM     22  C   UNL     1      15.004  -2.888   0.000  0.00  0.00    +0.000 C 
ATOM     23  O   UNL     1      15.004  -2.062   0.000  0.00  0.00    +0.000 OA
BRANCH  21  24
ATOM     24  C   UNL     1      13.575  -2.888   0.000  0.00  0.00    +0.000 C 
BRANCH  24  25
ATOM     25  C   UNL     1      12.861  -3.300   0.000  0.00  0.00    +0.000 C 
BRANCH  25  26
ATOM     26  C   UNL     1      12.146  -2.888   0.000  0.00  0.00    +0.000 C 
BRANCH  26  27
ATOM     27  C   UNL     1      11.431  -3.300   0.000  0.00  0.00    +0.000 C 
BRANCH  27  28
ATOM     28  C   UNL     1      10.717  -2.888   0.000  0.00  0.00    +0.000 C 
BRANCH  28  29
ATOM     29  C   UNL     1      10.003  -3.300   0.000  0.00  0.00    +0.000 C 
BRANCH  29  32
ATOM     30  O   UNL     1       7.859  -2.888   0.000  0.00  0.00    +0.000 OA
ATOM     31  N   UNL     1       8.574  -3.300   0.000  0.00  0.00    +0.000 NA
ATOM     32  C   UNL     1       9.288  -2.888   0.000  0.00  0.00    +0.000 C 
ATOM     33  O   UNL     1       9.288  -2.062   0.000  0.00  0.00    +0.000 OA
ENDBRANCH  29  32
ENDBRANCH  28  29
ENDBRANCH  27  28
ENDBRANCH  26  27
ENDBRANCH  25  26
ENDBRANCH  24  25
ENDBRANCH  21  24
ENDBRANCH   1  22
TORSDOF 10
