REMARK  Name = 
REMARK  14 active torsions:
REMARK  status: ('A' for Active; 'I' for Inactive)
REMARK    1  A    between atoms: C_1  and  N_4
REMARK    2  A    between atoms: C_5  and  C_11
REMARK    3  A    between atoms: C_9  and  C_12
REMARK    4  A    between atoms: C_12  and  O_17
REMARK    5  A    between atoms: O_17  and  C_18
REMARK    6  A    between atoms: C_18  and  C_19
REMARK    7  A    between atoms: C_19  and  O_20
REMARK    8  A    between atoms: O_20  and  C_21
REMARK    9  A    between atoms: C_21  and  C_22
REMARK   10  A    between atoms: C_22  and  O_23
REMARK   11  A    between atoms: O_23  and  C_24
REMARK   12  A    between atoms: C_24  and  C_25
REMARK   13  A    between atoms: N_26  and  C_28
REMARK   14  A    between atoms: C_31  and  C_36
REMARK                            x       y       z     vdW  Elec       q    Type
REMARK                         _______ _______ _______ _____ _____    ______ ____
ROOT
ATOM      1  O   UNL     1       0.000  -1.038   0.000  0.00  0.00    +0.000 OA
ENDROOT
BRANCH   1   2
ATOM      2  C   UNL     1      -0.723  -0.614   0.000  0.00  0.00    +0.000 C 
BRANCH   2   3
ATOM      3  C   UNL     1      -1.434  -1.010   0.000  0.00  0.00    +0.000 C 
BRANCH   3   4
ATOM      4  O   UNL     1      -2.152  -0.578   0.000  0.00  0.00    +0.000 OA
BRANCH   4   5
ATOM      5  C   UNL     1      -2.871  -0.981   0.000  0.00  0.00    +0.000 C 
BRANCH   5   7
ATOM      6  N   UNL     1      -4.309  -0.953   0.000  0.00  0.00    +0.000 NA
ATOM      7  C   UNL     1      -3.590  -0.549   0.000  0.00  0.00    +0.000 C 
ATOM      8  O   UNL     1      -3.590   0.262   0.000  0.00  0.00    +0.000 OA
BRANCH   6   9
ATOM      9  C   UNL     1      -5.020  -0.517   0.000  0.00  0.00    +0.000 A 
ATOM     10  C   UNL     1      -5.020   0.291   0.000  0.00  0.00    +0.000 A 
ATOM     11  C   UNL     1      -5.734  -0.929   0.000  0.00  0.00    +0.000 A 
ATOM     12  C   UNL     1      -5.734   0.727   0.000  0.00  0.00    +0.000 A 
ATOM     13  I   UNL     1      -4.309   0.727   0.000  0.00  0.00    +0.000 I 
ATOM     14  C   UNL     1      -6.457  -0.497   0.000  0.00  0.00    +0.000 A 
ATOM     15  I   UNL     1      -5.734  -1.757   0.000  0.00  0.00    +0.000 I 
ATOM     16  C   UNL     1      -6.457   0.327   0.000  0.00  0.00    +0.000 A 
ATOM     17  I   UNL     1      -7.188   0.783   0.000  0.00  0.00    +0.000 I 
BRANCH  12  18
ATOM     18  C   UNL     1      -5.734   1.551   0.000  0.00  0.00    +0.000 C 
ATOM     19  O   UNL     1      -5.020   1.955   0.000  0.00  0.00    +0.000 OA
ATOM     20  O   UNL     1      -6.457   1.955   0.000  0.00  0.00    +0.000 OA
ENDBRANCH  12  18
ENDBRANCH   6   9
ENDBRANCH   5   7
ENDBRANCH   4   5
ENDBRANCH   3   4
ENDBRANCH   2   3
ENDBRANCH   1   2
BRANCH   1  21
ATOM     21  C   UNL     1       0.715  -0.646   0.000  0.00  0.00    +0.000 C 
BRANCH  21  22
ATOM     22  C   UNL     1       1.438  -1.074   0.000  0.00  0.00    +0.000 C 
BRANCH  22  23
ATOM     23  O   UNL     1       2.152  -0.662   0.000  0.00  0.00    +0.000 OA
BRANCH  23  24
ATOM     24  C   UNL     1       2.867  -1.090   0.000  0.00  0.00    +0.000 C 
BRANCH  24  25
ATOM     25  C   UNL     1       3.586  -0.695   0.000  0.00  0.00    +0.000 C 
ATOM     26  N   UNL     1       4.305  -1.127   0.000  0.00  0.00    +0.000 NA
ATOM     27  O   UNL     1       3.586   0.117   0.000  0.00  0.00    +0.000 OA
BRANCH  26  28
ATOM     28  C   UNL     1       5.036  -0.723   0.000  0.00  0.00    +0.000 A 
ATOM     29  C   UNL     1       5.036   0.089   0.000  0.00  0.00    +0.000 A 
ATOM     30  C   UNL     1       5.755  -1.127   0.000  0.00  0.00    +0.000 A 
ATOM     31  C   UNL     1       5.755   0.521   0.000  0.00  0.00    +0.000 A 
ATOM     32  I   UNL     1       4.305   0.521   0.000  0.00  0.00    +0.000 I 
ATOM     33  C   UNL     1       6.473  -0.723   0.000  0.00  0.00    +0.000 A 
ATOM     34  I   UNL     1       5.755  -1.955   0.000  0.00  0.00    +0.000 I 
ATOM     35  C   UNL     1       6.473   0.089   0.000  0.00  0.00    +0.000 A 
ATOM     36  I   UNL     1       7.188   0.521   0.000  0.00  0.00    +0.000 I 
BRANCH  31  37
ATOM     37  C   UNL     1       5.755   1.361   0.000  0.00  0.00    +0.000 C 
ATOM     38  O   UNL     1       6.473   1.757   0.000  0.00  0.00    +0.000 OA
ATOM     39  O   UNL     1       5.036   1.757   0.000  0.00  0.00    +0.000 OA
ENDBRANCH  31  37
ENDBRANCH  26  28
ENDBRANCH  24  25
ENDBRANCH  23  24
ENDBRANCH  22  23
ENDBRANCH  21  22
ENDBRANCH   1  21
TORSDOF 14
