REMARK  Name = 
REMARK  14 active torsions:
REMARK  status: ('A' for Active; 'I' for Inactive)
REMARK    1  A    between atoms: C_2  and  C_4
REMARK    2  A    between atoms: C_4  and  N_9
REMARK    3  A    between atoms: C_6  and  C_7
REMARK    4  A    between atoms: C_10  and  C_12
REMARK    5  A    between atoms: C_14  and  O_33
REMARK    6  A    between atoms: C_17  and  C_19
REMARK    7  A    between atoms: C_19  and  C_20
REMARK    8  A    between atoms: C_19  and  N_24
REMARK    9  A    between atoms: C_25  and  O_27
REMARK   10  A    between atoms: O_27  and  C_28
REMARK   11  A    between atoms: O_33  and  C_34
REMARK   12  A    between atoms: C_36  and  C_47
REMARK   13  A    between atoms: C_42  and  O_45
REMARK   14  A    between atoms: C_53  and  C_55
REMARK                            x       y       z     vdW  Elec       q    Type
REMARK                         _______ _______ _______ _____ _____    ______ ____
ROOT
ATOM      1  C   UNL     1       0.273   0.987   0.000  0.00  0.00    +0.000 C 
ATOM      2  C   UNL     1       0.098   0.180   0.000  0.00  0.00    +0.000 C 
ATOM      3  C   UNL     1      -0.720   0.093   0.000  0.00  0.00    +0.000 C 
ATOM      4  C   UNL     1      -1.058   0.845   0.000  0.00  0.00    +0.000 C 
ATOM      5  N   UNL     1      -0.447   1.401   0.000  0.00  0.00    +0.000 N 
ATOM      6  C   UNL     1      -0.534   2.219   0.000  0.00  0.00    +0.000 C 
ATOM      7  O   UNL     1       0.142   2.699   0.000  0.00  0.00    +0.000 OA
ENDROOT
BRANCH   1   9
ATOM      8  N   UNL     1       1.690   0.834   0.000  0.00  0.00    +0.000 NA
ATOM      9  C   UNL     1       1.025   1.325   0.000  0.00  0.00    +0.000 C 
ATOM     10  O   UNL     1       1.112   2.143   0.000  0.00  0.00    +0.000 OA
BRANCH   8  11
ATOM     11  C   UNL     1       2.443   1.172   0.000  0.00  0.00    +0.000 C 
ATOM     12  C   UNL     1       2.247   1.968   0.000  0.00  0.00    +0.000 C 
ATOM     13  C   UNL     1       3.043   1.750   0.000  0.00  0.00    +0.000 C 
BRANCH  11  15
ATOM     14  O   UNL     1       2.541  -0.256   0.000  0.00  0.00    +0.000 OA
ATOM     15  C   UNL     1       2.912   0.485   0.000  0.00  0.00    +0.000 C 
ATOM     16  O   UNL     1       3.730   0.551   0.000  0.00  0.00    +0.000 OA
ENDBRANCH  11  15
BRANCH  13  17
ATOM     17  C   UNL     1       3.839   1.947   0.000  0.00  0.00    +0.000 C 
ATOM     18  C   UNL     1       4.068   2.743   0.000  0.00  0.00    +0.000 C 
ENDBRANCH  13  17
ENDBRANCH   8  11
ENDBRANCH   1   9
BRANCH   6  19
ATOM     19  C   UNL     1      -1.287   2.558   0.000  0.00  0.00    +0.000 C 
BRANCH  19  20
ATOM     20  C   UNL     1      -1.374   3.376   0.000  0.00  0.00    +0.000 C 
ATOM     21  C   UNL     1      -0.698   3.855   0.000  0.00  0.00    +0.000 C 
ATOM     22  C   UNL     1      -2.127   3.714   0.000  0.00  0.00    +0.000 C 
ATOM     23  C   UNL     1      -1.450   4.193   0.000  0.00  0.00    +0.000 C 
ENDBRANCH  19  20
BRANCH  19  24
ATOM     24  N   UNL     1      -1.952   2.067   0.000  0.00  0.00    +0.000 NA
ATOM     25  C   UNL     1      -2.705   2.405   0.000  0.00  0.00    +0.000 C 
ATOM     26  O   UNL     1      -2.792   3.223   0.000  0.00  0.00    +0.000 OA
BRANCH  25  27
ATOM     27  O   UNL     1      -3.370   1.925   0.000  0.00  0.00    +0.000 OA
BRANCH  27  28
ATOM     28  C   UNL     1      -4.122   2.252   0.000  0.00  0.00    +0.000 C 
ATOM     29  C   UNL     1      -4.297   3.059   0.000  0.00  0.00    +0.000 C 
ATOM     30  C   UNL     1      -5.115   3.146   0.000  0.00  0.00    +0.000 C 
ATOM     31  C   UNL     1      -5.453   2.394   0.000  0.00  0.00    +0.000 C 
ATOM     32  C   UNL     1      -4.842   1.849   0.000  0.00  0.00    +0.000 C 
ENDBRANCH  27  28
ENDBRANCH  25  27
ENDBRANCH  19  24
ENDBRANCH   6  19
BRANCH   3  33
ATOM     33  O   UNL     1      -1.134  -0.616   0.000  0.00  0.00    +0.000 OA
BRANCH  33  34
ATOM     34  C   UNL     1      -0.720  -1.336   0.000  0.00  0.00    +0.000 A 
ATOM     35  C   UNL     1       0.109  -1.336   0.000  0.00  0.00    +0.000 A 
ATOM     36  C   UNL     1       0.512  -2.045   0.000  0.00  0.00    +0.000 A 
ATOM     37  N   UNL     1       0.109  -2.765   0.000  0.00  0.00    +0.000 NA
ATOM     38  C   UNL     1      -0.720  -2.765   0.000  0.00  0.00    +0.000 A 
ATOM     39  C   UNL     1      -1.134  -2.045   0.000  0.00  0.00    +0.000 A 
ATOM     40  C   UNL     1      -1.963  -2.045   0.000  0.00  0.00    +0.000 A 
ATOM     41  C   UNL     1      -2.367  -2.765   0.000  0.00  0.00    +0.000 A 
ATOM     42  C   UNL     1      -1.963  -3.474   0.000  0.00  0.00    +0.000 A 
ATOM     43  C   UNL     1      -1.134  -3.474   0.000  0.00  0.00    +0.000 A 
ATOM     44 BR   UNL     1      -0.720  -4.193   0.000  0.00  0.00    +0.000 Br
BRANCH  36  45
ATOM     45  C   UNL     1       1.341  -2.045   0.000  0.00  0.00    +0.000 A 
ATOM     46  C   UNL     1       1.821  -1.380   0.000  0.00  0.00    +0.000 A 
ATOM     47  S   UNL     1       2.607  -1.641   0.000  0.00  0.00    +0.000 S 
ATOM     48  C   UNL     1       2.607  -2.459   0.000  0.00  0.00    +0.000 A 
ATOM     49  N   UNL     1       1.821  -2.721   0.000  0.00  0.00    +0.000 NA
ATOM     50  N   UNL     1       3.283  -2.950   0.000  0.00  0.00    +0.000 NA
ATOM     51  C   UNL     1       4.035  -2.612   0.000  0.00  0.00    +0.000 C 
ATOM     52  O   UNL     1       4.123  -1.794   0.000  0.00  0.00    +0.000 OA
BRANCH  51  53
ATOM     53  C   UNL     1       4.701  -3.092   0.000  0.00  0.00    +0.000 C 
ATOM     54  C   UNL     1       5.453  -2.765   0.000  0.00  0.00    +0.000 C 
ATOM     55  C   UNL     1       4.613  -3.921   0.000  0.00  0.00    +0.000 C 
ENDBRANCH  51  53
ENDBRANCH  36  45
BRANCH  42  56
ATOM     56  O   UNL     1      -2.367  -4.193   0.000  0.00  0.00    +0.000 OA
ATOM     57  C   UNL     1      -3.196  -4.193   0.000  0.00  0.00    +0.000 C 
ENDBRANCH  42  56
ENDBRANCH  33  34
ENDBRANCH   3  33
TORSDOF 14
