REMARK  Name = 
REMARK  15 active torsions:
REMARK  status: ('A' for Active; 'I' for Inactive)
REMARK    1  A    between atoms: C_8  and  C_12
REMARK    2  A    between atoms: C_8  and  C_14
REMARK    3  A    between atoms: C_9  and  C_13
REMARK    4  A    between atoms: C_9  and  C_15
REMARK    5  A    between atoms: C_10  and  C_16
REMARK    6  A    between atoms: C_10  and  C_17
REMARK    7  A    between atoms: C_11  and  C_18
REMARK    8  A    between atoms: C_11  and  C_19
REMARK    9  A    between atoms: C_14  and  C_24
REMARK   10  A    between atoms: C_15  and  C_26
REMARK   11  A    between atoms: C_17  and  C_25
REMARK   12  A    between atoms: C_19  and  C_27
REMARK   13  A    between atoms: C_20  and  C_21
REMARK   14  A    between atoms: C_21  and  O_29
REMARK   15  A    between atoms: C_27  and  O_29
REMARK                            x       y       z     vdW  Elec       q    Type
REMARK                         _______ _______ _______ _____ _____    ______ ____
ROOT
ATOM      1  C   UNL     1       2.062  -0.715   0.000  0.00  0.00    +0.000 C 
ENDROOT
BRANCH   1   3
ATOM      2  C   UNL     1       2.062   0.935   0.000  0.00  0.00    +0.000 C 
ATOM      3  C   UNL     1       1.348  -0.302   0.000  0.00  0.00    +0.000 C 
ATOM      4  C   UNL     1       1.348   0.523   0.000  0.00  0.00    +0.000 C 
BRANCH   4   5
ATOM      5  C   UNL     1       0.634   0.935   0.000  0.00  0.00    +0.000 C 
BRANCH   5   6
ATOM      6  C   UNL     1       0.634   1.760   0.000  0.00  0.00    +0.000 C 
BRANCH   6   8
ATOM      7  C   UNL     1       0.634   3.410   0.000  0.00  0.00    +0.000 C 
ATOM      8  C   UNL     1      -0.081   2.173   0.000  0.00  0.00    +0.000 C 
ATOM      9  C   UNL     1      -0.081   2.998   0.000  0.00  0.00    +0.000 C 
BRANCH   9  10
ATOM     10  C   UNL     1      -0.795   3.410   0.000  0.00  0.00    +0.000 C 
BRANCH  10  11
ATOM     11  C   UNL     1      -0.795   4.236   0.000  0.00  0.00    +0.000 C 
BRANCH  11  14
ATOM     12  C   UNL     1      -2.224   5.886   0.000  0.00  0.00    +0.000 C 
ATOM     13  C   UNL     1      -0.795   5.886   0.000  0.00  0.00    +0.000 C 
ATOM     14  C   UNL     1      -1.510   4.648   0.000  0.00  0.00    +0.000 C 
ATOM     15  C   UNL     1      -1.510   5.473   0.000  0.00  0.00    +0.000 C 
ENDBRANCH  11  14
ENDBRANCH  10  11
ENDBRANCH   9  10
ENDBRANCH   6   8
ENDBRANCH   5   6
ENDBRANCH   4   5
ENDBRANCH   1   3
BRANCH   1  16
ATOM     16  C   UNL     1       2.777  -0.302   0.000  0.00  0.00    +0.000 C 
BRANCH  16  17
ATOM     17  C   UNL     1       3.491  -0.715   0.000  0.00  0.00    +0.000 C 
ATOM     18  O   UNL     1       3.491  -1.540   0.000  0.00  0.00    +0.000 OA
BRANCH  17  19
ATOM     19  O   UNL     1       4.206  -0.302   0.000  0.00  0.00    +0.000 OA
BRANCH  19  20
ATOM     20  C   UNL     1       4.920  -0.715   0.000  0.00  0.00    +0.000 C 
BRANCH  20  22
ATOM     21  C   UNL     1       6.349  -1.540   0.000  0.00  0.00    +0.000 C 
ATOM     22  C   UNL     1       5.635  -0.302   0.000  0.00  0.00    +0.000 C 
ATOM     23  C   UNL     1       6.349  -0.715   0.000  0.00  0.00    +0.000 C 
BRANCH  23  24
ATOM     24  C   UNL     1       7.064  -0.302   0.000  0.00  0.00    +0.000 C 
BRANCH  24  25
ATOM     25  C   UNL     1       7.778  -0.715   0.000  0.00  0.00    +0.000 C 
BRANCH  25  28
ATOM     26  C   UNL     1       9.922  -0.302   0.000  0.00  0.00    +0.000 C 
ATOM     27  C   UNL     1       9.207  -1.540   0.000  0.00  0.00    +0.000 C 
ATOM     28  C   UNL     1       8.493  -0.302   0.000  0.00  0.00    +0.000 C 
ATOM     29  C   UNL     1       9.207  -0.715   0.000  0.00  0.00    +0.000 C 
ENDBRANCH  25  28
ENDBRANCH  24  25
ENDBRANCH  23  24
ENDBRANCH  20  22
ENDBRANCH  19  20
ENDBRANCH  17  19
ENDBRANCH  16  17
ENDBRANCH   1  16
TORSDOF 15
