REMARK  Name = 
REMARK  7 active torsions:
REMARK  status: ('A' for Active; 'I' for Inactive)
REMARK    1  A    between atoms: N_5  and  C_8
REMARK    2  A    between atoms: C_10  and  N_11
REMARK    3  A    between atoms: N_20  and  C_21
REMARK    4  A    between atoms: C_21  and  C_22
REMARK    5  A    between atoms: C_25  and  C_26
REMARK    6  A    between atoms: C_31  and  O_32
REMARK    7  A    between atoms: O_32  and  C_33
REMARK                            x       y       z     vdW  Elec       q    Type
REMARK                         _______ _______ _______ _____ _____    ______ ____
ROOT
ATOM      1  N   UNL     1       0.560  -2.228   0.000  0.00  0.00    +0.000 NA
ATOM      2  C   UNL     1       0.994  -1.526   0.000  0.00  0.00    +0.000 A 
ATOM      3  N   UNL     1       0.604  -0.799   0.000  0.00  0.00    +0.000 NA
ATOM      4  C   UNL     1       1.039  -0.098   0.000  0.00  0.00    +0.000 A 
ATOM      5  C   UNL     1       1.864  -0.124   0.000  0.00  0.00    +0.000 A 
ATOM      6  C   UNL     1       2.298   0.578   0.000  0.00  0.00    +0.000 C 
ATOM      7  C   UNL     1       3.123   0.552   0.000  0.00  0.00    +0.000 C 
ATOM      8  C   UNL     1       3.513  -0.175   0.000  0.00  0.00    +0.000 A 
ATOM      9  C   UNL     1       3.078  -0.876   0.000  0.00  0.00    +0.000 A 
ATOM     10  N   UNL     1       3.611  -1.507   0.000  0.00  0.00    +0.000 N 
ATOM     11  N   UNL     1       4.375  -1.195   0.000  0.00  0.00    +0.000 NA
ATOM     12  C   UNL     1       4.314  -0.372   0.000  0.00  0.00    +0.000 A 
ATOM     13  C   UNL     1       2.253  -0.851   0.000  0.00  0.00    +0.000 A 
ATOM     14  N   UNL     1       1.819  -1.552   0.000  0.00  0.00    +0.000 NA
ENDROOT
BRANCH   1  17
ATOM     15  C   UNL     1      -1.480  -1.449   0.000  0.00  0.00    +0.000 A 
ATOM     16  C   UNL     1      -0.655  -1.475   0.000  0.00  0.00    +0.000 A 
ATOM     17  C   UNL     1      -0.265  -2.202   0.000  0.00  0.00    +0.000 A 
ATOM     18  C   UNL     1      -0.700  -2.903   0.000  0.00  0.00    +0.000 A 
ATOM     19  C   UNL     1      -1.524  -2.877   0.000  0.00  0.00    +0.000 A 
ATOM     20  C   UNL     1      -1.914  -2.150   0.000  0.00  0.00    +0.000 A 
BRANCH  15  25
ATOM     21  C   UNL     1      -3.039   1.459   0.000  0.00  0.00    +0.000 C 
ATOM     22  N   UNL     1      -2.649   0.732   0.000  0.00  0.00    +0.000 NA
ATOM     23  C   UNL     1      -1.825   0.706   0.000  0.00  0.00    +0.000 C 
ATOM     24  C   UNL     1      -1.435  -0.021   0.000  0.00  0.00    +0.000 C 
ATOM     25  N   UNL     1      -1.869  -0.722   0.000  0.00  0.00    +0.000 N 
ATOM     26  C   UNL     1      -2.694  -0.696   0.000  0.00  0.00    +0.000 C 
ATOM     27  C   UNL     1      -3.084   0.031   0.000  0.00  0.00    +0.000 C 
ENDBRANCH  15  25
BRANCH  18  28
ATOM     28  O   UNL     1      -0.309  -3.630   0.000  0.00  0.00    +0.000 OA
BRANCH  28  29
ATOM     29  C   UNL     1      -0.744  -4.331   0.000  0.00  0.00    +0.000 C 
ATOM     30  F   UNL     1      -1.445  -3.897   0.000  0.00  0.00    +0.000 F 
ATOM     31  F   UNL     1      -0.043  -4.766   0.000  0.00  0.00    +0.000 F 
ATOM     32  F   UNL     1      -1.179  -5.032   0.000  0.00  0.00    +0.000 F 
ENDBRANCH  28  29
ENDBRANCH  18  28
ENDBRANCH   1  17
BRANCH  12  33
ATOM     33  C   UNL     1       4.944   0.161   0.000  0.00  0.00    +0.000 C 
ATOM     34  N   UNL     1       4.798   0.973   0.000  0.00  0.00    +0.000 NA
ATOM     35  O   UNL     1       5.720  -0.119   0.000  0.00  0.00    +0.000 OA
ENDBRANCH  12  33
BRANCH  10  36
ATOM     36  C   UNL     1       3.414  -2.308   0.000  0.00  0.00    +0.000 C 
BRANCH  36  37
ATOM     37  C   UNL     1       2.622  -2.538   0.000  0.00  0.00    +0.000 C 
ATOM     38  O   UNL     1       2.425  -3.339   0.000  0.00  0.00    +0.000 OA
ENDBRANCH  36  37
ENDBRANCH  10  36
TORSDOF 7
