REMARK  Name = 
REMARK  3 active torsions:
REMARK  status: ('A' for Active; 'I' for Inactive)
REMARK    1  A    between atoms: N_19  and  C_20
REMARK    2  A    between atoms: C_20  and  C_21
REMARK    3  A    between atoms: C_21  and  C_22
REMARK                            x       y       z     vdW  Elec       q    Type
REMARK                         _______ _______ _______ _____ _____    ______ ____
ROOT
ATOM      1  C   UNL     1       4.248  -5.574   0.000  0.00  0.00    +0.000 C 
ATOM      2  N   UNL     1       4.076  -4.767   0.000  0.00  0.00    +0.000 N 
ATOM      3  C   UNL     1       3.323  -4.431   0.000  0.00  0.00    +0.000 A 
ATOM      4  C   UNL     1       3.409  -3.611   0.000  0.00  0.00    +0.000 A 
ATOM      5  C   UNL     1       2.741  -3.126   0.000  0.00  0.00    +0.000 A 
ATOM      6  C   UNL     1       1.988  -3.461   0.000  0.00  0.00    +0.000 A 
ATOM      7  C   UNL     1       1.901  -4.282   0.000  0.00  0.00    +0.000 A 
ATOM      8  C   UNL     1       2.569  -4.767   0.000  0.00  0.00    +0.000 A 
ATOM      9  C   UNL     1       4.216  -3.439   0.000  0.00  0.00    +0.000 A 
ATOM     10  C   UNL     1       4.628  -4.154   0.000  0.00  0.00    +0.000 A 
ATOM     11  C   UNL     1       5.453  -4.154   0.000  0.00  0.00    +0.000 A 
ATOM     12  C   UNL     1       5.866  -3.439   0.000  0.00  0.00    +0.000 A 
ATOM     13  C   UNL     1       6.673  -3.611   0.000  0.00  0.00    +0.000 A 
ATOM     14  C   UNL     1       7.340  -3.126   0.000  0.00  0.00    +0.000 A 
ATOM     15  C   UNL     1       8.094  -3.461   0.000  0.00  0.00    +0.000 A 
ATOM     16  C   UNL     1       8.180  -4.282   0.000  0.00  0.00    +0.000 A 
ATOM     17  C   UNL     1       7.513  -4.767   0.000  0.00  0.00    +0.000 A 
ATOM     18  C   UNL     1       6.759  -4.431   0.000  0.00  0.00    +0.000 A 
ATOM     19  N   UNL     1       6.005  -4.767   0.000  0.00  0.00    +0.000 N 
ATOM     20  C   UNL     1       5.453  -2.725   0.000  0.00  0.00    +0.000 A 
ATOM     21  C   UNL     1       4.628  -2.725   0.000  0.00  0.00    +0.000 A 
ATOM     22  C   UNL     1       4.373  -1.940   0.000  0.00  0.00    +0.000 C 
ATOM     23  O   UNL     1       3.589  -1.685   0.000  0.00  0.00    +0.000 OA
ATOM     24  N   UNL     1       5.041  -1.455   0.000  0.00  0.00    +0.000 NA
ATOM     25  C   UNL     1       5.708  -1.940   0.000  0.00  0.00    +0.000 C 
ENDROOT
BRANCH  19  26
ATOM     26  C   UNL     1       5.834  -5.574   0.000  0.00  0.00    +0.000 C 
BRANCH  26  27
ATOM     27  C   UNL     1       5.049  -5.829   0.000  0.00  0.00    +0.000 C 
BRANCH  27  28
ATOM     28  C   UNL     1       4.878  -6.636   0.000  0.00  0.00    +0.000 C 
ATOM     29  N   UNL     1       4.706  -7.443   0.000  0.00  0.00    +0.000 NA
ENDBRANCH  27  28
ENDBRANCH  26  27
ENDBRANCH  19  26
TORSDOF 3
