REMARK  Name = 
REMARK  5 active torsions:
REMARK  status: ('A' for Active; 'I' for Inactive)
REMARK    1  A    between atoms: C_9  and  C_23
REMARK    2  A    between atoms: C_10  and  C_12
REMARK    3  A    between atoms: C_13  and  C_14
REMARK    4  A    between atoms: C_17  and  C_20
REMARK    5  A    between atoms: C_23  and  N_24
REMARK                            x       y       z     vdW  Elec       q    Type
REMARK                         _______ _______ _______ _____ _____    ______ ____
ROOT
ATOM      1  C   UNL     1      -2.685   1.441   0.000  0.00  0.00    +0.000 C 
ATOM      2  C   UNL     1      -3.215   0.809   0.000  0.00  0.00    +0.000 C 
ATOM      3  C   UNL     1      -3.930   0.396   0.000  0.00  0.00    +0.000 C 
ATOM      4  C   UNL     1      -3.930  -0.428   0.000  0.00  0.00    +0.000 C 
ATOM      5  C   UNL     1      -3.215  -0.841   0.000  0.00  0.00    +0.000 C 
ATOM      6  C   UNL     1      -2.501  -0.428   0.000  0.00  0.00    +0.000 A 
ATOM      7  C   UNL     1      -2.501   0.396   0.000  0.00  0.00    +0.000 A 
ATOM      8  C   UNL     1      -1.786   0.809   0.000  0.00  0.00    +0.000 A 
ATOM      9  C   UNL     1      -1.072   0.396   0.000  0.00  0.00    +0.000 A 
ATOM     10  C   UNL     1      -1.072  -0.428   0.000  0.00  0.00    +0.000 A 
ATOM     11  C   UNL     1      -1.786  -0.841   0.000  0.00  0.00    +0.000 A 
ATOM     12  C   UNL     1      -2.828  -1.569   0.000  0.00  0.00    +0.000 C 
ATOM     13  C   UNL     1      -3.602  -1.569   0.000  0.00  0.00    +0.000 C 
ATOM     14  C   UNL     1      -3.745   1.441   0.000  0.00  0.00    +0.000 C 
ENDROOT
BRANCH  10  15
ATOM     15  C   UNL     1      -0.357  -0.841   0.000  0.00  0.00    +0.000 C 
ATOM     16  C   UNL     1       0.357  -0.428   0.000  0.00  0.00    +0.000 C 
BRANCH  16  17
ATOM     17  C   UNL     1       1.072  -0.841   0.000  0.00  0.00    +0.000 A 
ATOM     18  C   UNL     1       1.786  -0.428   0.000  0.00  0.00    +0.000 A 
ATOM     19  C   UNL     1       2.501  -0.841   0.000  0.00  0.00    +0.000 A 
ATOM     20  C   UNL     1       2.501  -1.666   0.000  0.00  0.00    +0.000 A 
ATOM     21  C   UNL     1       1.786  -2.079   0.000  0.00  0.00    +0.000 A 
ATOM     22  C   UNL     1       1.072  -1.666   0.000  0.00  0.00    +0.000 A 
BRANCH  20  23
ATOM     23  C   UNL     1       3.215  -2.079   0.000  0.00  0.00    +0.000 C 
ATOM     24  O   UNL     1       3.930  -1.666   0.000  0.00  0.00    +0.000 OA
ATOM     25  O   UNL     1       3.215  -2.904   0.000  0.00  0.00    +0.000 OA
ENDBRANCH  20  23
ENDBRANCH  16  17
ENDBRANCH  10  15
BRANCH   9  26
ATOM     26  C   UNL     1      -0.357   0.809   0.000  0.00  0.00    +0.000 C 
BRANCH  26  27
ATOM     27  N   UNL     1      -0.357   1.634   0.000  0.00  0.00    +0.000 N 
ATOM     28  C   UNL     1      -1.025   2.119   0.000  0.00  0.00    +0.000 A 
ATOM     29  C   UNL     1      -0.770   2.904   0.000  0.00  0.00    +0.000 A 
ATOM     30  C   UNL     1       0.055   2.904   0.000  0.00  0.00    +0.000 A 
ATOM     31  N   UNL     1       0.310   2.119   0.000  0.00  0.00    +0.000 NA
ENDBRANCH  26  27
ENDBRANCH   9  26
TORSDOF 5
