REMARK  Name = 
REMARK  8 active torsions:
REMARK  status: ('A' for Active; 'I' for Inactive)
REMARK    1  A    between atoms: C_2  and  C_4
REMARK    2  A    between atoms: C_7  and  C_10
REMARK    3  A    between atoms: C_12  and  C_13
REMARK    4  A    between atoms: C_17  and  O_18
REMARK    5  A    between atoms: O_18  and  C_19
REMARK    6  A    between atoms: C_19  and  C_20
REMARK    7  A    between atoms: C_21  and  C_33
REMARK    8  A    between atoms: C_24  and  C_25
REMARK                            x       y       z     vdW  Elec       q    Type
REMARK                         _______ _______ _______ _____ _____    ______ ____
ROOT
ATOM      1  C   UNL     1       5.244  -1.503   0.000  0.00  0.00    +0.000 A 
ATOM      2  C   UNL     1       5.244  -2.328   0.000  0.00  0.00    +0.000 A 
ATOM      3 CL   UNL     1       5.959  -2.741   0.000  0.00  0.00    +0.000 Cl
ATOM      4  C   UNL     1       4.530  -2.741   0.000  0.00  0.00    +0.000 A 
ATOM      5  C   UNL     1       3.815  -2.328   0.000  0.00  0.00    +0.000 A 
ATOM      6  C   UNL     1       3.815  -1.503   0.000  0.00  0.00    +0.000 A 
ATOM      7  C   UNL     1       4.530  -1.091   0.000  0.00  0.00    +0.000 A 
ENDROOT
BRANCH   1  10
ATOM      8  C   UNL     1       6.371  -0.376   0.000  0.00  0.00    +0.000 C 
ATOM      9  C   UNL     1       6.784  -1.091   0.000  0.00  0.00    +0.000 C 
ATOM     10  C   UNL     1       5.959  -1.091   0.000  0.00  0.00    +0.000 C 
BRANCH   8  14
ATOM     11  C   UNL     1       6.371   2.099   0.000  0.00  0.00    +0.000 A 
ATOM     12  C   UNL     1       7.086   1.686   0.000  0.00  0.00    +0.000 A 
ATOM     13  C   UNL     1       7.086   0.861   0.000  0.00  0.00    +0.000 A 
ATOM     14  C   UNL     1       6.371   0.449   0.000  0.00  0.00    +0.000 A 
ATOM     15  C   UNL     1       5.657   0.861   0.000  0.00  0.00    +0.000 A 
ATOM     16  C   UNL     1       5.657   1.686   0.000  0.00  0.00    +0.000 A 
BRANCH  11  18
ATOM     17  O   UNL     1       5.657   3.336   0.000  0.00  0.00    +0.000 OA
ATOM     18  C   UNL     1       6.371   2.924   0.000  0.00  0.00    +0.000 C 
ATOM     19  O   UNL     1       7.086   3.336   0.000  0.00  0.00    +0.000 OA
ENDBRANCH  11  18
ENDBRANCH   8  14
ENDBRANCH   1  10
BRANCH   5  20
ATOM     20  O   UNL     1       3.101  -2.741   0.000  0.00  0.00    +0.000 OA
BRANCH  20  21
ATOM     21  C   UNL     1       2.386  -2.328   0.000  0.00  0.00    +0.000 C 
BRANCH  21  22
ATOM     22  C   UNL     1       1.672  -2.741   0.000  0.00  0.00    +0.000 A 
ATOM     23  C   UNL     1       1.586  -3.561   0.000  0.00  0.00    +0.000 A 
ATOM     24  O   UNL     1       0.779  -3.733   0.000  0.00  0.00    +0.000 OA
ATOM     25  N   UNL     1       0.366  -3.018   0.000  0.00  0.00    +0.000 NA
ATOM     26  C   UNL     1       0.918  -2.405   0.000  0.00  0.00    +0.000 A 
BRANCH  26  27
ATOM     27  C   UNL     1       0.747  -1.598   0.000  0.00  0.00    +0.000 A 
ATOM     28  C   UNL     1      -0.038  -1.343   0.000  0.00  0.00    +0.000 A 
ATOM     29 CL   UNL     1      -0.651  -1.895   0.000  0.00  0.00    +0.000 Cl
ATOM     30  C   UNL     1      -0.210  -0.536   0.000  0.00  0.00    +0.000 A 
ATOM     31  C   UNL     1       0.404   0.016   0.000  0.00  0.00    +0.000 A 
ATOM     32  C   UNL     1       1.188  -0.239   0.000  0.00  0.00    +0.000 A 
ATOM     33  C   UNL     1       1.360  -1.046   0.000  0.00  0.00    +0.000 A 
ATOM     34 CL   UNL     1       2.144  -1.301   0.000  0.00  0.00    +0.000 Cl
ENDBRANCH  26  27
BRANCH  23  35
ATOM     35  C   UNL     1       2.199  -4.113   0.000  0.00  0.00    +0.000 C 
ATOM     36  C   UNL     1       3.006  -4.285   0.000  0.00  0.00    +0.000 C 
ATOM     37  C   UNL     1       2.454  -4.898   0.000  0.00  0.00    +0.000 C 
ENDBRANCH  23  35
ENDBRANCH  21  22
ENDBRANCH  20  21
ENDBRANCH   5  20
TORSDOF 8
