REMARK  Name = 
REMARK  12 active torsions:
REMARK  status: ('A' for Active; 'I' for Inactive)
REMARK    1  A    between atoms: C_1  and  O_7
REMARK    2  A    between atoms: C_4  and  C_8
REMARK    3  A    between atoms: O_7  and  C_9
REMARK    4  A    between atoms: C_8  and  O_16
REMARK    5  A    between atoms: C_9  and  C_10
REMARK    6  A    between atoms: C_10  and  C_11
REMARK    7  A    between atoms: C_11  and  N_12
REMARK    8  A    between atoms: N_12  and  C_13
REMARK    9  A    between atoms: O_16  and  C_17
REMARK   10  A    between atoms: C_17  and  C_18
REMARK   11  A    between atoms: C_18  and  O_19
REMARK   12  A    between atoms: O_19  and  C_20
REMARK                            x       y       z     vdW  Elec       q    Type
REMARK                         _______ _______ _______ _____ _____    ______ ____
ROOT
ATOM      1  C   UNL     1      -1.786   0.825   0.000  0.00  0.00    +0.000 A 
ATOM      2  C   UNL     1      -2.501   0.412   0.000  0.00  0.00    +0.000 A 
ATOM      3  C   UNL     1      -2.501  -0.412   0.000  0.00  0.00    +0.000 A 
ATOM      4  C   UNL     1      -1.786  -0.825   0.000  0.00  0.00    +0.000 A 
ATOM      5  C   UNL     1      -1.072  -0.412   0.000  0.00  0.00    +0.000 A 
ATOM      6  C   UNL     1      -1.072   0.412   0.000  0.00  0.00    +0.000 A 
ENDROOT
BRANCH   1   7
ATOM      7  O   UNL     1      -1.786   1.650   0.000  0.00  0.00    +0.000 OA
BRANCH   7   8
ATOM      8  C   UNL     1      -1.072   2.062   0.000  0.00  0.00    +0.000 C 
BRANCH   8   9
ATOM      9  C   UNL     1      -0.357   1.650   0.000  0.00  0.00    +0.000 C 
ATOM     10  O   UNL     1      -0.357   0.825   0.000  0.00  0.00    +0.000 OA
BRANCH   9  11
ATOM     11  C   UNL     1       0.357   2.062   0.000  0.00  0.00    +0.000 C 
BRANCH  11  12
ATOM     12  N   UNL     1       1.072   1.650   0.000  0.00  0.00    +0.000 NA
BRANCH  12  13
ATOM     13  C   UNL     1       1.786   2.062   0.000  0.00  0.00    +0.000 C 
ATOM     14  C   UNL     1       2.501   1.650   0.000  0.00  0.00    +0.000 C 
ATOM     15  C   UNL     1       1.786   2.888   0.000  0.00  0.00    +0.000 C 
ENDBRANCH  12  13
ENDBRANCH  11  12
ENDBRANCH   9  11
ENDBRANCH   8   9
ENDBRANCH   7   8
ENDBRANCH   1   7
BRANCH   4  16
ATOM     16  C   UNL     1      -1.786  -1.650   0.000  0.00  0.00    +0.000 C 
BRANCH  16  17
ATOM     17  O   UNL     1      -1.072  -2.062   0.000  0.00  0.00    +0.000 OA
BRANCH  17  18
ATOM     18  C   UNL     1      -0.357  -1.650   0.000  0.00  0.00    +0.000 C 
BRANCH  18  19
ATOM     19  C   UNL     1       0.357  -2.062   0.000  0.00  0.00    +0.000 C 
BRANCH  19  20
ATOM     20  O   UNL     1       1.072  -1.650   0.000  0.00  0.00    +0.000 OA
BRANCH  20  21
ATOM     21  C   UNL     1       1.786  -2.062   0.000  0.00  0.00    +0.000 C 
ATOM     22  C   UNL     1       2.501  -1.650   0.000  0.00  0.00    +0.000 C 
ATOM     23  C   UNL     1       1.786  -2.888   0.000  0.00  0.00    +0.000 C 
ENDBRANCH  20  21
ENDBRANCH  19  20
ENDBRANCH  18  19
ENDBRANCH  17  18
ENDBRANCH  16  17
ENDBRANCH   4  16
TORSDOF 12
