REMARK  Name = 
REMARK  1 active torsions:
REMARK  status: ('A' for Active; 'I' for Inactive)
REMARK    1  A    between atoms: C_1  and  C_4
REMARK                            x       y       z     vdW  Elec       q    Type
REMARK                         _______ _______ _______ _____ _____    ______ ____
ROOT
ATOM      1  C   UNL     1      -0.003  -0.617   0.000  0.00  0.00    +0.000 A 
ATOM      2  C   UNL     1      -0.722  -0.214   0.000  0.00  0.00    +0.000 A 
ATOM      3  C   UNL     1       0.714  -0.214   0.000  0.00  0.00    +0.000 A 
ATOM      4  C   UNL     1      -0.722   0.617   0.000  0.00  0.00    +0.000 A 
ATOM      5 CL   UNL     1      -1.429  -0.628   0.000  0.00  0.00    +0.000 Cl
ATOM      6  C   UNL     1       0.714   0.617   0.000  0.00  0.00    +0.000 A 
ATOM      7  C   UNL     1      -0.003   1.030   0.000  0.00  0.00    +0.000 A 
ATOM      8  O   UNL     1       1.429   1.030   0.000  0.00  0.00    +0.000 OA
ATOM      9  C   UNL     1      -0.003   1.850   0.000  0.00  0.00    +0.000 C 
ENDROOT
BRANCH   1  10
ATOM     10  C   UNL     1      -0.003  -1.448   0.000  0.00  0.00    +0.000 C 
ATOM     11  C   UNL     1       0.714  -1.850   0.000  0.00  0.00    +0.000 C 
ATOM     12  C   UNL     1      -0.722  -1.850   0.000  0.00  0.00    +0.000 C 
ENDBRANCH   1  10
TORSDOF 1
