REMARK  Name = 
REMARK  6 active torsions:
REMARK  status: ('A' for Active; 'I' for Inactive)
REMARK    1  A    between atoms: C_9  and  O_12
REMARK    2  A    between atoms: O_12  and  C_13
REMARK    3  A    between atoms: C_20  and  O_29
REMARK    4  A    between atoms: C_21  and  O_23
REMARK    5  A    between atoms: O_23  and  C_24
REMARK    6  A    between atoms: C_24  and  C_25
REMARK                            x       y       z     vdW  Elec       q    Type
REMARK                         _______ _______ _______ _____ _____    ______ ____
ROOT
ATOM      1  C   UNL     1       0.000   0.000   0.000  0.00  0.00    +0.000 A 
ATOM      2  C   UNL     1      -0.715  -0.412   0.000  0.00  0.00    +0.000 A 
ATOM      3  C   UNL     1      -0.715  -1.238   0.000  0.00  0.00    +0.000 A 
ATOM      4  N   UNL     1       0.000  -1.650   0.000  0.00  0.00    +0.000 NA
ATOM      5  C   UNL     1       0.715  -1.238   0.000  0.00  0.00    +0.000 A 
ATOM      6  C   UNL     1       0.715  -0.412   0.000  0.00  0.00    +0.000 A 
ATOM      7  C   UNL     1       1.429   0.000   0.000  0.00  0.00    +0.000 A 
ATOM      8  C   UNL     1       2.143  -0.412   0.000  0.00  0.00    +0.000 A 
ATOM      9  C   UNL     1       2.143  -1.238   0.000  0.00  0.00    +0.000 A 
ATOM     10  C   UNL     1       1.429  -1.650   0.000  0.00  0.00    +0.000 A 
ENDROOT
BRANCH   8  11
ATOM     11  O   UNL     1       2.858   0.000   0.000  0.00  0.00    +0.000 OA
ATOM     12  C   UNL     1       3.572  -0.412   0.000  0.00  0.00    +0.000 C 
ENDBRANCH   8  11
BRANCH   1  13
ATOM     13  O   UNL     1       0.000   0.825   0.000  0.00  0.00    +0.000 OA
BRANCH  13  22
ATOM     14  C   UNL     1      -4.238   1.650   0.000  0.00  0.00    +0.000 C 
ATOM     15  C   UNL     1      -3.413   1.650   0.000  0.00  0.00    +0.000 A 
ATOM     16  C   UNL     1      -2.928   0.983   0.000  0.00  0.00    +0.000 A 
ATOM     17  C   UNL     1      -2.143   1.238   0.000  0.00  0.00    +0.000 A 
ATOM     18  C   UNL     1      -2.143   2.062   0.000  0.00  0.00    +0.000 A 
ATOM     19  N   UNL     1      -2.928   2.317   0.000  0.00  0.00    +0.000 NA
ATOM     20  C   UNL     1      -1.429   2.475   0.000  0.00  0.00    +0.000 A 
ATOM     21  C   UNL     1      -0.715   2.062   0.000  0.00  0.00    +0.000 A 
ATOM     22  C   UNL     1      -0.715   1.238   0.000  0.00  0.00    +0.000 A 
ATOM     23  C   UNL     1      -1.429   0.825   0.000  0.00  0.00    +0.000 A 
ATOM     24  F   UNL     1      -1.429   0.000   0.000  0.00  0.00    +0.000 F 
ENDBRANCH  13  22
ENDBRANCH   1  13
BRANCH   9  25
ATOM     25  O   UNL     1       2.858  -1.650   0.000  0.00  0.00    +0.000 OA
BRANCH  25  26
ATOM     26  C   UNL     1       2.858  -2.475   0.000  0.00  0.00    +0.000 C 
BRANCH  26  27
ATOM     27  C   UNL     1       3.572  -2.888   0.000  0.00  0.00    +0.000 C 
ATOM     28  C   UNL     1       4.103  -3.519   0.000  0.00  0.00    +0.000 C 
ATOM     29  C   UNL     1       3.290  -3.663   0.000  0.00  0.00    +0.000 C 
ATOM     30  N   UNL     1       4.103  -2.256   0.000  0.00  0.00    +0.000 NA
ENDBRANCH  26  27
ENDBRANCH  25  26
ENDBRANCH   9  25
TORSDOF 6
