REMARK  Name = 
REMARK  6 active torsions:
REMARK  status: ('A' for Active; 'I' for Inactive)
REMARK    1  A    between atoms: C_7  and  C_8
REMARK    2  A    between atoms: C_8  and  C_13
REMARK    3  A    between atoms: C_9  and  C_14
REMARK    4  A    between atoms: C_16  and  O_22
REMARK    5  A    between atoms: C_17  and  C_18
REMARK    6  A    between atoms: C_18  and  O_22
REMARK                            x       y       z     vdW  Elec       q    Type
REMARK                         _______ _______ _______ _____ _____    ______ ____
ROOT
ATOM      1  C   UNL     1      -0.589   0.044   0.000  0.00  0.00    +0.000 C 
ATOM      2  O   UNL     1      -0.589  -0.781   0.000  0.00  0.00    +0.000 OA
ENDROOT
BRANCH   1   6
ATOM      3  C   UNL     1      -2.348   1.701   0.000  0.00  0.00    +0.000 C 
ATOM      4  C   UNL     1      -1.084   1.701   0.000  0.00  0.00    +0.000 C 
ATOM      5  C   UNL     1      -2.128   0.457   0.000  0.00  0.00    +0.000 C 
ATOM      6  C   UNL     1      -1.303   0.457   0.000  0.00  0.00    +0.000 C 
ATOM      7  C   UNL     1      -1.716   1.171   0.000  0.00  0.00    +0.000 C 
BRANCH   5  10
ATOM      8  C   UNL     1      -4.272   0.044   0.000  0.00  0.00    +0.000 C 
ATOM      9  C   UNL     1      -3.557   1.282   0.000  0.00  0.00    +0.000 C 
ATOM     10  C   UNL     1      -2.843   0.044   0.000  0.00  0.00    +0.000 C 
ATOM     11  C   UNL     1      -3.557   0.457   0.000  0.00  0.00    +0.000 C 
ENDBRANCH   5  10
ENDBRANCH   1   6
BRANCH   1  12
ATOM     12  O   UNL     1       0.126   0.457   0.000  0.00  0.00    +0.000 OA
BRANCH  12  18
ATOM     13  C   UNL     1       1.765   1.187   0.000  0.00  0.00    +0.000 C 
ATOM     14  C   UNL     1       0.926  -0.776   0.000  0.00  0.00    +0.000 C 
ATOM     15  C   UNL     1       1.594   0.380   0.000  0.00  0.00    +0.000 C 
ATOM     16  C   UNL     1       2.146  -0.233   0.000  0.00  0.00    +0.000 C 
ATOM     17  C   UNL     1       1.733  -0.948   0.000  0.00  0.00    +0.000 C 
ATOM     18  C   UNL     1       0.840   0.044   0.000  0.00  0.00    +0.000 C 
ATOM     19  O   UNL     1       2.069  -1.701   0.000  0.00  0.00    +0.000 OA
BRANCH  16  20
ATOM     20  C   UNL     1       2.966  -0.147   0.000  0.00  0.00    +0.000 C 
BRANCH  20  22
ATOM     21  C   UNL     1       4.272  -0.728   0.000  0.00  0.00    +0.000 C 
ATOM     22  C   UNL     1       3.451  -0.815   0.000  0.00  0.00    +0.000 C 
ENDBRANCH  20  22
ENDBRANCH  16  20
ENDBRANCH  12  18
ENDBRANCH   1  12
TORSDOF 6
