REMARK  Name = 
REMARK  0 active torsions:
REMARK  status: ('A' for Active; 'I' for Inactive)
REMARK                            x       y       z     vdW  Elec       q    Type
REMARK                         _______ _______ _______ _____ _____    ______ ____
ROOT
ATOM      1  C   UNL     1      -2.414  -0.208   0.000  0.00  0.00    +0.000 A 
ATOM      2  C   UNL     1      -2.415  -1.034   0.000  0.00  0.00    +0.000 A 
ATOM      3  C   UNL     1      -1.701  -1.447   0.000  0.00  0.00    +0.000 A 
ATOM      4  C   UNL     1      -1.703   0.204   0.000  0.00  0.00    +0.000 A 
ATOM      5  C   UNL     1      -0.989  -0.204   0.000  0.00  0.00    +0.000 A 
ATOM      6  C   UNL     1      -0.988  -1.030   0.000  0.00  0.00    +0.000 A 
ATOM      7  C   UNL     1      -0.273  -1.441   0.000  0.00  0.00    +0.000 A 
ATOM      8  C   UNL     1       0.441  -1.026   0.000  0.00  0.00    +0.000 A 
ATOM      9  C   UNL     1      -0.279   0.209   0.000  0.00  0.00    +0.000 A 
ATOM     10  C   UNL     1       0.437  -0.201   0.000  0.00  0.00    +0.000 A 
ATOM     11  C   UNL     1       0.429   1.447   0.000  0.00  0.00    +0.000 C 
ATOM     12  C   UNL     1      -0.286   1.032   0.000  0.00  0.00    +0.000 C 
ATOM     13  C   UNL     1       1.146   1.037   0.000  0.00  0.00    +0.000 A 
ATOM     14  C   UNL     1       1.146   0.211   0.000  0.00  0.00    +0.000 A 
ATOM     15  O   UNL     1       1.930  -0.043   0.000  0.00  0.00    +0.000 OA
ATOM     16  C   UNL     1       2.415   0.624   0.000  0.00  0.00    +0.000 A 
ATOM     17  C   UNL     1       1.930   1.292   0.000  0.00  0.00    +0.000 A 
ATOM     18  O   UNL     1       0.427   2.271   0.000  0.00  0.00    +0.000 OA
ATOM     19  O   UNL     1      -1.001   1.441   0.000  0.00  0.00    +0.000 OA
ATOM     20  C   UNL     1      -1.699  -2.271   0.000  0.00  0.00    +0.000 C 
ATOM     21  C   UNL     1       2.185   2.075   0.000  0.00  0.00    +0.000 C 
ENDROOT
TORSDOF 0
