REMARK  Name = 
REMARK  10 active torsions:
REMARK  status: ('A' for Active; 'I' for Inactive)
REMARK    1  A    between atoms: C_2  and  N_3
REMARK    2  A    between atoms: N_3  and  C_4
REMARK    3  A    between atoms: N_3  and  C_6
REMARK    4  A    between atoms: C_6  and  C_7
REMARK    5  A    between atoms: C_7  and  C_8
REMARK    6  A    between atoms: C_13  and  O_20
REMARK    7  A    between atoms: O_20  and  C_21
REMARK    8  A    between atoms: C_21  and  C_22
REMARK    9  A    between atoms: C_22  and  O_24
REMARK   10  A    between atoms: O_24  and  C_25
REMARK                            x       y       z     vdW  Elec       q    Type
REMARK                         _______ _______ _______ _____ _____    ______ ____
ROOT
ATOM      1  C   UNL     1      -2.858   3.300   0.000  0.00  0.00    +0.000 A 
ATOM      2  C   UNL     1      -2.143   3.712   0.000  0.00  0.00    +0.000 A 
ATOM      3  C   UNL     1      -1.429   3.300   0.000  0.00  0.00    +0.000 A 
ATOM      4  C   UNL     1      -0.715   3.712   0.000  0.00  0.00    +0.000 A 
ATOM      5  C   UNL     1       0.000   3.300   0.000  0.00  0.00    +0.000 A 
ATOM      6  C   UNL     1       0.000   2.475   0.000  0.00  0.00    +0.000 A 
ATOM      7  C   UNL     1      -0.715   2.062   0.000  0.00  0.00    +0.000 A 
ATOM      8  C   UNL     1      -1.429   2.475   0.000  0.00  0.00    +0.000 A 
ATOM      9  O   UNL     1      -2.143   2.062   0.000  0.00  0.00    +0.000 OA
ATOM     10  C   UNL     1      -2.858   2.475   0.000  0.00  0.00    +0.000 A 
ATOM     11  O   UNL     1      -3.572   2.062   0.000  0.00  0.00    +0.000 OA
ATOM     12 CL   UNL     1      -0.715   1.238   0.000  0.00  0.00    +0.000 Cl
ATOM     13  C   UNL     1      -2.143   4.537   0.000  0.00  0.00    +0.000 C 
ENDROOT
BRANCH   1  14
ATOM     14  C   UNL     1      -3.572   3.712   0.000  0.00  0.00    +0.000 C 
BRANCH  14  15
ATOM     15  C   UNL     1      -4.287   3.300   0.000  0.00  0.00    +0.000 C 
BRANCH  15  16
ATOM     16  N   UNL     1      -5.001   3.712   0.000  0.00  0.00    +0.000 NA
BRANCH  16  18
ATOM     17  C   UNL     1      -6.430   3.712   0.000  0.00  0.00    +0.000 C 
ATOM     18  C   UNL     1      -5.716   3.300   0.000  0.00  0.00    +0.000 C 
ENDBRANCH  16  18
BRANCH  16  19
ATOM     19  C   UNL     1      -5.001   4.537   0.000  0.00  0.00    +0.000 C 
ATOM     20  C   UNL     1      -4.287   4.950   0.000  0.00  0.00    +0.000 C 
ENDBRANCH  16  19
ENDBRANCH  15  16
ENDBRANCH  14  15
ENDBRANCH   1  14
BRANCH   6  21
ATOM     21  O   UNL     1       0.715   2.062   0.000  0.00  0.00    +0.000 OA
BRANCH  21  22
ATOM     22  C   UNL     1       1.429   2.475   0.000  0.00  0.00    +0.000 C 
BRANCH  22  23
ATOM     23  C   UNL     1       2.143   2.062   0.000  0.00  0.00    +0.000 C 
ATOM     24  O   UNL     1       2.143   1.238   0.000  0.00  0.00    +0.000 OA
BRANCH  23  25
ATOM     25  O   UNL     1       2.858   2.475   0.000  0.00  0.00    +0.000 OA
BRANCH  25  26
ATOM     26  C   UNL     1       3.572   2.062   0.000  0.00  0.00    +0.000 C 
ATOM     27  C   UNL     1       4.287   2.475   0.000  0.00  0.00    +0.000 C 
ENDBRANCH  25  26
ENDBRANCH  23  25
ENDBRANCH  22  23
ENDBRANCH  21  22
ENDBRANCH   6  21
TORSDOF 10
