REMARK  Name = 
REMARK  5 active torsions:
REMARK  status: ('A' for Active; 'I' for Inactive)
REMARK    1  A    between atoms: C_2  and  C_4
REMARK    2  A    between atoms: C_4  and  C_19
REMARK    3  A    between atoms: C_6  and  C_9
REMARK    4  A    between atoms: N_21  and  C_22
REMARK    5  A    between atoms: C_27  and  C_28
REMARK                            x       y       z     vdW  Elec       q    Type
REMARK                         _______ _______ _______ _____ _____    ______ ____
ROOT
ATOM      1  C   UNL     1       1.841   2.095   0.000  0.00  0.00    +0.000 C 
ATOM      2  C   UNL     1       2.096   1.310   0.000  0.00  0.00    +0.000 C 
ATOM      3  C   UNL     1       1.429   0.825   0.000  0.00  0.00    +0.000 C 
ATOM      4  N   UNL     1       0.761   1.310   0.000  0.00  0.00    +0.000 NA
ATOM      5  O   UNL     1       1.016   2.095   0.000  0.00  0.00    +0.000 OA
ENDROOT
BRANCH   3   6
ATOM      6  C   UNL     1       1.429   0.000   0.000  0.00  0.00    +0.000 A 
ATOM      7  C   UNL     1       2.143  -0.412   0.000  0.00  0.00    +0.000 A 
ATOM      8  C   UNL     1       2.858   0.000   0.000  0.00  0.00    +0.000 A 
ATOM      9  C   UNL     1       3.572  -0.412   0.000  0.00  0.00    +0.000 A 
ATOM     10  C   UNL     1       3.572  -1.238   0.000  0.00  0.00    +0.000 A 
ATOM     11  C   UNL     1       2.858  -1.650   0.000  0.00  0.00    +0.000 A 
ATOM     12  C   UNL     1       2.143  -1.238   0.000  0.00  0.00    +0.000 A 
ATOM     13  C   UNL     1       1.429  -1.650   0.000  0.00  0.00    +0.000 A 
ATOM     14  C   UNL     1       0.715  -1.238   0.000  0.00  0.00    +0.000 A 
ATOM     15  N   UNL     1       0.715  -0.412   0.000  0.00  0.00    +0.000 NA
ENDBRANCH   3   6
BRANCH   1  17
ATOM     16  C   UNL     1       1.002   3.251   0.000  0.00  0.00    +0.000 C 
ATOM     17  C   UNL     1       1.755   2.915   0.000  0.00  0.00    +0.000 C 
ATOM     18  C   UNL     1       2.423   3.400   0.000  0.00  0.00    +0.000 C 
ENDBRANCH   1  17
BRANCH   1  19
ATOM     19  C   UNL     1       2.648   2.266   0.000  0.00  0.00    +0.000 C 
ATOM     20  O   UNL     1       3.200   1.653   0.000  0.00  0.00    +0.000 OA
ATOM     21  N   UNL     1       2.903   3.051   0.000  0.00  0.00    +0.000 NA
BRANCH  21  22
ATOM     22  C   UNL     1       3.710   3.222   0.000  0.00  0.00    +0.000 C 
ATOM     23  C   UNL     1       4.046   3.976   0.000  0.00  0.00    +0.000 C 
ATOM     24  C   UNL     1       4.866   3.890   0.000  0.00  0.00    +0.000 C 
ATOM     25  O   UNL     1       5.418   4.503   0.000  0.00  0.00    +0.000 OA
ATOM     26  O   UNL     1       5.038   3.083   0.000  0.00  0.00    +0.000 OA
ATOM     27  C   UNL     1       4.323   2.670   0.000  0.00  0.00    +0.000 C 
ATOM     28  O   UNL     1       3.845   1.998   0.000  0.00  0.00    +0.000 OA
BRANCH  27  29
ATOM     29  C   UNL     1       4.651   1.913   0.000  0.00  0.00    +0.000 C 
ATOM     30  F   UNL     1       4.159   1.251   0.000  0.00  0.00    +0.000 F 
ENDBRANCH  27  29
ENDBRANCH  21  22
ENDBRANCH   1  19
TORSDOF 5
