REMARK  Name = 
REMARK  6 active torsions:
REMARK  status: ('A' for Active; 'I' for Inactive)
REMARK    1  A    between atoms: C_5  and  C_24
REMARK    2  A    between atoms: C_7  and  N_8
REMARK    3  A    between atoms: C_11  and  C_12
REMARK    4  A    between atoms: C_12  and  C_14
REMARK    5  A    between atoms: C_18  and  C_20
REMARK    6  A    between atoms: N_26  and  C_27
REMARK                            x       y       z     vdW  Elec       q    Type
REMARK                         _______ _______ _______ _____ _____    ______ ____
ROOT
ATOM      1  N   UNL     1      -6.978  -1.023   0.000  0.00  0.00    +0.000 N 
ATOM      2  N   UNL     1      -7.732  -1.358   0.000  0.00  0.00    +0.000 NA
ATOM      3  C   UNL     1      -8.284  -0.745   0.000  0.00  0.00    +0.000 A 
ATOM      4  C   UNL     1      -7.872  -0.031   0.000  0.00  0.00    +0.000 A 
ATOM      5  C   UNL     1      -7.065  -0.202   0.000  0.00  0.00    +0.000 A 
ATOM      6  N   UNL     1      -6.452   0.350   0.000  0.00  0.00    +0.000 NA
ENDROOT
BRANCH   1  13
ATOM      7  C   UNL     1      -5.550  -0.198   0.000  0.00  0.00    +0.000 C 
ATOM      8  C   UNL     1      -5.550  -1.023   0.000  0.00  0.00    +0.000 A 
ATOM      9  C   UNL     1      -4.835  -1.435   0.000  0.00  0.00    +0.000 A 
ATOM     10  C   UNL     1      -4.835  -2.260   0.000  0.00  0.00    +0.000 A 
ATOM     11  C   UNL     1      -5.550  -2.673   0.000  0.00  0.00    +0.000 A 
ATOM     12  C   UNL     1      -6.264  -2.260   0.000  0.00  0.00    +0.000 A 
ATOM     13  C   UNL     1      -6.264  -1.435   0.000  0.00  0.00    +0.000 A 
BRANCH  11  14
ATOM     14  C   UNL     1      -5.550  -3.498   0.000  0.00  0.00    +0.000 C 
ATOM     15  O   UNL     1      -6.264  -3.910   0.000  0.00  0.00    +0.000 OA
ATOM     16  N   UNL     1      -4.835  -3.910   0.000  0.00  0.00    +0.000 NA
BRANCH  16  17
ATOM     17  C   UNL     1      -4.835  -4.735   0.000  0.00  0.00    +0.000 C 
ATOM     18  C   UNL     1      -4.423  -5.450   0.000  0.00  0.00    +0.000 C 
ATOM     19  C   UNL     1      -5.247  -5.450   0.000  0.00  0.00    +0.000 C 
ENDBRANCH  16  17
ENDBRANCH  11  14
ENDBRANCH   1  13
BRANCH   4  20
ATOM     20  C   UNL     1      -8.207   0.723   0.000  0.00  0.00    +0.000 C 
ATOM     21  O   UNL     1      -7.722   1.390   0.000  0.00  0.00    +0.000 OA
BRANCH  20  22
ATOM     22  C   UNL     1      -9.028   0.809   0.000  0.00  0.00    +0.000 A 
ATOM     23  C   UNL     1      -9.513   0.142   0.000  0.00  0.00    +0.000 A 
ATOM     24  C   UNL     1     -10.333   0.228   0.000  0.00  0.00    +0.000 A 
ATOM     25  C   UNL     1     -10.669   0.982   0.000  0.00  0.00    +0.000 A 
ATOM     26  C   UNL     1     -10.184   1.649   0.000  0.00  0.00    +0.000 A 
ATOM     27  C   UNL     1      -9.363   1.563   0.000  0.00  0.00    +0.000 A 
BRANCH  26  28
ATOM     28  C   UNL     1     -10.519   2.403   0.000  0.00  0.00    +0.000 C 
ATOM     29  N   UNL     1     -10.855   3.156   0.000  0.00  0.00    +0.000 NA
ENDBRANCH  26  28
ENDBRANCH  20  22
ENDBRANCH   4  20
TORSDOF 6
