REMARK  Name = 
REMARK  5 active torsions:
REMARK  status: ('A' for Active; 'I' for Inactive)
REMARK    1  A    between atoms: C_2  and  C_4
REMARK    2  A    between atoms: C_4  and  C_5
REMARK    3  A    between atoms: C_8  and  O_9
REMARK    4  A    between atoms: O_9  and  C_10
REMARK    5  A    between atoms: C_15  and  C_17
REMARK                            x       y       z     vdW  Elec       q    Type
REMARK                         _______ _______ _______ _____ _____    ______ ____
ROOT
ATOM      1  C   UNL     1      -1.072   1.031   0.000  0.00  0.00    +0.000 A 
ATOM      2  C   UNL     1      -0.357   0.619   0.000  0.00  0.00    +0.000 A 
ATOM      3  C   UNL     1      -0.357  -0.206   0.000  0.00  0.00    +0.000 A 
ATOM      4  C   UNL     1      -1.072  -0.619   0.000  0.00  0.00    +0.000 A 
ATOM      5  C   UNL     1      -1.786  -0.206   0.000  0.00  0.00    +0.000 A 
ATOM      6  C   UNL     1      -1.786   0.619   0.000  0.00  0.00    +0.000 A 
ATOM      7 CL   UNL     1      -2.501  -0.619   0.000  0.00  0.00    +0.000 Cl
ATOM      8 CL   UNL     1       0.357  -0.619   0.000  0.00  0.00    +0.000 Cl
ENDROOT
BRANCH   1   9
ATOM      9  C   UNL     1      -1.072   1.856   0.000  0.00  0.00    +0.000 C 
BRANCH   9  11
ATOM     10  O   UNL     1      -1.786   3.094   0.000  0.00  0.00    +0.000 OA
ATOM     11  C   UNL     1      -1.786   2.269   0.000  0.00  0.00    +0.000 C 
ATOM     12  O   UNL     1      -2.501   1.856   0.000  0.00  0.00    +0.000 OA
ENDBRANCH   9  11
ENDBRANCH   1   9
BRANCH   4  13
ATOM     13  O   UNL     1      -1.072  -1.444   0.000  0.00  0.00    +0.000 OA
BRANCH  13  14
ATOM     14  C   UNL     1      -0.357  -1.856   0.000  0.00  0.00    +0.000 A 
ATOM     15  C   UNL     1      -0.357  -2.681   0.000  0.00  0.00    +0.000 A 
ATOM     16  C   UNL     1       0.357  -3.094   0.000  0.00  0.00    +0.000 A 
ATOM     17  C   UNL     1       1.072  -2.681   0.000  0.00  0.00    +0.000 A 
ATOM     18  O   UNL     1       1.786  -3.094   0.000  0.00  0.00    +0.000 OA
ATOM     19  C   UNL     1       1.072  -1.856   0.000  0.00  0.00    +0.000 A 
ATOM     20  C   UNL     1       0.357  -1.444   0.000  0.00  0.00    +0.000 A 
BRANCH  19  21
ATOM     21  C   UNL     1       1.786  -1.444   0.000  0.00  0.00    +0.000 C 
ATOM     22  C   UNL     1       1.786  -0.619   0.000  0.00  0.00    +0.000 C 
ATOM     23  C   UNL     1       2.501  -1.856   0.000  0.00  0.00    +0.000 C 
ENDBRANCH  19  21
ENDBRANCH  13  14
ENDBRANCH   4  13
TORSDOF 5
