REMARK  Name = 
REMARK  2 active torsions:
REMARK  status: ('A' for Active; 'I' for Inactive)
REMARK    1  A    between atoms: N_1  and  C_4
REMARK    2  A    between atoms: C_4  and  C_8
REMARK                            x       y       z     vdW  Elec       q    Type
REMARK                         _______ _______ _______ _____ _____    ______ ____
ROOT
ATOM      1  N   UNL     1       0.011  -0.396   0.000  0.00  0.00    +0.000 N 
ATOM      2  C   UNL     1      -0.656  -0.881   0.000  0.00  0.00    +0.000 C 
ATOM      3  C   UNL     1       0.679  -0.881   0.000  0.00  0.00    +0.000 C 
ATOM      4  C   UNL     1      -0.401  -1.666   0.000  0.00  0.00    +0.000 C 
ATOM      5  O   UNL     1      -1.440  -0.626   0.000  0.00  0.00    +0.000 OA
ATOM      6  C   UNL     1       0.424  -1.666   0.000  0.00  0.00    +0.000 C 
ENDROOT
BRANCH   1   7
ATOM      7  C   UNL     1       0.011   0.428   0.000  0.00  0.00    +0.000 C 
BRANCH   7   8
ATOM      8  C   UNL     1       0.726   0.841   0.000  0.00  0.00    +0.000 C 
ATOM      9  O   UNL     1       0.726   1.666   0.000  0.00  0.00    +0.000 OA
ATOM     10  N   UNL     1       1.440   0.428   0.000  0.00  0.00    +0.000 NA
ENDBRANCH   7   8
ENDBRANCH   1   7
TORSDOF 2
