REMARK  Name = 
REMARK  7 active torsions:
REMARK  status: ('A' for Active; 'I' for Inactive)
REMARK    1  A    between atoms: O_2  and  C_3
REMARK    2  A    between atoms: C_4  and  O_5
REMARK    3  A    between atoms: O_5  and  C_6
REMARK    4  A    between atoms: C_6  and  C_7
REMARK    5  A    between atoms: C_8  and  O_9
REMARK    6  A    between atoms: C_18  and  N_19
REMARK    7  A    between atoms: C_26  and  C_27
REMARK                            x       y       z     vdW  Elec       q    Type
REMARK                         _______ _______ _______ _____ _____    ______ ____
ROOT
ATOM      1  C   UNL     1       5.496   3.173   0.000  0.00  0.00    +0.000 A 
ATOM      2  C   UNL     1       5.496   2.348   0.000  0.00  0.00    +0.000 A 
ATOM      3  C   UNL     1       4.781   1.935   0.000  0.00  0.00    +0.000 A 
ATOM      4  C   UNL     1       4.067   2.348   0.000  0.00  0.00    +0.000 A 
ATOM      5  C   UNL     1       4.067   3.173   0.000  0.00  0.00    +0.000 A 
ATOM      6  F   UNL     1       3.352   3.585   0.000  0.00  0.00    +0.000 F 
ATOM      7  C   UNL     1       4.781   3.585   0.000  0.00  0.00    +0.000 A 
ENDROOT
BRANCH   4   8
ATOM      8  N   UNL     1       3.352   1.935   0.000  0.00  0.00    +0.000 N 
ATOM      9  C   UNL     1       3.352   1.110   0.000  0.00  0.00    +0.000 A 
ATOM     10  O   UNL     1       4.067   0.698   0.000  0.00  0.00    +0.000 OA
ATOM     11  N   UNL     1       2.638   0.698   0.000  0.00  0.00    +0.000 NA
ATOM     12  C   UNL     1       1.923   1.110   0.000  0.00  0.00    +0.000 A 
ATOM     13  C   UNL     1       1.139   0.856   0.000  0.00  0.00    +0.000 A 
ATOM     14  S   UNL     1       0.654   1.523   0.000  0.00  0.00    +0.000 S 
ATOM     15  C   UNL     1       1.139   2.190   0.000  0.00  0.00    +0.000 A 
ATOM     16  C   UNL     1       1.923   1.935   0.000  0.00  0.00    +0.000 A 
ATOM     17  C   UNL     1       2.638   2.348   0.000  0.00  0.00    +0.000 A 
ATOM     18  O   UNL     1       2.638   3.173   0.000  0.00  0.00    +0.000 OA
BRANCH  15  19
ATOM     19  C   UNL     1       0.884   2.975   0.000  0.00  0.00    +0.000 C 
ATOM     20  O   UNL     1       0.077   3.147   0.000  0.00  0.00    +0.000 OA
ATOM     21  O   UNL     1       1.436   3.588   0.000  0.00  0.00    +0.000 OA
ENDBRANCH  15  19
ENDBRANCH   4   8
BRANCH   1  23
ATOM     22  C   UNL     1       6.210   4.410   0.000  0.00  0.00    +0.000 C 
ATOM     23  O   UNL     1       6.210   3.585   0.000  0.00  0.00    +0.000 OA
ENDBRANCH   1  23
BRANCH   2  24
ATOM     24  O   UNL     1       6.210   1.935   0.000  0.00  0.00    +0.000 OA
BRANCH  24  25
ATOM     25  C   UNL     1       6.925   2.348   0.000  0.00  0.00    +0.000 C 
BRANCH  25  26
ATOM     26  C   UNL     1       7.639   1.935   0.000  0.00  0.00    +0.000 A 
ATOM     27  C   UNL     1       8.354   2.348   0.000  0.00  0.00    +0.000 A 
ATOM     28  C   UNL     1       9.068   1.935   0.000  0.00  0.00    +0.000 A 
ATOM     29  C   UNL     1       9.068   1.110   0.000  0.00  0.00    +0.000 A 
ATOM     30  C   UNL     1       8.354   0.698   0.000  0.00  0.00    +0.000 A 
ATOM     31  F   UNL     1       8.354  -0.127   0.000  0.00  0.00    +0.000 F 
ATOM     32  C   UNL     1       7.639   1.110   0.000  0.00  0.00    +0.000 A 
ATOM     33  F   UNL     1       6.925   0.698   0.000  0.00  0.00    +0.000 F 
BRANCH  27  34
ATOM     34  O   UNL     1       8.354   3.173   0.000  0.00  0.00    +0.000 OA
ATOM     35  C   UNL     1       9.068   3.585   0.000  0.00  0.00    +0.000 C 
ENDBRANCH  27  34
ENDBRANCH  25  26
ENDBRANCH  24  25
ENDBRANCH   2  24
TORSDOF 7
