REMARK  Name = 
REMARK  7 active torsions:
REMARK  status: ('A' for Active; 'I' for Inactive)
REMARK    1  A    between atoms: N_2  and  C_5
REMARK    2  A    between atoms: C_5  and  C_6
REMARK    3  A    between atoms: C_6  and  O_7
REMARK    4  A    between atoms: O_7  and  C_8
REMARK    5  A    between atoms: C_8  and  C_9
REMARK    6  A    between atoms: C_8  and  C_16
REMARK    7  A    between atoms: C_9  and  C_10
REMARK                            x       y       z     vdW  Elec       q    Type
REMARK                         _______ _______ _______ _____ _____    ______ ____
ROOT
ATOM      1  C   UNL     1      -2.143   1.238   0.000  0.00  0.00    +0.000 C 
ENDROOT
BRANCH   1   2
ATOM      2  C   UNL     1      -2.858   0.825   0.000  0.00  0.00    +0.000 A 
ATOM      3  C   UNL     1      -2.858   0.000   0.000  0.00  0.00    +0.000 A 
ATOM      4  C   UNL     1      -3.572  -0.412   0.000  0.00  0.00    +0.000 A 
ATOM      5  C   UNL     1      -4.287   0.000   0.000  0.00  0.00    +0.000 A 
ATOM      6  C   UNL     1      -4.287   0.825   0.000  0.00  0.00    +0.000 A 
ATOM      7  C   UNL     1      -3.572   1.238   0.000  0.00  0.00    +0.000 A 
ENDBRANCH   1   2
BRANCH   1   8
ATOM      8  O   UNL     1      -2.143   2.062   0.000  0.00  0.00    +0.000 OA
BRANCH   8   9
ATOM      9  C   UNL     1      -2.858   2.475   0.000  0.00  0.00    +0.000 C 
BRANCH   9  10
ATOM     10  C   UNL     1      -2.858   3.300   0.000  0.00  0.00    +0.000 C 
BRANCH  10  12
ATOM     11  C   UNL     1      -4.287   4.125   0.000  0.00  0.00    +0.000 C 
ATOM     12  N   UNL     1      -3.572   3.712   0.000  0.00  0.00    +0.000 N 
ATOM     13  C   UNL     1      -3.985   2.998   0.000  0.00  0.00    +0.000 C 
ATOM     14  C   UNL     1      -3.160   4.427   0.000  0.00  0.00    +0.000 C 
ENDBRANCH  10  12
ENDBRANCH   9  10
ENDBRANCH   8   9
ENDBRANCH   1   8
BRANCH   1  15
ATOM     15  C   UNL     1      -1.429   0.825   0.000  0.00  0.00    +0.000 C 
BRANCH  15  16
ATOM     16  C   UNL     1      -1.429   0.000   0.000  0.00  0.00    +0.000 A 
ATOM     17  C   UNL     1      -0.715  -0.412   0.000  0.00  0.00    +0.000 A 
ATOM     18  C   UNL     1      -0.715  -1.238   0.000  0.00  0.00    +0.000 A 
ATOM     19  C   UNL     1      -1.429  -1.650   0.000  0.00  0.00    +0.000 A 
ATOM     20  C   UNL     1      -2.143  -1.238   0.000  0.00  0.00    +0.000 A 
ATOM     21  C   UNL     1      -2.143  -0.412   0.000  0.00  0.00    +0.000 A 
ENDBRANCH  15  16
ENDBRANCH   1  15
TORSDOF 7
