REMARK  Name = 
REMARK  3 active torsions:
REMARK  status: ('A' for Active; 'I' for Inactive)
REMARK    1  A    between atoms: N_10  and  C_12
REMARK    2  A    between atoms: C_12  and  C_13
REMARK    3  A    between atoms: C_13  and  P_14
REMARK                            x       y       z     vdW  Elec       q    Type
REMARK                         _______ _______ _______ _____ _____    ______ ____
ROOT
ATOM      1  C   UNL     1       3.359   1.650   0.000  0.00  0.00    +0.000 C 
ATOM      2  C   UNL     1       3.001   0.906   0.000  0.00  0.00    +0.000 C 
ATOM      3  N   UNL     1       2.196   0.723   0.000  0.00  0.00    +0.000 NA
ATOM      4  C   UNL     1       1.552   1.237   0.000  0.00  0.00    +0.000 C 
ATOM      5  C   UNL     1       1.552   2.062   0.000  0.00  0.00    +0.000 C 
ATOM      6  C   UNL     1       0.727   2.062   0.000  0.00  0.00    +0.000 C 
ATOM      7  O   UNL     1       0.143   2.646   0.000  0.00  0.00    +0.000 OA
ATOM      8  C   UNL     1       0.727   1.237   0.000  0.00  0.00    +0.000 C 
ATOM      9  O   UNL     1       0.143   0.654   0.000  0.00  0.00    +0.000 OA
ATOM     10  N   UNL     1       2.196   2.577   0.000  0.00  0.00    +0.000 N 
ATOM     11  C   UNL     1       3.001   2.393   0.000  0.00  0.00    +0.000 C 
ENDROOT
BRANCH  10  12
ATOM     12  C   UNL     1       2.013   3.381   0.000  0.00  0.00    +0.000 C 
BRANCH  12  13
ATOM     13  C   UNL     1       2.618   3.942   0.000  0.00  0.00    +0.000 C 
BRANCH  13  14
ATOM     14  P   UNL     1       2.434   4.746   0.000  0.00  0.00    +0.000 P 
ATOM     15  O   UNL     1       2.251   5.551   0.000  0.00  0.00    +0.000 OA
ATOM     16  O   UNL     1       3.238   4.930   0.000  0.00  0.00    +0.000 OA
ATOM     17  O   UNL     1       1.630   4.563   0.000  0.00  0.00    +0.000 OA
ENDBRANCH  13  14
ENDBRANCH  12  13
ENDBRANCH  10  12
TORSDOF 3
