REMARK  Name = 
REMARK  13 active torsions:
REMARK  status: ('A' for Active; 'I' for Inactive)
REMARK    1  A    between atoms: O_4  and  C_23
REMARK    2  A    between atoms: O_4  and  C_30
REMARK    3  A    between atoms: N_6  and  C_9
REMARK    4  A    between atoms: N_7  and  C_11
REMARK    5  A    between atoms: C_9  and  C_10
REMARK    6  A    between atoms: C_9  and  C_15
REMARK    7  A    between atoms: C_10  and  C_12
REMARK    8  A    between atoms: C_11  and  C_13
REMARK    9  A    between atoms: C_11  and  C_14
REMARK   10  A    between atoms: C_12  and  C_16
REMARK   11  A    between atoms: C_13  and  C_17
REMARK   12  A    between atoms: C_15  and  C_18
REMARK   13  A    between atoms: C_30  and  C_31
REMARK                            x       y       z     vdW  Elec       q    Type
REMARK                         _______ _______ _______ _____ _____    ______ ____
ROOT
ATOM      1  C   UNL     1      -1.429  -1.031   0.000  0.00  0.00    +0.000 C 
ENDROOT
BRANCH   1   3
ATOM      2  O   UNL     1       0.000  -0.206   0.000  0.00  0.00    +0.000 OA
ATOM      3  N   UNL     1      -0.715  -1.444   0.000  0.00  0.00    +0.000 N 
ATOM      4  C   UNL     1       0.000  -1.031   0.000  0.00  0.00    +0.000 C 
ATOM      5  H   UNL     1      -0.715  -1.955   0.000  0.00  0.00    +0.000 HD
BRANCH   4   6
ATOM      6  O   UNL     1       0.715  -1.444   0.000  0.00  0.00    +0.000 OA
BRANCH   6   7
ATOM      7  C   UNL     1       1.429  -1.031   0.000  0.00  0.00    +0.000 C 
BRANCH   7   9
ATOM      8  N   UNL     1       3.572  -1.444   0.000  0.00  0.00    +0.000 NA
ATOM      9  C   UNL     1       2.143  -1.444   0.000  0.00  0.00    +0.000 A 
ATOM     10  C   UNL     1       2.143  -2.269   0.000  0.00  0.00    +0.000 A 
ATOM     11  C   UNL     1       2.858  -1.031   0.000  0.00  0.00    +0.000 A 
ATOM     12  C   UNL     1       2.858  -2.681   0.000  0.00  0.00    +0.000 A 
ATOM     13  C   UNL     1       3.572  -2.269   0.000  0.00  0.00    +0.000 A 
ENDBRANCH   7   9
ENDBRANCH   6   7
ENDBRANCH   4   6
ENDBRANCH   1   3
BRANCH   1  16
ATOM     14  O   UNL     1      -0.715   0.206   0.000  0.00  0.00    +0.000 OA
ATOM     15  N   UNL     1      -2.143   0.206   0.000  0.00  0.00    +0.000 N 
ATOM     16  C   UNL     1      -1.429  -0.206   0.000  0.00  0.00    +0.000 C 
ATOM     17  H   UNL     1      -2.586  -0.050   0.000  0.00  0.00    +0.000 HD
BRANCH  15  18
ATOM     18  C   UNL     1      -2.143   1.031   0.000  0.00  0.00    +0.000 C 
BRANCH  18  20
ATOM     19  O   UNL     1      -3.572   1.031   0.000  0.00  0.00    +0.000 OA
ATOM     20  C   UNL     1      -2.858   1.444   0.000  0.00  0.00    +0.000 C 
BRANCH  20  22
ATOM     21  O   UNL     1      -3.572   2.681   0.000  0.00  0.00    +0.000 OA
ATOM     22  C   UNL     1      -2.858   2.269   0.000  0.00  0.00    +0.000 C 
ENDBRANCH  20  22
ENDBRANCH  18  20
BRANCH  18  23
ATOM     23  C   UNL     1      -1.429   1.444   0.000  0.00  0.00    +0.000 C 
BRANCH  23  24
ATOM     24  C   UNL     1      -1.429   2.269   0.000  0.00  0.00    +0.000 C 
BRANCH  24  25
ATOM     25  C   UNL     1      -0.715   2.681   0.000  0.00  0.00    +0.000 A 
ATOM     26  C   UNL     1       0.000   2.269   0.000  0.00  0.00    +0.000 A 
ATOM     27  C   UNL     1      -0.715   3.506   0.000  0.00  0.00    +0.000 A 
ATOM     28  C   UNL     1       0.715   2.681   0.000  0.00  0.00    +0.000 A 
ATOM     29  C   UNL     1       0.000   3.919   0.000  0.00  0.00    +0.000 A 
ATOM     30  C   UNL     1       0.715   3.506   0.000  0.00  0.00    +0.000 A 
ENDBRANCH  24  25
ENDBRANCH  23  24
ENDBRANCH  18  23
ENDBRANCH  15  18
ENDBRANCH   1  16
BRANCH   1  31
ATOM     31  C   UNL     1      -2.143  -1.444   0.000  0.00  0.00    +0.000 C 
BRANCH  31  32
ATOM     32  C   UNL     1      -2.143  -2.269   0.000  0.00  0.00    +0.000 A 
ATOM     33  C   UNL     1      -1.429  -2.681   0.000  0.00  0.00    +0.000 A 
ATOM     34  C   UNL     1      -2.858  -2.681   0.000  0.00  0.00    +0.000 A 
ATOM     35  C   UNL     1      -1.429  -3.506   0.000  0.00  0.00    +0.000 A 
ATOM     36  C   UNL     1      -2.858  -3.506   0.000  0.00  0.00    +0.000 A 
ATOM     37  C   UNL     1      -2.143  -3.919   0.000  0.00  0.00    +0.000 A 
ENDBRANCH  31  32
ENDBRANCH   1  31
TORSDOF 13
