REMARK  Name = 
REMARK  3 active torsions:
REMARK  status: ('A' for Active; 'I' for Inactive)
REMARK    1  A    between atoms: C_22  and  N_25
REMARK    2  A    between atoms: C_33  and  O_34
REMARK    3  A    between atoms: C_36  and  C_38
REMARK                            x       y       z     vdW  Elec       q    Type
REMARK                         _______ _______ _______ _____ _____    ______ ____
ROOT
ATOM      1  C   UNL     1      -0.412   2.557   0.000  0.00  0.00    +0.000 A 
ATOM      2  C   UNL     1       0.412   2.557   0.000  0.00  0.00    +0.000 A 
ATOM      3  C   UNL     1       0.412   1.128   0.000  0.00  0.00    +0.000 A 
ATOM      4  C   UNL     1       0.825   1.843   0.000  0.00  0.00    +0.000 A 
ATOM      5  C   UNL     1      -0.412   1.128   0.000  0.00  0.00    +0.000 A 
ATOM      6  C   UNL     1      -0.825   1.843   0.000  0.00  0.00    +0.000 A 
ATOM      7  C   UNL     1       1.718   0.851   0.000  0.00  0.00    +0.000 A 
ATOM      8  C   UNL     1       1.632   1.671   0.000  0.00  0.00    +0.000 A 
ATOM      9  C   UNL     1       3.053   1.821   0.000  0.00  0.00    +0.000 A 
ATOM     10  C   UNL     1       2.299   2.156   0.000  0.00  0.00    +0.000 A 
ATOM     11  C   UNL     1       2.472   0.515   0.000  0.00  0.00    +0.000 A 
ATOM     12  C   UNL     1       3.139   1.000   0.000  0.00  0.00    +0.000 A 
ATOM     13  C   UNL     1      -1.718   0.851   0.000  0.00  0.00    +0.000 A 
ATOM     14  C   UNL     1      -1.632   1.671   0.000  0.00  0.00    +0.000 A 
ATOM     15  C   UNL     1      -2.299   2.156   0.000  0.00  0.00    +0.000 A 
ATOM     16  C   UNL     1      -3.053   1.821   0.000  0.00  0.00    +0.000 A 
ATOM     17  C   UNL     1      -3.139   1.000   0.000  0.00  0.00    +0.000 A 
ATOM     18  C   UNL     1      -2.472   0.515   0.000  0.00  0.00    +0.000 A 
ATOM     19  N   UNL     1      -0.964   0.515   0.000  0.00  0.00    +0.000 N 
ATOM     20  N   UNL     1       0.964   0.515   0.000  0.00  0.00    +0.000 N 
ATOM     21  O   UNL     1       0.024  -0.114   0.000  0.00  0.00    +0.000 OA
ATOM     22  C   UNL     1       0.024  -1.764   0.000  0.00  0.00    +0.000 C 
ATOM     23  C   UNL     1       0.738  -1.352   0.000  0.00  0.00    +0.000 C 
ATOM     24  C   UNL     1       0.738  -0.527   0.000  0.00  0.00    +0.000 C 
ATOM     25  N   UNL     1       0.000   3.827   0.000  0.00  0.00    +0.000 NA
ATOM     26  C   UNL     1      -0.667   3.342   0.000  0.00  0.00    +0.000 C 
ATOM     27  C   UNL     1       0.667   3.342   0.000  0.00  0.00    +0.000 C 
ATOM     28  O   UNL     1       1.464   3.555   0.000  0.00  0.00    +0.000 OA
ATOM     29  C   UNL     1      -0.691  -0.527   0.000  0.00  0.00    +0.000 C 
ATOM     30  C   UNL     1      -1.516  -0.527   0.000  0.00  0.00    +0.000 C 
ATOM     31  C   UNL     1      -0.691  -1.352   0.000  0.00  0.00    +0.000 C 
ENDROOT
BRANCH  22  32
ATOM     32  N   UNL     1       0.024  -2.589   0.000  0.00  0.00    +0.000 N 
ATOM     33  C   UNL     1      -0.691  -3.002   0.000  0.00  0.00    +0.000 C 
ATOM     34  C   UNL     1       0.738  -3.002   0.000  0.00  0.00    +0.000 C 
ATOM     35  O   UNL     1       0.738  -3.827   0.000  0.00  0.00    +0.000 OA
BRANCH  34  36
ATOM     36  C   UNL     1       1.453  -2.589   0.000  0.00  0.00    +0.000 A 
ATOM     37  C   UNL     1       2.882  -1.764   0.000  0.00  0.00    +0.000 A 
ATOM     38  C   UNL     1       2.882  -2.589   0.000  0.00  0.00    +0.000 A 
ATOM     39  C   UNL     1       2.167  -1.352   0.000  0.00  0.00    +0.000 A 
ATOM     40  C   UNL     1       2.167  -3.002   0.000  0.00  0.00    +0.000 A 
ATOM     41  C   UNL     1       1.453  -1.764   0.000  0.00  0.00    +0.000 A 
ENDBRANCH  34  36
ENDBRANCH  22  32
BRANCH  31  42
ATOM     42  O   UNL     1      -1.405  -1.764   0.000  0.00  0.00    +0.000 OA
ATOM     43  C   UNL     1      -2.119  -1.352   0.000  0.00  0.00    +0.000 C 
ENDBRANCH  31  42
TORSDOF 3
