REMARK  Name = 
REMARK  10 active torsions:
REMARK  status: ('A' for Active; 'I' for Inactive)
REMARK    1  A    between atoms: C_1  and  O_4
REMARK    2  A    between atoms: C_2  and  C_6
REMARK    3  A    between atoms: O_4  and  C_8
REMARK    4  A    between atoms: C_8  and  C_12
REMARK    5  A    between atoms: C_9  and  N_13
REMARK    6  A    between atoms: C_12  and  C_14
REMARK    7  A    between atoms: C_14  and  N_17
REMARK    8  A    between atoms: C_16  and  C_18
REMARK    9  A    between atoms: N_17  and  C_20
REMARK   10  A    between atoms: C_18  and  C_21
REMARK                            x       y       z     vdW  Elec       q    Type
REMARK                         _______ _______ _______ _____ _____    ______ ____
ROOT
ATOM      1  C   UNL     1       1.072  -1.031   0.000  0.00  0.00    +0.000 A 
ATOM      2  C   UNL     1       1.072  -1.856   0.000  0.00  0.00    +0.000 A 
ATOM      3  C   UNL     1       0.357  -0.619   0.000  0.00  0.00    +0.000 A 
ATOM      4  C   UNL     1       0.357  -2.269   0.000  0.00  0.00    +0.000 A 
ATOM      5  C   UNL     1      -0.357  -1.031   0.000  0.00  0.00    +0.000 A 
ATOM      6  C   UNL     1      -0.357  -1.856   0.000  0.00  0.00    +0.000 A 
ENDROOT
BRANCH   6   7
ATOM      7  N   UNL     1      -1.072  -2.269   0.000  0.00  0.00    +0.000 NA
ATOM      8  C   UNL     1      -1.786  -1.856   0.000  0.00  0.00    +0.000 C 
ATOM      9  O   UNL     1      -1.786  -1.031   0.000  0.00  0.00    +0.000 OA
BRANCH   8  10
ATOM     10  C   UNL     1      -2.501  -2.269   0.000  0.00  0.00    +0.000 C 
BRANCH  10  11
ATOM     11  C   UNL     1      -3.215  -1.856   0.000  0.00  0.00    +0.000 C 
ATOM     12  C   UNL     1      -3.930  -2.269   0.000  0.00  0.00    +0.000 C 
ENDBRANCH  10  11
ENDBRANCH   8  10
ENDBRANCH   6   7
BRANCH   2  13
ATOM     13  C   UNL     1       1.786  -2.269   0.000  0.00  0.00    +0.000 C 
ATOM     14  C   UNL     1       1.786  -3.094   0.000  0.00  0.00    +0.000 C 
ATOM     15  O   UNL     1       2.501  -1.856   0.000  0.00  0.00    +0.000 OA
ENDBRANCH   2  13
BRANCH   1  16
ATOM     16  O   UNL     1       1.786  -0.619   0.000  0.00  0.00    +0.000 OA
BRANCH  16  17
ATOM     17  C   UNL     1       1.786   0.206   0.000  0.00  0.00    +0.000 C 
BRANCH  17  18
ATOM     18  C   UNL     1       2.501   0.619   0.000  0.00  0.00    +0.000 C 
ATOM     19  O   UNL     1       3.215   0.206   0.000  0.00  0.00    +0.000 OA
BRANCH  18  20
ATOM     20  C   UNL     1       2.501   1.444   0.000  0.00  0.00    +0.000 C 
BRANCH  20  21
ATOM     21  N   UNL     1       3.215   1.856   0.000  0.00  0.00    +0.000 NA
BRANCH  21  22
ATOM     22  C   UNL     1       3.215   2.681   0.000  0.00  0.00    +0.000 C 
ATOM     23  C   UNL     1       3.930   3.094   0.000  0.00  0.00    +0.000 C 
ATOM     24  C   UNL     1       2.501   3.094   0.000  0.00  0.00    +0.000 C 
ENDBRANCH  21  22
ENDBRANCH  20  21
ENDBRANCH  18  20
ENDBRANCH  17  18
ENDBRANCH  16  17
ENDBRANCH   1  16
TORSDOF 10
