REMARK  Name = 
REMARK  5 active torsions:
REMARK  status: ('A' for Active; 'I' for Inactive)
REMARK    1  A    between atoms: O_2  and  C_3
REMARK    2  A    between atoms: C_8  and  C_9
REMARK    3  A    between atoms: N_11  and  C_12
REMARK    4  A    between atoms: N_15  and  C_18
REMARK    5  A    between atoms: C_18  and  C_19
REMARK                            x       y       z     vdW  Elec       q    Type
REMARK                         _______ _______ _______ _____ _____    ______ ____
ROOT
ATOM      1  C   UNL     1       4.287  -2.475   0.000  0.00  0.00    +0.000 C 
ATOM      2  O   UNL     1       4.287  -1.650   0.000  0.00  0.00    +0.000 OA
ATOM      3  N   UNL     1       3.572  -2.888   0.000  0.00  0.00    +0.000 NA
ENDROOT
BRANCH   1   9
ATOM      4  C   UNL     1       5.716  -2.475   0.000  0.00  0.00    +0.000 A 
ATOM      5  C   UNL     1       6.430  -2.888   0.000  0.00  0.00    +0.000 A 
ATOM      6  C   UNL     1       6.430  -3.712   0.000  0.00  0.00    +0.000 A 
ATOM      7  C   UNL     1       5.716  -4.125   0.000  0.00  0.00    +0.000 A 
ATOM      8  C   UNL     1       5.001  -3.712   0.000  0.00  0.00    +0.000 A 
ATOM      9  C   UNL     1       5.001  -2.888   0.000  0.00  0.00    +0.000 A 
ATOM     10 CL   UNL     1       5.716  -4.950   0.000  0.00  0.00    +0.000 Cl
ATOM     11  N   UNL     1       7.145  -4.125   0.000  0.00  0.00    +0.000 NA
BRANCH   4  13
ATOM     12  C   UNL     1       5.001  -1.238   0.000  0.00  0.00    +0.000 C 
ATOM     13  O   UNL     1       5.716  -1.650   0.000  0.00  0.00    +0.000 OA
ENDBRANCH   4  13
ENDBRANCH   1   9
BRANCH   3  14
ATOM     14  C   UNL     1       2.858  -2.475   0.000  0.00  0.00    +0.000 C 
ATOM     15  C   UNL     1       2.143  -2.888   0.000  0.00  0.00    +0.000 C 
ATOM     16  C   UNL     1       1.429  -2.475   0.000  0.00  0.00    +0.000 C 
ATOM     17  N   UNL     1       1.429  -1.650   0.000  0.00  0.00    +0.000 NA
ATOM     18  C   UNL     1       2.143  -1.238   0.000  0.00  0.00    +0.000 C 
ATOM     19  C   UNL     1       2.858  -1.650   0.000  0.00  0.00    +0.000 C 
BRANCH  17  20
ATOM     20  C   UNL     1       0.715  -1.238   0.000  0.00  0.00    +0.000 C 
BRANCH  20  21
ATOM     21  C   UNL     1       0.715  -0.412   0.000  0.00  0.00    +0.000 A 
ATOM     22  C   UNL     1       0.000   0.000   0.000  0.00  0.00    +0.000 A 
ATOM     23  C   UNL     1       0.000   0.825   0.000  0.00  0.00    +0.000 A 
ATOM     24  C   UNL     1       0.715   1.238   0.000  0.00  0.00    +0.000 A 
ATOM     25  C   UNL     1       1.429   0.825   0.000  0.00  0.00    +0.000 A 
ATOM     26  C   UNL     1       1.429   0.000   0.000  0.00  0.00    +0.000 A 
ENDBRANCH  20  21
ENDBRANCH  17  20
ENDBRANCH   3  14
TORSDOF 5
