REMARK  Name = 
REMARK  6 active torsions:
REMARK  status: ('A' for Active; 'I' for Inactive)
REMARK    1  A    between atoms: C_2  and  C_3
REMARK    2  A    between atoms: C_2  and  N_13
REMARK    3  A    between atoms: N_13  and  C_14
REMARK    4  A    between atoms: N_17  and  C_19
REMARK    5  A    between atoms: C_22  and  C_25
REMARK    6  A    between atoms: C_25  and  C_26
REMARK                            x       y       z     vdW  Elec       q    Type
REMARK                         _______ _______ _______ _____ _____    ______ ____
ROOT
ATOM      1  C   UNL     1       0.715   2.062   0.000  0.00  0.00    +0.000 C 
ATOM      2  C   UNL     1       0.047   2.547   0.000  0.00  0.00    +0.000 C 
ATOM      3  C   UNL     1       0.302   3.332   0.000  0.00  0.00    +0.000 C 
ATOM      4  N   UNL     1       1.127   3.332   0.000  0.00  0.00    +0.000 N 
ATOM      5  C   UNL     1       1.382   2.547   0.000  0.00  0.00    +0.000 C 
ENDROOT
BRANCH   4   6
ATOM      6  C   UNL     1       1.612   3.999   0.000  0.00  0.00    +0.000 A 
ATOM      7  C   UNL     1       1.276   4.753   0.000  0.00  0.00    +0.000 A 
ATOM      8  C   UNL     1       1.761   5.421   0.000  0.00  0.00    +0.000 A 
ATOM      9  C   UNL     1       2.582   5.334   0.000  0.00  0.00    +0.000 A 
ATOM     10  C   UNL     1       2.917   4.581   0.000  0.00  0.00    +0.000 A 
ATOM     11  C   UNL     1       2.432   3.913   0.000  0.00  0.00    +0.000 A 
BRANCH   9  12
ATOM     12  C   UNL     1       3.067   6.002   0.000  0.00  0.00    +0.000 C 
BRANCH  12  13
ATOM     13  C   UNL     1       3.887   5.916   0.000  0.00  0.00    +0.000 C 
ATOM     14  O   UNL     1       4.372   6.583   0.000  0.00  0.00    +0.000 OA
ATOM     15  O   UNL     1       4.223   5.162   0.000  0.00  0.00    +0.000 OA
ENDBRANCH  12  13
ENDBRANCH   9  12
ENDBRANCH   4   6
BRANCH   1  16
ATOM     16  N   UNL     1       0.715   1.238   0.000  0.00  0.00    +0.000 NA
BRANCH  16  18
ATOM     17  C   UNL     1      -0.715   1.238   0.000  0.00  0.00    +0.000 C 
ATOM     18  C   UNL     1       0.000   0.825   0.000  0.00  0.00    +0.000 C 
BRANCH  18  19
ATOM     19  C   UNL     1       0.000   0.000   0.000  0.00  0.00    +0.000 A 
ATOM     20  C   UNL     1      -0.715  -0.412   0.000  0.00  0.00    +0.000 A 
ATOM     21  C   UNL     1      -0.715  -1.238   0.000  0.00  0.00    +0.000 A 
ATOM     22  C   UNL     1       0.000  -1.650   0.000  0.00  0.00    +0.000 A 
ATOM     23  C   UNL     1       0.715  -1.238   0.000  0.00  0.00    +0.000 A 
ATOM     24  C   UNL     1       0.715  -0.412   0.000  0.00  0.00    +0.000 A 
ATOM     25  C   UNL     1       1.429   0.000   0.000  0.00  0.00    +0.000 A 
ATOM     26  C   UNL     1       2.143  -0.412   0.000  0.00  0.00    +0.000 A 
ATOM     27  C   UNL     1       2.143  -1.238   0.000  0.00  0.00    +0.000 A 
ATOM     28  C   UNL     1       1.429  -1.650   0.000  0.00  0.00    +0.000 A 
ENDBRANCH  18  19
ENDBRANCH  16  18
ENDBRANCH   1  16
TORSDOF 6
