REMARK  Name = 
REMARK  14 active torsions:
REMARK  status: ('A' for Active; 'I' for Inactive)
REMARK    1  A    between atoms: C_2  and  C_3
REMARK    2  A    between atoms: C_2  and  N_16
REMARK    3  A    between atoms: C_3  and  C_4
REMARK    4  A    between atoms: C_4  and  O_5
REMARK    5  A    between atoms: O_5  and  C_6
REMARK    6  A    between atoms: C_8  and  C_9
REMARK    7  A    between atoms: C_9  and  C_10
REMARK    8  A    between atoms: N_16  and  C_17
REMARK    9  A    between atoms: N_16  and  C_31
REMARK   10  A    between atoms: C_17  and  C_18
REMARK   11  A    between atoms: C_18  and  C_19
REMARK   12  A    between atoms: C_18  and  C_25
REMARK   13  A    between atoms: C_31  and  C_32
REMARK   14  A    between atoms: C_35  and  C_39
REMARK                            x       y       z     vdW  Elec       q    Type
REMARK                         _______ _______ _______ _____ _____    ______ ____
ROOT
ATOM      1  N   UNL     1       2.728  -3.272   0.000  0.00  0.00    +0.000 NA
ENDROOT
BRANCH   1   3
ATOM      2  C   UNL     1       2.415  -4.667   0.000  0.00  0.00    +0.000 C 
ATOM      3  C   UNL     1       2.169  -3.879   0.000  0.00  0.00    +0.000 C 
BRANCH   3   4
ATOM      4  C   UNL     1       1.364  -3.699   0.000  0.00  0.00    +0.000 C 
BRANCH   4   5
ATOM      5  C   UNL     1       0.805  -4.306   0.000  0.00  0.00    +0.000 C 
BRANCH   5   6
ATOM      6  O   UNL     1       0.000  -4.125   0.000  0.00  0.00    +0.000 OA
BRANCH   6   7
ATOM      7  C   UNL     1      -0.559  -4.732   0.000  0.00  0.00    +0.000 A 
ATOM      8  C   UNL     1      -0.313  -5.519   0.000  0.00  0.00    +0.000 A 
ATOM      9  C   UNL     1      -0.872  -6.126   0.000  0.00  0.00    +0.000 A 
ATOM     10  C   UNL     1      -1.677  -5.946   0.000  0.00  0.00    +0.000 A 
ATOM     11  C   UNL     1      -1.923  -5.158   0.000  0.00  0.00    +0.000 A 
ATOM     12  C   UNL     1      -1.364  -4.551   0.000  0.00  0.00    +0.000 A 
BRANCH   9  13
ATOM     13  C   UNL     1      -0.625  -6.914   0.000  0.00  0.00    +0.000 C 
BRANCH  13  14
ATOM     14  C   UNL     1      -1.184  -7.521   0.000  0.00  0.00    +0.000 C 
ATOM     15  O   UNL     1      -0.938  -8.308   0.000  0.00  0.00    +0.000 OA
ATOM     16  O   UNL     1      -1.989  -7.340   0.000  0.00  0.00    +0.000 OA
ENDBRANCH  13  14
ENDBRANCH   9  13
ENDBRANCH   6   7
ENDBRANCH   5   6
ENDBRANCH   4   5
ENDBRANCH   3   4
ENDBRANCH   1   3
BRANCH   1  17
ATOM     17  C   UNL     1       3.055  -4.030   0.000  0.00  0.00    +0.000 C 
BRANCH  17  18
ATOM     18  C   UNL     1       3.874  -4.125   0.000  0.00  0.00    +0.000 C 
BRANCH  18  19
ATOM     19  C   UNL     1       4.367  -3.463   0.000  0.00  0.00    +0.000 A 
ATOM     20  C   UNL     1       4.040  -2.706   0.000  0.00  0.00    +0.000 A 
ATOM     21  C   UNL     1       4.532  -2.044   0.000  0.00  0.00    +0.000 A 
ATOM     22  C   UNL     1       5.351  -2.139   0.000  0.00  0.00    +0.000 A 
ATOM     23  C   UNL     1       5.678  -2.896   0.000  0.00  0.00    +0.000 A 
ATOM     24  C   UNL     1       5.186  -3.558   0.000  0.00  0.00    +0.000 A 
ENDBRANCH  18  19
BRANCH  18  25
ATOM     25  C   UNL     1       4.201  -4.882   0.000  0.00  0.00    +0.000 A 
ATOM     26  C   UNL     1       5.021  -4.978   0.000  0.00  0.00    +0.000 A 
ATOM     27  C   UNL     1       5.348  -5.735   0.000  0.00  0.00    +0.000 A 
ATOM     28  C   UNL     1       4.856  -6.397   0.000  0.00  0.00    +0.000 A 
ATOM     29  C   UNL     1       4.036  -6.302   0.000  0.00  0.00    +0.000 A 
ATOM     30  C   UNL     1       3.709  -5.544   0.000  0.00  0.00    +0.000 A 
ENDBRANCH  18  25
ENDBRANCH  17  18
ENDBRANCH   1  17
BRANCH   1  31
ATOM     31  C   UNL     1       2.482  -2.485   0.000  0.00  0.00    +0.000 C 
BRANCH  31  32
ATOM     32  C   UNL     1       3.040  -1.878   0.000  0.00  0.00    +0.000 A 
ATOM     33  C   UNL     1       2.794  -1.091   0.000  0.00  0.00    +0.000 A 
ATOM     34 CL   UNL     1       1.989  -0.910   0.000  0.00  0.00    +0.000 Cl
ATOM     35  C   UNL     1       3.353  -0.484   0.000  0.00  0.00    +0.000 A 
ATOM     36  C   UNL     1       4.158  -0.664   0.000  0.00  0.00    +0.000 A 
ATOM     37  C   UNL     1       4.404  -1.452   0.000  0.00  0.00    +0.000 A 
ATOM     38  C   UNL     1       3.845  -2.058   0.000  0.00  0.00    +0.000 A 
BRANCH  35  39
ATOM     39  C   UNL     1       3.107   0.304   0.000  0.00  0.00    +0.000 C 
ATOM     40  F   UNL     1       2.861   1.091   0.000  0.00  0.00    +0.000 F 
ATOM     41  F   UNL     1       3.894   0.550   0.000  0.00  0.00    +0.000 F 
ATOM     42  F   UNL     1       2.319   0.058   0.000  0.00  0.00    +0.000 F 
ENDBRANCH  35  39
ENDBRANCH  31  32
ENDBRANCH   1  31
TORSDOF 14
