REMARK  Name = 
REMARK  9 active torsions:
REMARK  status: ('A' for Active; 'I' for Inactive)
REMARK    1  A    between atoms: C_2  and  C_3
REMARK    2  A    between atoms: C_2  and  N_32
REMARK    3  A    between atoms: C_3  and  N_4
REMARK    4  A    between atoms: C_9  and  C_11
REMARK    5  A    between atoms: N_13  and  C_29
REMARK    6  A    between atoms: C_15  and  C_16
REMARK    7  A    between atoms: C_20  and  N_23
REMARK    8  A    between atoms: N_23  and  S_24
REMARK    9  A    between atoms: C_33  and  O_35
REMARK                            x       y       z     vdW  Elec       q    Type
REMARK                         _______ _______ _______ _____ _____    ______ ____
ROOT
ATOM      1  C   UNL     1      -6.222   0.244   0.000  0.00  0.00    +0.000 A 
ATOM      2  C   UNL     1      -6.976   0.579   0.000  0.00  0.00    +0.000 A 
ATOM      3  N   UNL     1      -7.528  -0.034   0.000  0.00  0.00    +0.000 N 
ATOM      4  N   UNL     1      -7.115  -0.748   0.000  0.00  0.00    +0.000 NA
ATOM      5  C   UNL     1      -6.309  -0.577   0.000  0.00  0.00    +0.000 A 
ENDROOT
BRANCH   5   6
ATOM      6  C   UNL     1      -5.695  -1.129   0.000  0.00  0.00    +0.000 A 
ATOM      7  C   UNL     1      -4.911  -0.874   0.000  0.00  0.00    +0.000 A 
ATOM      8  C   UNL     1      -4.298  -1.426   0.000  0.00  0.00    +0.000 A 
ATOM      9  C   UNL     1      -4.469  -2.233   0.000  0.00  0.00    +0.000 A 
ATOM     10  C   UNL     1      -5.254  -2.488   0.000  0.00  0.00    +0.000 A 
ATOM     11  C   UNL     1      -5.867  -1.936   0.000  0.00  0.00    +0.000 A 
ATOM     12  F   UNL     1      -6.652  -2.191   0.000  0.00  0.00    +0.000 F 
ATOM     13 CL   UNL     1      -3.513  -1.171   0.000  0.00  0.00    +0.000 Cl
BRANCH  10  14
ATOM     14  N   UNL     1      -5.425  -3.295   0.000  0.00  0.00    +0.000 NA
BRANCH  14  15
ATOM     15  S   UNL     1      -4.812  -3.847   0.000  0.00  0.00    +0.000 S 
ATOM     16  O   UNL     1      -4.260  -3.234   0.000  0.00  0.00    +0.000 OA
ATOM     17  O   UNL     1      -5.364  -4.460   0.000  0.00  0.00    +0.000 OA
ATOM     18  C   UNL     1      -4.199  -4.399   0.000  0.00  0.00    +0.000 C 
ENDBRANCH  14  15
ENDBRANCH  10  14
ENDBRANCH   5   6
BRANCH   1  24
ATOM     19  N   UNL     1      -3.364   0.244   0.000  0.00  0.00    +0.000 NA
ATOM     20  C   UNL     1      -4.079   0.656   0.000  0.00  0.00    +0.000 A 
ATOM     21  N   UNL     1      -4.079   1.481   0.000  0.00  0.00    +0.000 NA
ATOM     22  C   UNL     1      -4.793   1.894   0.000  0.00  0.00    +0.000 A 
ATOM     23  C   UNL     1      -5.508   1.481   0.000  0.00  0.00    +0.000 A 
ATOM     24  C   UNL     1      -5.508   0.656   0.000  0.00  0.00    +0.000 A 
ATOM     25  N   UNL     1      -4.793   0.244   0.000  0.00  0.00    +0.000 NA
BRANCH  19  26
ATOM     26  C   UNL     1      -2.650   0.656   0.000  0.00  0.00    +0.000 C 
BRANCH  26  28
ATOM     27  C   UNL     1      -1.935  -0.581   0.000  0.00  0.00    +0.000 C 
ATOM     28  C   UNL     1      -1.935   0.244   0.000  0.00  0.00    +0.000 C 
BRANCH  28  29
ATOM     29  N   UNL     1      -1.221   0.656   0.000  0.00  0.00    +0.000 NA
ATOM     30  C   UNL     1      -0.506   0.244   0.000  0.00  0.00    +0.000 C 
ATOM     31  O   UNL     1      -0.506  -0.581   0.000  0.00  0.00    +0.000 OA
BRANCH  30  32
ATOM     32  O   UNL     1       0.208   0.656   0.000  0.00  0.00    +0.000 OA
ATOM     33  C   UNL     1       0.922   0.244   0.000  0.00  0.00    +0.000 C 
ENDBRANCH  30  32
ENDBRANCH  28  29
ENDBRANCH  26  28
ENDBRANCH  19  26
ENDBRANCH   1  24
BRANCH   3  34
ATOM     34  C   UNL     1      -8.348   0.052   0.000  0.00  0.00    +0.000 C 
ATOM     35  C   UNL     1      -8.833  -0.615   0.000  0.00  0.00    +0.000 C 
ATOM     36  C   UNL     1      -8.684   0.806   0.000  0.00  0.00    +0.000 C 
ENDBRANCH   3  34
TORSDOF 9
