REMARK  Name = 
REMARK  9 active torsions:
REMARK  status: ('A' for Active; 'I' for Inactive)
REMARK    1  A    between atoms: C_5  and  C_23
REMARK    2  A    between atoms: C_6  and  C_24
REMARK    3  A    between atoms: C_7  and  C_25
REMARK    4  A    between atoms: C_17  and  O_31
REMARK    5  A    between atoms: C_22  and  O_32
REMARK    6  A    between atoms: C_23  and  O_31
REMARK    7  A    between atoms: C_24  and  O_32
REMARK    8  A    between atoms: C_25  and  O_33
REMARK    9  A    between atoms: C_26  and  O_33
REMARK                            x       y       z     vdW  Elec       q    Type
REMARK                         _______ _______ _______ _____ _____    ______ ____
ROOT
ATOM      1  C   UNL     1       2.031   1.736   0.000  0.00  0.00    +0.000 C 
ATOM      2  C   UNL     1       4.575  -0.849   0.000  0.00  0.00    +0.000 C 
ATOM      3  C   UNL     1       6.171   1.043   0.000  0.00  0.00    +0.000 A 
ATOM      4  C   UNL     1       3.763  -0.704   0.000  0.00  0.00    +0.000 C 
ATOM      5  C   UNL     1       5.359   1.188   0.000  0.00  0.00    +0.000 A 
ATOM      6  C   UNL     1       3.735   1.479   0.000  0.00  0.00    +0.000 C 
ATOM      7  C   UNL     1       2.922   1.624   0.000  0.00  0.00    +0.000 C 
ATOM      8  C   UNL     1       5.919  -0.363   0.000  0.00  0.00    +0.000 A 
ATOM      9  C   UNL     1       2.019  -0.289   0.000  0.00  0.00    +0.000 C 
ATOM     10  C   UNL     1       5.107  -0.218   0.000  0.00  0.00    +0.000 A 
ATOM     11  C   UNL     1       6.451   0.267   0.000  0.00  0.00    +0.000 A 
ATOM     12  C   UNL     1       4.827   0.558   0.000  0.00  0.00    +0.000 A 
ATOM     13  C   UNL     1       4.015   0.703   0.000  0.00  0.00    +0.000 C 
ATOM     14  C   UNL     1       3.483   0.072   0.000  0.00  0.00    +0.000 C 
ATOM     15  C   UNL     1       2.671   0.217   0.000  0.00  0.00    +0.000 C 
ATOM     16  C   UNL     1       1.337   0.174   0.000  0.00  0.00    +0.000 C 
ATOM     17  C   UNL     1       1.566   0.967   0.000  0.00  0.00    +0.000 C 
ATOM     18  C   UNL     1       2.390   0.993   0.000  0.00  0.00    +0.000 C 
ENDROOT
BRANCH  11  19
ATOM     19  O   UNL     1       7.263   0.122   0.000  0.00  0.00    +0.000 OA
BRANCH  19  20
ATOM     20  C   UNL     1       7.795   0.753   0.000  0.00  0.00    +0.000 C 
ATOM     21  O   UNL     1       7.515   1.529   0.000  0.00  0.00    +0.000 OA
BRANCH  20  23
ATOM     22  C   UNL     1       9.139   1.238   0.000  0.00  0.00    +0.000 C 
ATOM     23  C   UNL     1       8.607   0.608   0.000  0.00  0.00    +0.000 C 
ENDBRANCH  20  23
ENDBRANCH  19  20
ENDBRANCH  11  19
BRANCH  16  24
ATOM     24  O   UNL     1       0.561  -0.106   0.000  0.00  0.00    +0.000 OA
BRANCH  24  25
ATOM     25  C   UNL     1       0.415  -0.918   0.000  0.00  0.00    +0.000 C 
ATOM     26  O   UNL     1       1.046  -1.450   0.000  0.00  0.00    +0.000 OA
BRANCH  25  28
ATOM     27  C   UNL     1      -0.506  -2.011   0.000  0.00  0.00    +0.000 C 
ATOM     28  C   UNL     1      -0.360  -1.199   0.000  0.00  0.00    +0.000 C 
ENDBRANCH  25  28
ENDBRANCH  24  25
ENDBRANCH  16  24
BRANCH  17  29
ATOM     29  O   UNL     1       1.060   1.618   0.000  0.00  0.00    +0.000 OA
BRANCH  29  30
ATOM     30  C   UNL     1       0.242   1.505   0.000  0.00  0.00    +0.000 C 
ATOM     31  O   UNL     1      -0.069   0.741   0.000  0.00  0.00    +0.000 OA
BRANCH  30  33
ATOM     32  C   UNL     1       0.047   2.921   0.000  0.00  0.00    +0.000 C 
ATOM     33  C   UNL     1      -0.264   2.156   0.000  0.00  0.00    +0.000 C 
ENDBRANCH  30  33
ENDBRANCH  29  30
ENDBRANCH  17  29
TORSDOF 9
