REMARK  Name = 
REMARK  1 active torsions:
REMARK  status: ('A' for Active; 'I' for Inactive)
REMARK    1  A    between atoms: C_7  and  N_10
REMARK                            x       y       z     vdW  Elec       q    Type
REMARK                         _______ _______ _______ _____ _____    ______ ____
ROOT
ATOM      1  C   UNL     1       0.790   0.013   0.000  0.00  0.00    +0.000 A 
ATOM      2  C   UNL     1       0.790  -0.828   0.000  0.00  0.00    +0.000 A 
ATOM      3  C   UNL     1       0.082   0.412   0.000  0.00  0.00    +0.000 A 
ATOM      4  C   UNL     1       1.577   0.241   0.000  0.00  0.00    +0.000 A 
ATOM      5  C   UNL     1       0.082  -1.253   0.000  0.00  0.00    +0.000 A 
ATOM      6  N   UNL     1       1.577  -1.085   0.000  0.00  0.00    +0.000 NA
ATOM      7  C   UNL     1      -0.623   0.013   0.000  0.00  0.00    +0.000 A 
ATOM      8  N   UNL     1       2.090  -0.414   0.000  0.00  0.00    +0.000 NA
ATOM      9  C   UNL     1      -0.623  -0.828   0.000  0.00  0.00    +0.000 A 
ENDROOT
BRANCH   7  10
ATOM     10  N   UNL     1      -1.369   0.412   0.000  0.00  0.00    +0.000 N 
ATOM     11  O   UNL     1      -2.090   0.013   0.000  0.00  0.00    +0.000 OA
ATOM     12  O   UNL     1      -1.369   1.253   0.000  0.00  0.00    +0.000 OA
ENDBRANCH   7  10
TORSDOF 1
