REMARK  Name = 
REMARK  0 active torsions:
REMARK  status: ('A' for Active; 'I' for Inactive)
REMARK                            x       y       z     vdW  Elec       q    Type
REMARK                         _______ _______ _______ _____ _____    ______ ____
ROOT
ATOM      1  C   UNL     1       2.418   1.606   0.000  0.00  0.00    +0.000 C 
ATOM      2  C   UNL     1       0.136   0.707   0.000  0.00  0.00    +0.000 C 
ATOM      3  C   UNL     1       0.136  -0.353   0.000  0.00  0.00    +0.000 C 
ATOM      4  C   UNL     1       2.418   0.177   0.000  0.00  0.00    +0.000 C 
ATOM      5  C   UNL     1       1.359   0.177   0.000  0.00  0.00    +0.000 C 
ATOM      6  C   UNL     1       2.006   0.891   0.000  0.00  0.00    +0.000 C 
ATOM      7  C   UNL     1       1.181   0.891   0.000  0.00  0.00    +0.000 C 
ATOM      8  C   UNL     1       1.181  -0.537   0.000  0.00  0.00    +0.000 C 
ATOM      9  C   UNL     1       2.006  -0.537   0.000  0.00  0.00    +0.000 C 
ATOM     10  C   UNL     1       0.768   0.177   0.000  0.00  0.00    +0.000 C 
ATOM     11  O   UNL     1       2.418  -1.252   0.000  0.00  0.00    +0.000 OA
ENDROOT
TORSDOF 0
