REMARK  Name = 
REMARK  9 active torsions:
REMARK  status: ('A' for Active; 'I' for Inactive)
REMARK    1  A    between atoms: O_6  and  C_26
REMARK    2  A    between atoms: O_6  and  C_37
REMARK    3  A    between atoms: C_8  and  C_12
REMARK    4  A    between atoms: C_18  and  C_19
REMARK    5  A    between atoms: C_29  and  C_35
REMARK    6  A    between atoms: C_34  and  C_36
REMARK    7  A    between atoms: C_38  and  C_43
REMARK    8  A    between atoms: C_39  and  C_44
REMARK    9  A    between atoms: C_45  and  C_46
REMARK                            x       y       z     vdW  Elec       q    Type
REMARK                         _______ _______ _______ _____ _____    ______ ____
ROOT
ATOM      1  C   UNL     1       3.439  -2.599   0.000  0.00  0.00    +0.000 C 
ATOM      2  C   UNL     1       2.685  -2.264   0.000  0.00  0.00    +0.000 C 
ATOM      3  C   UNL     1       3.525  -3.420   0.000  0.00  0.00    +0.000 C 
ENDROOT
BRANCH   1  10
ATOM      4  O   UNL     1       3.306  -0.881   0.000  0.00  0.00    +0.000 OA
ATOM      5  O   UNL     1       2.925   0.538   0.000  0.00  0.00    +0.000 OA
ATOM      6  C   UNL     1       4.298   0.012   0.000  0.00  0.00    +0.000 C 
ATOM      7  C   UNL     1       3.477  -0.074   0.000  0.00  0.00    +0.000 C 
ATOM      8  C   UNL     1       4.633  -0.742   0.000  0.00  0.00    +0.000 C 
ATOM      9  C   UNL     1       4.020  -1.294   0.000  0.00  0.00    +0.000 C 
ATOM     10  C   UNL     1       4.106  -2.114   0.000  0.00  0.00    +0.000 C 
BRANCH   6  12
ATOM     11  C   UNL     1       4.298   1.441   0.000  0.00  0.00    +0.000 C 
ATOM     12  C   UNL     1       4.710   0.726   0.000  0.00  0.00    +0.000 C 
BRANCH  11  15
ATOM     13  O   UNL     1       3.996   2.568   0.000  0.00  0.00    +0.000 OA
ATOM     14  O   UNL     1       6.854   3.393   0.000  0.00  0.00    +0.000 OA
ATOM     15  C   UNL     1       4.710   2.155   0.000  0.00  0.00    +0.000 C 
ATOM     16  C   UNL     1       4.710   2.980   0.000  0.00  0.00    +0.000 C 
ATOM     17  C   UNL     1       5.425   1.743   0.000  0.00  0.00    +0.000 C 
ATOM     18  C   UNL     1       5.425   3.393   0.000  0.00  0.00    +0.000 C 
ATOM     19  C   UNL     1       6.139   2.155   0.000  0.00  0.00    +0.000 C 
ATOM     20  C   UNL     1       6.139   2.980   0.000  0.00  0.00    +0.000 C 
ATOM     21  C   UNL     1       4.298   3.695   0.000  0.00  0.00    +0.000 C 
ATOM     22  C   UNL     1       5.037   1.014   0.000  0.00  0.00    +0.000 C 
ATOM     23  C   UNL     1       5.812   1.014   0.000  0.00  0.00    +0.000 C 
ENDBRANCH  11  15
ENDBRANCH   6  12
ENDBRANCH   1  10
BRANCH   2  24
ATOM     24  C   UNL     1       2.018  -2.749   0.000  0.00  0.00    +0.000 C 
ATOM     25  C   UNL     1       1.264  -2.413   0.000  0.00  0.00    +0.000 C 
BRANCH  25  27
ATOM     26  C   UNL     1      -0.157  -2.563   0.000  0.00  0.00    +0.000 C 
ATOM     27  C   UNL     1       0.597  -2.898   0.000  0.00  0.00    +0.000 C 
BRANCH  26  29
ATOM     28  C   UNL     1      -1.578  -2.712   0.000  0.00  0.00    +0.000 C 
ATOM     29  C   UNL     1      -0.824  -3.047   0.000  0.00  0.00    +0.000 C 
ATOM     30  C   UNL     1      -1.664  -1.891   0.000  0.00  0.00    +0.000 C 
BRANCH  28  42
ATOM     31  O   UNL     1      -4.881  -3.695   0.000  0.00  0.00    +0.000 OA
ATOM     32  C   UNL     1      -3.753  -2.526   0.000  0.00  0.00    +0.000 C 
ATOM     33  C   UNL     1      -4.420  -3.011   0.000  0.00  0.00    +0.000 C 
ATOM     34  C   UNL     1      -3.839  -1.705   0.000  0.00  0.00    +0.000 C 
ATOM     35  C   UNL     1      -5.260  -1.855   0.000  0.00  0.00    +0.000 C 
ATOM     36  C   UNL     1      -5.174  -2.675   0.000  0.00  0.00    +0.000 C 
ATOM     37  C   UNL     1      -4.593  -1.370   0.000  0.00  0.00    +0.000 C 
ATOM     38  C   UNL     1      -2.999  -2.861   0.000  0.00  0.00    +0.000 C 
ATOM     39  C   UNL     1      -3.827  -3.584   0.000  0.00  0.00    +0.000 C 
ATOM     40  C   UNL     1      -3.022  -1.590   0.000  0.00  0.00    +0.000 C 
ATOM     41  C   UNL     1      -3.477  -0.964   0.000  0.00  0.00    +0.000 C 
ATOM     42  C   UNL     1      -2.245  -3.197   0.000  0.00  0.00    +0.000 C 
BRANCH  35  43
ATOM     43  O   UNL     1      -6.014  -1.519   0.000  0.00  0.00    +0.000 OA
BRANCH  43  45
ATOM     44  O   UNL     1      -6.854  -0.363   0.000  0.00  0.00    +0.000 OA
ATOM     45  C   UNL     1      -6.100  -0.699   0.000  0.00  0.00    +0.000 C 
ATOM     46  C   UNL     1      -5.433  -0.214   0.000  0.00  0.00    +0.000 C 
ENDBRANCH  43  45
ENDBRANCH  35  43
ENDBRANCH  28  42
ENDBRANCH  26  29
ENDBRANCH  25  27
ENDBRANCH   2  24
TORSDOF 9
