REMARK  Name = 
REMARK  0 active torsions:
REMARK  status: ('A' for Active; 'I' for Inactive)
REMARK                            x       y       z     vdW  Elec       q    Type
REMARK                         _______ _______ _______ _____ _____    ______ ____
ROOT
ATOM      1  I   UNL     1       0.825   0.000   0.000  0.00  0.00    +0.000 I 
ATOM      2  I   UNL     1       0.000  -0.825   0.000  0.00  0.00    +0.000 I 
ATOM      3  C   UNL     1       0.000   0.000   0.000  0.00  0.00    +0.000 C 
ATOM      4  I   UNL     1      -0.825   0.000   0.000  0.00  0.00    +0.000 I 
ENDROOT
TORSDOF 0
