REMARK  Name = 
REMARK  23 active torsions:
REMARK  status: ('A' for Active; 'I' for Inactive)
REMARK    1  A    between atoms: P_1  and  O_5
REMARK    2  A    between atoms: P_2  and  O_7
REMARK    3  A    between atoms: P_2  and  O_10
REMARK    4  A    between atoms: P_3  and  O_10
REMARK    5  A    between atoms: P_3  and  O_11
REMARK    6  A    between atoms: O_5  and  C_31
REMARK    7  A    between atoms: O_7  and  C_35
REMARK    8  A    between atoms: O_11  and  C_41
REMARK    9  A    between atoms: N_23  and  C_34
REMARK   10  A    between atoms: N_27  and  C_42
REMARK   11  A    between atoms: N_28  and  C_47
REMARK   12  A    between atoms: N_29  and  C_50
REMARK   13  A    between atoms: N_30  and  C_51
REMARK   14  A    between atoms: C_33  and  C_35
REMARK   15  A    between atoms: C_39  and  C_40
REMARK   16  A    between atoms: C_39  and  C_41
REMARK   17  A    between atoms: C_40  and  C_46
REMARK   18  A    between atoms: C_47  and  C_48
REMARK   19  A    between atoms: C_48  and  C_49
REMARK   20  A    between atoms: C_50  and  C_51
REMARK   21  A    between atoms: C_52  and  C_53
REMARK   22  A    between atoms: C_53  and  C_54
REMARK   23  A    between atoms: C_54  and  C_55
REMARK                            x       y       z     vdW  Elec       q    Type
REMARK                         _______ _______ _______ _____ _____    ______ ____
ROOT
ATOM      1  P   UNL     1      -3.057   1.776   0.000  0.00  0.00    +0.000 P 
ATOM      2  O   UNL     1      -2.720   2.529   0.000  0.00  0.00    +0.000 OA
ATOM      3  O   UNL     1      -3.394   1.022   0.000  0.00  0.00    +0.000 OA
ENDROOT
BRANCH   1   4
ATOM      4  O   UNL     1      -3.810   2.112   0.000  0.00  0.00    +0.000 OA
BRANCH   4   5
ATOM      5  P   UNL     1      -4.479   1.629   0.000  0.00  0.00    +0.000 P 
ATOM      6  O   UNL     1      -3.995   0.960   0.000  0.00  0.00    +0.000 OA
ATOM      7  O   UNL     1      -4.962   2.297   0.000  0.00  0.00    +0.000 OA
BRANCH   5   8
ATOM      8  O   UNL     1      -5.147   1.145   0.000  0.00  0.00    +0.000 OA
BRANCH   8   9
ATOM      9  C   UNL     1      -5.900   1.482   0.000  0.00  0.00    +0.000 C 
BRANCH   9  14
ATOM     10  O   UNL     1      -6.570   0.173   0.000  0.00  0.00    +0.000 OA
ATOM     11  O   UNL     1      -8.664   0.589   0.000  0.00  0.00    +0.000 OA
ATOM     12  C   UNL     1      -7.353   1.254   0.000  0.00  0.00    +0.000 C 
ATOM     13  C   UNL     1      -7.839   0.588   0.000  0.00  0.00    +0.000 C 
ATOM     14  C   UNL     1      -6.568   0.998   0.000  0.00  0.00    +0.000 C 
ATOM     15  C   UNL     1      -7.355  -0.081   0.000  0.00  0.00    +0.000 C 
BRANCH  15  16
ATOM     16  N   UNL     1      -7.611  -0.865   0.000  0.00  0.00    +0.000 N 
ATOM     17  N   UNL     1      -7.611  -2.193   0.000  0.00  0.00    +0.000 NA
ATOM     18  N   UNL     1      -9.106  -0.704   0.000  0.00  0.00    +0.000 NA
ATOM     19  N   UNL     1      -9.821  -1.941   0.000  0.00  0.00    +0.000 NA
ATOM     20  C   UNL     1      -8.392  -1.116   0.000  0.00  0.00    +0.000 A 
ATOM     21  C   UNL     1      -7.130  -1.529   0.000  0.00  0.00    +0.000 A 
ATOM     22  C   UNL     1      -8.392  -1.941   0.000  0.00  0.00    +0.000 A 
ATOM     23  C   UNL     1      -9.106  -2.354   0.000  0.00  0.00    +0.000 A 
ATOM     24  C   UNL     1      -9.821  -1.116   0.000  0.00  0.00    +0.000 A 
BRANCH  23  25
ATOM     25  N   UNL     1      -9.106  -3.179   0.000  0.00  0.00    +0.000 N 
ATOM     26  H   UNL     1      -8.663  -3.435   0.000  0.00  0.00    +0.000 HD
ATOM     27  H   UNL     1      -9.549  -3.435   0.000  0.00  0.00    +0.000 HD
ENDBRANCH  23  25
ENDBRANCH  15  16
BRANCH  12  28
ATOM     28  O   UNL     1      -7.606   2.039   0.000  0.00  0.00    +0.000 OA
BRANCH  28  29
ATOM     29  P   UNL     1      -7.053   2.651   0.000  0.00  0.00    +0.000 P 
ATOM     30  O   UNL     1      -7.665   3.205   0.000  0.00  0.00    +0.000 OA
ATOM     31  O   UNL     1      -6.500   3.264   0.000  0.00  0.00    +0.000 OA
ATOM     32  O   UNL     1      -6.441   2.098   0.000  0.00  0.00    +0.000 OA
ENDBRANCH  28  29
ENDBRANCH  12  28
ENDBRANCH   9  14
ENDBRANCH   8   9
ENDBRANCH   5   8
ENDBRANCH   4   5
ENDBRANCH   1   4
BRANCH   1  33
ATOM     33  O   UNL     1      -2.304   1.439   0.000  0.00  0.00    +0.000 OA
BRANCH  33  34
ATOM     34  C   UNL     1      -1.636   1.923   0.000  0.00  0.00    +0.000 C 
BRANCH  34  35
ATOM     35  C   UNL     1      -0.882   1.586   0.000  0.00  0.00    +0.000 C 
ATOM     36  C   UNL     1      -1.219   0.832   0.000  0.00  0.00    +0.000 C 
ATOM     37  C   UNL     1      -0.545   2.339   0.000  0.00  0.00    +0.000 C 
BRANCH  35  39
ATOM     38  O   UNL     1      -0.044   0.428   0.000  0.00  0.00    +0.000 OA
ATOM     39  C   UNL     1      -0.129   1.249   0.000  0.00  0.00    +0.000 C 
BRANCH  39  42
ATOM     40  O   UNL     1       0.454   2.553   0.000  0.00  0.00    +0.000 OA
ATOM     41  N   UNL     1       1.292   1.396   0.000  0.00  0.00    +0.000 N 
ATOM     42  C   UNL     1       0.539   1.732   0.000  0.00  0.00    +0.000 C 
ATOM     43  H   UNL     1       1.345   0.887   0.000  0.00  0.00    +0.000 HD
BRANCH  41  44
ATOM     44  C   UNL     1       1.960   1.879   0.000  0.00  0.00    +0.000 C 
BRANCH  44  45
ATOM     45  C   UNL     1       2.713   1.543   0.000  0.00  0.00    +0.000 C 
BRANCH  45  48
ATOM     46  O   UNL     1       3.297   2.847   0.000  0.00  0.00    +0.000 OA
ATOM     47  N   UNL     1       4.135   1.690   0.000  0.00  0.00    +0.000 N 
ATOM     48  C   UNL     1       3.382   2.026   0.000  0.00  0.00    +0.000 C 
ATOM     49  H   UNL     1       4.188   1.181   0.000  0.00  0.00    +0.000 HD
BRANCH  47  50
ATOM     50  C   UNL     1       4.803   2.173   0.000  0.00  0.00    +0.000 C 
BRANCH  50  51
ATOM     51  C   UNL     1       5.556   1.836   0.000  0.00  0.00    +0.000 C 
BRANCH  51  53
ATOM     52  O   UNL     1       7.063   1.163   0.000  0.00  0.00    +0.000 OA
ATOM     53  N   UNL     1       6.225   2.320   0.000  0.00  0.00    +0.000 N 
ATOM     54  C   UNL     1       6.978   1.983   0.000  0.00  0.00    +0.000 C 
ATOM     55  H   UNL     1       6.172   2.829   0.000  0.00  0.00    +0.000 HD
BRANCH  54  56
ATOM     56  C   UNL     1       7.646   2.467   0.000  0.00  0.00    +0.000 C 
BRANCH  56  57
ATOM     57  C   UNL     1       8.399   2.130   0.000  0.00  0.00    +0.000 C 
BRANCH  57  60
ATOM     58  O   UNL     1       9.821   2.277   0.000  0.00  0.00    +0.000 OA
ATOM     59  O   UNL     1       8.983   3.435   0.000  0.00  0.00    +0.000 OA
ATOM     60  C   UNL     1       9.068   2.614   0.000  0.00  0.00    +0.000 C 
ENDBRANCH  57  60
ENDBRANCH  56  57
ENDBRANCH  54  56
ENDBRANCH  51  53
ENDBRANCH  50  51
ENDBRANCH  47  50
ENDBRANCH  45  48
ENDBRANCH  44  45
ENDBRANCH  41  44
ENDBRANCH  39  42
ENDBRANCH  35  39
ENDBRANCH  34  35
ENDBRANCH  33  34
ENDBRANCH   1  33
TORSDOF 23
