REMARK  Name = 
REMARK  6 active torsions:
REMARK  status: ('A' for Active; 'I' for Inactive)
REMARK    1  A    between atoms: C_2  and  C_3
REMARK    2  A    between atoms: C_8  and  N_10
REMARK    3  A    between atoms: N_10  and  C_11
REMARK    4  A    between atoms: N_14  and  C_21
REMARK    5  A    between atoms: C_24  and  O_25
REMARK    6  A    between atoms: C_27  and  C_29
REMARK                            x       y       z     vdW  Elec       q    Type
REMARK                         _______ _______ _______ _____ _____    ______ ____
ROOT
ATOM      1  C   UNL     1       1.429   0.000   0.000  0.00  0.00    +0.000 A 
ATOM      2  C   UNL     1       2.143  -0.412   0.000  0.00  0.00    +0.000 A 
ATOM      3  C   UNL     1       2.858   0.000   0.000  0.00  0.00    +0.000 C 
ATOM      4  N   UNL     1       3.572  -0.412   0.000  0.00  0.00    +0.000 N 
ATOM      5  C   UNL     1       3.572  -1.238   0.000  0.00  0.00    +0.000 C 
ATOM      6  C   UNL     1       2.858  -1.650   0.000  0.00  0.00    +0.000 C 
ATOM      7  C   UNL     1       2.143  -1.238   0.000  0.00  0.00    +0.000 A 
ATOM      8  N   UNL     1       1.429  -1.650   0.000  0.00  0.00    +0.000 NA
ATOM      9  C   UNL     1       0.715  -1.238   0.000  0.00  0.00    +0.000 A 
ATOM     10  N   UNL     1       0.715  -0.412   0.000  0.00  0.00    +0.000 NA
ENDROOT
BRANCH   4  11
ATOM     11  C   UNL     1       4.287   0.000   0.000  0.00  0.00    +0.000 A 
ATOM     12  C   UNL     1       4.287   0.825   0.000  0.00  0.00    +0.000 A 
ATOM     13  N   UNL     1       5.001   1.238   0.000  0.00  0.00    +0.000 NA
ATOM     14  C   UNL     1       5.716   0.825   0.000  0.00  0.00    +0.000 A 
ATOM     15  C   UNL     1       5.716   0.000   0.000  0.00  0.00    +0.000 A 
ATOM     16  C   UNL     1       5.001  -0.412   0.000  0.00  0.00    +0.000 A 
BRANCH  15  17
ATOM     17  C   UNL     1       6.430  -0.412   0.000  0.00  0.00    +0.000 C 
ATOM     18  F   UNL     1       7.145  -0.825   0.000  0.00  0.00    +0.000 F 
ATOM     19  F   UNL     1       6.018  -1.127   0.000  0.00  0.00    +0.000 F 
ATOM     20  F   UNL     1       6.843   0.302   0.000  0.00  0.00    +0.000 F 
ENDBRANCH  15  17
BRANCH  14  21
ATOM     21  O   UNL     1       6.430   1.238   0.000  0.00  0.00    +0.000 OA
ATOM     22  C   UNL     1       6.430   2.062   0.000  0.00  0.00    +0.000 C 
ENDBRANCH  14  21
ENDBRANCH   4  11
BRANCH   1  23
ATOM     23  N   UNL     1       1.429   0.825   0.000  0.00  0.00    +0.000 NA
BRANCH  23  29
ATOM     24  C   UNL     1      -1.412   1.429   0.000  0.00  0.00    +0.000 C 
ATOM     25  O   UNL     1      -1.747   0.675   0.000  0.00  0.00    +0.000 OA
ATOM     26  N   UNL     1      -0.591   1.515   0.000  0.00  0.00    +0.000 N 
ATOM     27  C   UNL     1      -0.179   2.229   0.000  0.00  0.00    +0.000 C 
ATOM     28  C   UNL     1       0.628   2.058   0.000  0.00  0.00    +0.000 C 
ATOM     29  C   UNL     1       0.715   1.238   0.000  0.00  0.00    +0.000 C 
ATOM     30  C   UNL     1      -0.039   0.902   0.000  0.00  0.00    +0.000 C 
BRANCH  24  32
ATOM     31  C   UNL     1      -2.717   2.010   0.000  0.00  0.00    +0.000 C 
ATOM     32  C   UNL     1      -1.897   2.096   0.000  0.00  0.00    +0.000 C 
ENDBRANCH  24  32
ENDBRANCH  23  29
ENDBRANCH   1  23
TORSDOF 6
