REMARK  Name = 
REMARK  3 active torsions:
REMARK  status: ('A' for Active; 'I' for Inactive)
REMARK    1  A    between atoms: C_1  and  C_4
REMARK    2  A    between atoms: C_3  and  C_4
REMARK    3  A    between atoms: C_18  and  O_20
REMARK                            x       y       z     vdW  Elec       q    Type
REMARK                         _______ _______ _______ _____ _____    ______ ____
ROOT
ATOM      1  C   UNL     1      -1.666  -0.635   0.000  0.00  0.00    +0.000 A 
ATOM      2  C   UNL     1      -1.666  -1.460   0.000  0.00  0.00    +0.000 A 
ATOM      3  C   UNL     1      -0.952  -0.222   0.000  0.00  0.00    +0.000 A 
ATOM      4  C   UNL     1      -0.237  -0.635   0.000  0.00  0.00    +0.000 A 
ATOM      5  C   UNL     1      -0.237  -1.460   0.000  0.00  0.00    +0.000 A 
ATOM      6  C   UNL     1      -0.952  -1.872   0.000  0.00  0.00    +0.000 A 
ATOM      7  N   UNL     1       0.547  -0.380   0.000  0.00  0.00    +0.000 NA
ATOM      8  C   UNL     1       1.032  -1.047   0.000  0.00  0.00    +0.000 A 
ATOM      9  N   UNL     1       0.547  -1.715   0.000  0.00  0.00    +0.000 NA
ATOM     10  N   UNL     1       1.857  -1.047   0.000  0.00  0.00    +0.000 NA
ATOM     11  C   UNL     1       2.270  -0.333   0.000  0.00  0.00    +0.000 C 
ATOM     12  O   UNL     1       3.095  -0.333   0.000  0.00  0.00    +0.000 OA
ENDROOT
BRANCH   1  13
ATOM     13  C   UNL     1      -2.381  -0.222   0.000  0.00  0.00    +0.000 C 
ATOM     14  O   UNL     1      -3.095  -0.635   0.000  0.00  0.00    +0.000 OA
BRANCH  13  15
ATOM     15  C   UNL     1      -2.381   0.603   0.000  0.00  0.00    +0.000 A 
ATOM     16  C   UNL     1      -3.048   1.088   0.000  0.00  0.00    +0.000 A 
ATOM     17  S   UNL     1      -1.713   1.088   0.000  0.00  0.00    +0.000 S 
ATOM     18  C   UNL     1      -1.968   1.872   0.000  0.00  0.00    +0.000 A 
ATOM     19  C   UNL     1      -2.793   1.872   0.000  0.00  0.00    +0.000 A 
ENDBRANCH  13  15
ENDBRANCH   1  13
BRANCH  11  20
ATOM     20  O   UNL     1       1.857   0.382   0.000  0.00  0.00    +0.000 OA
ATOM     21  C   UNL     1       2.270   1.096   0.000  0.00  0.00    +0.000 C 
ENDBRANCH  11  20
TORSDOF 3
