REMARK  Name = 
REMARK  2 active torsions:
REMARK  status: ('A' for Active; 'I' for Inactive)
REMARK    1  A    between atoms: C_1  and  C_2
REMARK    2  A    between atoms: C_2  and  C_3
REMARK                            x       y       z     vdW  Elec       q    Type
REMARK                         _______ _______ _______ _____ _____    ______ ____
ROOT
ATOM      1  C   UNL     1       0.000  -0.619   0.000  0.00  0.00    +0.000 C 
ENDROOT
BRANCH   1   2
ATOM      2  C   UNL     1       0.715  -0.206   0.000  0.00  0.00    +0.000 C 
ATOM      3  O   UNL     1       0.715   0.619   0.000  0.00  0.00    +0.000 OA
ENDBRANCH   1   2
BRANCH   1   4
ATOM      4  C   UNL     1      -0.715  -0.206   0.000  0.00  0.00    +0.000 C 
ATOM      5  O   UNL     1      -0.715   0.619   0.000  0.00  0.00    +0.000 OA
ENDBRANCH   1   4
TORSDOF 2
