REMARK  Name = 
REMARK  7 active torsions:
REMARK  status: ('A' for Active; 'I' for Inactive)
REMARK    1  A    between atoms: S_2  and  O_5
REMARK    2  A    between atoms: O_5  and  C_6
REMARK    3  A    between atoms: C_9  and  C_12
REMARK    4  A    between atoms: C_12  and  C_13
REMARK    5  A    between atoms: C_12  and  C_24
REMARK    6  A    between atoms: C_16  and  O_17
REMARK    7  A    between atoms: O_17  and  S_18
REMARK                            x       y       z     vdW  Elec       q    Type
REMARK                         _______ _______ _______ _____ _____    ______ ____
ROOT
ATOM      1  C   UNL     1       0.770  -0.563   0.000  0.00  0.00    +0.000 C 
ENDROOT
BRANCH   1   2
ATOM      2  C   UNL     1       0.055  -0.976   0.000  0.00  0.00    +0.000 A 
ATOM      3  C   UNL     1       0.055  -1.801   0.000  0.00  0.00    +0.000 A 
ATOM      4  C   UNL     1      -0.659  -2.213   0.000  0.00  0.00    +0.000 A 
ATOM      5  C   UNL     1      -1.374  -1.801   0.000  0.00  0.00    +0.000 A 
ATOM      6  C   UNL     1      -1.374  -0.976   0.000  0.00  0.00    +0.000 A 
ATOM      7  C   UNL     1      -0.659  -0.563   0.000  0.00  0.00    +0.000 A 
BRANCH   5   8
ATOM      8  O   UNL     1      -2.088  -2.213   0.000  0.00  0.00    +0.000 OA
BRANCH   8   9
ATOM      9  S   UNL     1      -2.088  -3.038   0.000  0.00  0.00    +0.000 S 
ATOM     10  O   UNL     1      -2.088  -3.864   0.000  0.00  0.00    +0.000 OA
ATOM     11  O   UNL     1      -2.913  -3.038   0.000  0.00  0.00    +0.000 OA
ATOM     12  O   UNL     1      -1.263  -3.038   0.000  0.00  0.00    +0.000 OA
ENDBRANCH   8   9
ENDBRANCH   5   8
ENDBRANCH   1   2
BRANCH   1  13
ATOM     13  C   UNL     1       1.484  -0.976   0.000  0.00  0.00    +0.000 A 
ATOM     14  C   UNL     1       2.199  -0.563   0.000  0.00  0.00    +0.000 A 
ATOM     15  C   UNL     1       2.913  -0.976   0.000  0.00  0.00    +0.000 A 
ATOM     16  C   UNL     1       2.913  -1.801   0.000  0.00  0.00    +0.000 A 
ATOM     17  C   UNL     1       2.199  -2.213   0.000  0.00  0.00    +0.000 A 
ATOM     18  N   UNL     1       1.484  -1.801   0.000  0.00  0.00    +0.000 NA
ENDBRANCH   1  13
BRANCH   1  22
ATOM     19  C   UNL     1       0.770   1.911   0.000  0.00  0.00    +0.000 A 
ATOM     20  C   UNL     1       1.484   1.499   0.000  0.00  0.00    +0.000 A 
ATOM     21  C   UNL     1       1.484   0.674   0.000  0.00  0.00    +0.000 A 
ATOM     22  C   UNL     1       0.770   0.261   0.000  0.00  0.00    +0.000 A 
ATOM     23  C   UNL     1       0.055   0.674   0.000  0.00  0.00    +0.000 A 
ATOM     24  C   UNL     1       0.055   1.499   0.000  0.00  0.00    +0.000 A 
BRANCH  19  25
ATOM     25  O   UNL     1       0.770   2.736   0.000  0.00  0.00    +0.000 OA
BRANCH  25  27
ATOM     26  O   UNL     1      -0.659   3.562   0.000  0.00  0.00    +0.000 OA
ATOM     27  S   UNL     1       0.055   3.149   0.000  0.00  0.00    +0.000 S 
ATOM     28  O   UNL     1      -0.357   2.434   0.000  0.00  0.00    +0.000 OA
ATOM     29  O   UNL     1       0.468   3.864   0.000  0.00  0.00    +0.000 OA
ENDBRANCH  25  27
ENDBRANCH  19  25
ENDBRANCH   1  22
TORSDOF 7
