REMARK  Name = 
REMARK  6 active torsions:
REMARK  status: ('A' for Active; 'I' for Inactive)
REMARK    1  A    between atoms: C_2  and  N_28
REMARK    2  A    between atoms: C_9  and  C_11
REMARK    3  A    between atoms: C_13  and  N_20
REMARK    4  A    between atoms: C_15  and  C_19
REMARK    5  A    between atoms: C_16  and  O_17
REMARK    6  A    between atoms: N_28  and  S_29
REMARK                            x       y       z     vdW  Elec       q    Type
REMARK                         _______ _______ _______ _____ _____    ______ ____
ROOT
ATOM      1  C   UNL     1       0.660   0.619   0.000  0.00  0.00    +0.000 A 
ATOM      2  C   UNL     1       1.361   1.031   0.000  0.00  0.00    +0.000 A 
ATOM      3  C   UNL     1       2.104   0.619   0.000  0.00  0.00    +0.000 A 
ATOM      4  C   UNL     1       2.104  -0.206   0.000  0.00  0.00    +0.000 A 
ATOM      5  C   UNL     1       1.403  -0.619   0.000  0.00  0.00    +0.000 A 
ATOM      6  C   UNL     1       0.660  -0.206   0.000  0.00  0.00    +0.000 A 
ENDROOT
BRANCH   1  15
ATOM      7  C   UNL     1      -2.888   1.031   0.000  0.00  0.00    +0.000 A 
ATOM      8  C   UNL     1      -2.888   1.856   0.000  0.00  0.00    +0.000 A 
ATOM      9  C   UNL     1      -2.187   2.269   0.000  0.00  0.00    +0.000 A 
ATOM     10  C   UNL     1      -1.444   1.856   0.000  0.00  0.00    +0.000 A 
ATOM     11  C   UNL     1      -1.444   1.031   0.000  0.00  0.00    +0.000 A 
ATOM     12  C   UNL     1      -2.187   0.619   0.000  0.00  0.00    +0.000 A 
ATOM     13  C   UNL     1      -0.743   2.269   0.000  0.00  0.00    +0.000 A 
ATOM     14  C   UNL     1      -0.041   1.856   0.000  0.00  0.00    +0.000 A 
ATOM     15  C   UNL     1      -0.041   1.031   0.000  0.00  0.00    +0.000 A 
ATOM     16  C   UNL     1      -0.743   0.619   0.000  0.00  0.00    +0.000 A 
BRANCH   8  17
ATOM     17  N   UNL     1      -3.589   2.269   0.000  0.00  0.00    +0.000 NA
BRANCH  17  18
ATOM     18  S   UNL     1      -4.290   1.856   0.000  0.00  0.00    +0.000 S 
ATOM     19  C   UNL     1      -4.992   2.269   0.000  0.00  0.00    +0.000 C 
ATOM     20  O   UNL     1      -4.703   1.114   0.000  0.00  0.00    +0.000 OA
ATOM     21  O   UNL     1      -3.878   1.114   0.000  0.00  0.00    +0.000 OA
ENDBRANCH  17  18
ENDBRANCH   8  17
ENDBRANCH   1  15
BRANCH   3  22
ATOM     22  N   UNL     1       2.805   1.031   0.000  0.00  0.00    +0.000 N 
ATOM     23  C   UNL     1       2.805   1.856   0.000  0.00  0.00    +0.000 A 
ATOM     24  C   UNL     1       3.548   2.269   0.000  0.00  0.00    +0.000 A 
ATOM     25  C   UNL     1       4.249   1.856   0.000  0.00  0.00    +0.000 A 
ATOM     26  N   UNL     1       4.249   1.031   0.000  0.00  0.00    +0.000 NA
ATOM     27  C   UNL     1       3.548   0.619   0.000  0.00  0.00    +0.000 A 
ATOM     28  O   UNL     1       4.992   2.269   0.000  0.00  0.00    +0.000 OA
ATOM     29  O   UNL     1       3.548  -0.206   0.000  0.00  0.00    +0.000 OA
ENDBRANCH   3  22
BRANCH   5  30
ATOM     30  C   UNL     1       1.403  -1.444   0.000  0.00  0.00    +0.000 C 
ATOM     31  C   UNL     1       0.688  -1.856   0.000  0.00  0.00    +0.000 C 
ATOM     32  C   UNL     1       2.117  -1.856   0.000  0.00  0.00    +0.000 C 
ATOM     33  C   UNL     1       1.403  -2.269   0.000  0.00  0.00    +0.000 C 
ENDBRANCH   5  30
BRANCH   6  34
ATOM     34  O   UNL     1      -0.041  -0.619   0.000  0.00  0.00    +0.000 OA
ATOM     35  C   UNL     1      -0.743  -0.206   0.000  0.00  0.00    +0.000 C 
ENDBRANCH   6  34
TORSDOF 6
