REMARK  Name = 
REMARK  4 active torsions:
REMARK  status: ('A' for Active; 'I' for Inactive)
REMARK    1  A    between atoms: N_2  and  C_4
REMARK    2  A    between atoms: C_4  and  C_5
REMARK    3  A    between atoms: C_5  and  N_6
REMARK    4  A    between atoms: C_7  and  C_9
REMARK                            x       y       z     vdW  Elec       q    Type
REMARK                         _______ _______ _______ _____ _____    ______ ____
ROOT
ATOM      1  C   UNL     1       2.858  -5.775   0.000  0.00  0.00    +0.000 A 
ATOM      2  C   UNL     1       2.858  -6.600   0.000  0.00  0.00    +0.000 A 
ATOM      3  C   UNL     1       3.572  -7.013   0.000  0.00  0.00    +0.000 A 
ATOM      4  C   UNL     1       4.287  -6.600   0.000  0.00  0.00    +0.000 A 
ATOM      5  C   UNL     1       4.287  -5.775   0.000  0.00  0.00    +0.000 A 
ATOM      6  C   UNL     1       3.572  -5.362   0.000  0.00  0.00    +0.000 A 
ATOM      7  N   UNL     1       3.572  -4.537   0.000  0.00  0.00    +0.000 NA
ATOM      8  C   UNL     1       4.287  -4.125   0.000  0.00  0.00    +0.000 A 
ATOM      9  C   UNL     1       4.287  -3.300   0.000  0.00  0.00    +0.000 A 
ATOM     10  C   UNL     1       5.001  -2.888   0.000  0.00  0.00    +0.000 A 
ATOM     11  C   UNL     1       5.716  -3.300   0.000  0.00  0.00    +0.000 A 
ATOM     12  C   UNL     1       5.716  -4.125   0.000  0.00  0.00    +0.000 A 
ATOM     13  C   UNL     1       5.001  -4.537   0.000  0.00  0.00    +0.000 A 
ATOM     14  C   UNL     1       5.001  -5.362   0.000  0.00  0.00    +0.000 A 
ENDROOT
BRANCH   1  16
ATOM     15  N   UNL     1       1.429  -5.775   0.000  0.00  0.00    +0.000 NA
ATOM     16  C   UNL     1       2.143  -5.362   0.000  0.00  0.00    +0.000 C 
ATOM     17  O   UNL     1       2.143  -4.537   0.000  0.00  0.00    +0.000 OA
BRANCH  15  18
ATOM     18  C   UNL     1       0.715  -5.362   0.000  0.00  0.00    +0.000 C 
BRANCH  18  19
ATOM     19  C   UNL     1       0.000  -5.775   0.000  0.00  0.00    +0.000 C 
BRANCH  19  21
ATOM     20  C   UNL     1      -1.429  -5.775   0.000  0.00  0.00    +0.000 C 
ATOM     21  N   UNL     1      -0.715  -5.362   0.000  0.00  0.00    +0.000 NA
ATOM     22  C   UNL     1      -0.715  -4.537   0.000  0.00  0.00    +0.000 C 
ENDBRANCH  19  21
ENDBRANCH  18  19
ENDBRANCH  15  18
ENDBRANCH   1  16
TORSDOF 4
