REMARK  Name = 
REMARK  3 active torsions:
REMARK  status: ('A' for Active; 'I' for Inactive)
REMARK    1  A    between atoms: C_1  and  C_11
REMARK    2  A    between atoms: C_3  and  N_12
REMARK    3  A    between atoms: C_5  and  N_7
REMARK                            x       y       z     vdW  Elec       q    Type
REMARK                         _______ _______ _______ _____ _____    ______ ____
ROOT
ATOM      1  C   UNL     1       0.000   0.619   0.000  0.00  0.00    +0.000 A 
ATOM      2  C   UNL     1       0.715   0.206   0.000  0.00  0.00    +0.000 A 
ATOM      3  C   UNL     1       0.715  -0.619   0.000  0.00  0.00    +0.000 A 
ATOM      4  C   UNL     1       0.000  -1.031   0.000  0.00  0.00    +0.000 A 
ATOM      5  C   UNL     1      -0.715  -0.619   0.000  0.00  0.00    +0.000 A 
ATOM      6  C   UNL     1      -0.715   0.206   0.000  0.00  0.00    +0.000 A 
ATOM      7  I   UNL     1      -1.429   0.619   0.000  0.00  0.00    +0.000 I 
ATOM      8  I   UNL     1       0.000  -1.856   0.000  0.00  0.00    +0.000 I 
ATOM      9  I   UNL     1       1.429   0.619   0.000  0.00  0.00    +0.000 I 
ENDROOT
BRANCH   5  10
ATOM     10  N   UNL     1      -1.429  -1.031   0.000  0.00  0.00    +0.000 N 
ATOM     11  C   UNL     1      -2.143  -0.619   0.000  0.00  0.00    +0.000 C 
ATOM     12  C   UNL     1      -2.858  -1.031   0.000  0.00  0.00    +0.000 C 
ATOM     13  O   UNL     1      -2.143   0.206   0.000  0.00  0.00    +0.000 OA
ATOM     14  C   UNL     1      -1.429  -1.856   0.000  0.00  0.00    +0.000 C 
ENDBRANCH   5  10
BRANCH   3  15
ATOM     15  N   UNL     1       1.429  -1.031   0.000  0.00  0.00    +0.000 NA
ATOM     16  C   UNL     1       2.143  -0.619   0.000  0.00  0.00    +0.000 C 
ATOM     17  O   UNL     1       2.143   0.206   0.000  0.00  0.00    +0.000 OA
ATOM     18  C   UNL     1       2.858  -1.031   0.000  0.00  0.00    +0.000 C 
ENDBRANCH   3  15
BRANCH   1  19
ATOM     19  C   UNL     1       0.000   1.444   0.000  0.00  0.00    +0.000 C 
ATOM     20  O   UNL     1       0.715   1.856   0.000  0.00  0.00    +0.000 OA
ATOM     21  O   UNL     1      -0.715   1.856   0.000  0.00  0.00    +0.000 OA
ENDBRANCH   1  19
TORSDOF 3
