REMARK  Name = 
REMARK  11 active torsions:
REMARK  status: ('A' for Active; 'I' for Inactive)
REMARK    1  A    between atoms: O_2  and  C_3
REMARK    2  A    between atoms: C_41  and  O_42
REMARK    3  A    between atoms: O_42  and  C_43
REMARK    4  A    between atoms: C_48  and  C_49
REMARK    5  A    between atoms: N_50  and  N_51
REMARK    6  A    between atoms: C_54  and  N_57
REMARK    7  A    between atoms: N_57  and  C_59
REMARK    8  A    between atoms: C_59  and  C_62
REMARK    9  A    between atoms: N_65  and  C_67
REMARK   10  A    between atoms: C_71  and  C_83
REMARK   11  A    between atoms: C_73  and  C_74
REMARK                            x       y       z     vdW  Elec       q    Type
REMARK                         _______ _______ _______ _____ _____    ______ ____
ROOT
ATOM      1  C   UNL     1       4.277   2.991   0.000  0.00  0.00    +0.000 C 
ATOM      2  C   UNL     1       5.020   2.622   0.000  0.00  0.00    +0.000 C 
ATOM      3  C   UNL     1       5.659   2.079   0.000  0.00  0.00    +0.000 C 
ATOM      4  O   UNL     1       6.233   1.445   0.000  0.00  0.00    +0.000 OA
ATOM      5  C   UNL     1       6.289   0.584   0.000  0.00  0.00    +0.000 C 
ATOM      6  C   UNL     1       6.786  -0.074   0.000  0.00  0.00    +0.000 C 
ATOM      7  O   UNL     1       5.511   0.860   0.000  0.00  0.00    +0.000 OA
ATOM      8  C   UNL     1       4.957   0.258   0.000  0.00  0.00    +0.000 A 
ATOM      9  C   UNL     1       5.395  -0.457   0.000  0.00  0.00    +0.000 A 
ATOM     10  C   UNL     1       6.220  -0.260   0.000  0.00  0.00    +0.000 C 
ATOM     11  O   UNL     1       6.846  -0.797   0.000  0.00  0.00    +0.000 OA
ATOM     12  C   UNL     1       4.933  -1.195   0.000  0.00  0.00    +0.000 A 
ATOM     13  C   UNL     1       4.087  -1.136   0.000  0.00  0.00    +0.000 A 
ATOM     14  C   UNL     1       3.697  -0.396   0.000  0.00  0.00    +0.000 A 
ATOM     15  O   UNL     1       2.873  -0.375   0.000  0.00  0.00    +0.000 OA
ATOM     16  C   UNL     1       4.118   0.314   0.000  0.00  0.00    +0.000 A 
ATOM     17  C   UNL     1       3.734   1.044   0.000  0.00  0.00    +0.000 C 
ATOM     18  C   UNL     1       3.631  -1.830   0.000  0.00  0.00    +0.000 A 
ATOM     19  O   UNL     1       2.810  -1.754   0.000  0.00  0.00    +0.000 OA
ATOM     20  C   UNL     1       3.947  -2.590   0.000  0.00  0.00    +0.000 A 
ATOM     21  N   UNL     1       3.136  -2.889   0.000  0.00  0.00    +0.000 NA
ATOM     22  C   UNL     1       2.288  -2.932   0.000  0.00  0.00    +0.000 C 
ATOM     23  O   UNL     1       2.160  -3.747   0.000  0.00  0.00    +0.000 OA
ATOM     24  C   UNL     1       1.470  -2.623   0.000  0.00  0.00    +0.000 C 
ATOM     25  C   UNL     1       1.055  -3.336   0.000  0.00  0.00    +0.000 C 
ATOM     26  C   UNL     1       0.801  -2.068   0.000  0.00  0.00    +0.000 C 
ATOM     27  C   UNL     1       0.312  -1.330   0.000  0.00  0.00    +0.000 C 
ATOM     28  C   UNL     1       0.063  -0.539   0.000  0.00  0.00    +0.000 C 
ATOM     29  C   UNL     1       0.029   0.291   0.000  0.00  0.00    +0.000 C 
ATOM     30  C   UNL     1      -0.793   0.365   0.000  0.00  0.00    +0.000 C 
ATOM     31  C   UNL     1       0.210   1.099   0.000  0.00  0.00    +0.000 C 
ATOM     32  O   UNL     1      -0.564   1.384   0.000  0.00  0.00    +0.000 OA
ATOM     33  C   UNL     1       0.595   1.833   0.000  0.00  0.00    +0.000 C 
ATOM     34  C   UNL     1      -0.079   2.308   0.000  0.00  0.00    +0.000 C 
ATOM     35  C   UNL     1       1.157   2.442   0.000  0.00  0.00    +0.000 C 
ATOM     36  O   UNL     1       0.628   3.076   0.000  0.00  0.00    +0.000 OA
ATOM     37  C   UNL     1       1.856   2.885   0.000  0.00  0.00    +0.000 C 
ATOM     38  C   UNL     1       1.510   3.634   0.000  0.00  0.00    +0.000 C 
ATOM     39  C   UNL     1       2.646   3.132   0.000  0.00  0.00    +0.000 C 
ATOM     40  C   UNL     1       3.472   3.167   0.000  0.00  0.00    +0.000 C 
ATOM     41  C   UNL     1       3.543   3.988   0.000  0.00  0.00    +0.000 C 
ATOM     42  C   UNL     1       4.786  -2.625   0.000  0.00  0.00    +0.000 A 
ATOM     43  C   UNL     1       5.261  -1.970   0.000  0.00  0.00    +0.000 A 
ATOM     44  O   UNL     1       6.081  -2.063   0.000  0.00  0.00    +0.000 OA
ENDROOT
BRANCH   1  46
ATOM     45  C   UNL     1       5.362   3.921   0.000  0.00  0.00    +0.000 C 
ATOM     46  O   UNL     1       4.551   3.769   0.000  0.00  0.00    +0.000 OA
ENDBRANCH   1  46
BRANCH  42  47
ATOM     47  C   UNL     1       5.146  -3.368   0.000  0.00  0.00    +0.000 C 
ATOM     48  N   UNL     1       4.682  -4.050   0.000  0.00  0.00    +0.000 NA
BRANCH  48  49
ATOM     49  N   UNL     1       5.042  -4.793   0.000  0.00  0.00    +0.000 N 
ATOM     50  C   UNL     1       5.864  -4.853   0.000  0.00  0.00    +0.000 C 
ATOM     51  C   UNL     1       6.224  -5.595   0.000  0.00  0.00    +0.000 C 
ATOM     52  C   UNL     1       5.761  -6.278   0.000  0.00  0.00    +0.000 C 
ATOM     53  C   UNL     1       4.938  -6.218   0.000  0.00  0.00    +0.000 C 
ATOM     54  C   UNL     1       4.578  -5.475   0.000  0.00  0.00    +0.000 C 
BRANCH  52  55
ATOM     55  N   UNL     1       6.120  -7.020   0.000  0.00  0.00    +0.000 NA
ATOM     56  C   UNL     1       5.657  -7.703   0.000  0.00  0.00    +0.000 C 
BRANCH  55  57
ATOM     57  C   UNL     1       6.943  -7.080   0.000  0.00  0.00    +0.000 C 
ATOM     58  C   UNL     1       7.737  -6.855   0.000  0.00  0.00    +0.000 C 
ATOM     59  C   UNL     1       7.145  -6.280   0.000  0.00  0.00    +0.000 C 
BRANCH  57  60
ATOM     60  C   UNL     1       7.027  -7.901   0.000  0.00  0.00    +0.000 C 
ATOM     61  C   UNL     1       6.412  -8.451   0.000  0.00  0.00    +0.000 C 
ATOM     62  C   UNL     1       6.746  -9.206   0.000  0.00  0.00    +0.000 C 
ATOM     63  N   UNL     1       7.566  -9.122   0.000  0.00  0.00    +0.000 N 
ATOM     64  C   UNL     1       7.740  -8.316   0.000  0.00  0.00    +0.000 C 
BRANCH  63  65
ATOM     65  C   UNL     1       8.117  -9.737   0.000  0.00  0.00    +0.000 A 
ATOM     66  C   UNL     1       8.924  -9.568   0.000  0.00  0.00    +0.000 A 
ATOM     67  C   UNL     1       9.181  -8.784   0.000  0.00  0.00    +0.000 C 
ATOM     68  C   UNL     1       9.474 -10.182   0.000  0.00  0.00    +0.000 A 
ATOM     69  C   UNL     1      10.282 -10.013   0.000  0.00  0.00    +0.000 A 
ATOM     70  C   UNL     1      10.832 -10.628   0.000  0.00  0.00    +0.000 A 
ATOM     71  C   UNL     1      10.575 -11.412   0.000  0.00  0.00    +0.000 A 
ATOM     72  C   UNL     1       9.767 -11.581   0.000  0.00  0.00    +0.000 A 
ATOM     73  O   UNL     1       9.510 -12.365   0.000  0.00  0.00    +0.000 OA
ATOM     74  N   UNL     1       9.217 -10.966   0.000  0.00  0.00    +0.000 N 
ATOM     75  C   UNL     1       8.410 -11.135   0.000  0.00  0.00    +0.000 A 
ATOM     76  C   UNL     1       7.859 -10.521   0.000  0.00  0.00    +0.000 A 
ATOM     77  F   UNL     1       7.052 -10.690   0.000  0.00  0.00    +0.000 F 
BRANCH  69  78
ATOM     78  C   UNL     1      10.539  -9.229   0.000  0.00  0.00    +0.000 C 
ATOM     79  C   UNL     1      10.370  -8.422   0.000  0.00  0.00    +0.000 C 
ATOM     80  C   UNL     1      11.154  -8.679   0.000  0.00  0.00    +0.000 C 
ENDBRANCH  69  78
BRANCH  71  81
ATOM     81  C   UNL     1      11.125 -12.026   0.000  0.00  0.00    +0.000 C 
ATOM     82  O   UNL     1      11.933 -11.857   0.000  0.00  0.00    +0.000 OA
ATOM     83  O   UNL     1      10.868 -12.810   0.000  0.00  0.00    +0.000 OA
ENDBRANCH  71  81
ENDBRANCH  63  65
ENDBRANCH  57  60
ENDBRANCH  55  57
ENDBRANCH  52  55
ENDBRANCH  48  49
ENDBRANCH  42  47
BRANCH  39  84
ATOM     84  O   UNL     1       2.505   3.945   0.000  0.00  0.00    +0.000 OA
BRANCH  84  85
ATOM     85  C   UNL     1       1.730   4.229   0.000  0.00  0.00    +0.000 C 
ATOM     86  C   UNL     1       1.589   5.041   0.000  0.00  0.00    +0.000 C 
ATOM     87  O   UNL     1       1.097   3.700   0.000  0.00  0.00    +0.000 OA
ENDBRANCH  84  85
ENDBRANCH  39  84
TORSDOF 11
