REMARK  Name = 
REMARK  1 active torsions:
REMARK  status: ('A' for Active; 'I' for Inactive)
REMARK    1  A    between atoms: C_4  and  C_14
REMARK                            x       y       z     vdW  Elec       q    Type
REMARK                         _______ _______ _______ _____ _____    ______ ____
ROOT
ATOM      1  C   UNL     1       0.718  -0.034   0.000  0.00  0.00    +0.000 A 
ATOM      2  N   UNL     1      -0.699  -0.034   0.000  0.00  0.00    +0.000 N 
ATOM      3  N   UNL     1       1.436   1.190   0.000  0.00  0.00    +0.000 NA
ATOM      4  C   UNL     1      -1.412  -0.439   0.000  0.00  0.00    +0.000 C 
ATOM      5  C   UNL     1       2.150  -0.034   0.000  0.00  0.00    +0.000 A 
ATOM      6  C   UNL     1       0.718   0.776   0.000  0.00  0.00    +0.000 A 
ATOM      7  N   UNL     1       2.150   0.776   0.000  0.00  0.00    +0.000 NA
ATOM      8  C   UNL     1       1.436  -0.439   0.000  0.00  0.00    +0.000 A 
ATOM      9  C   UNL     1       0.010  -0.439   0.000  0.00  0.00    +0.000 C 
ATOM     10  N   UNL     1       2.858  -0.439   0.000  0.00  0.00    +0.000 NA
ATOM     11  C   UNL     1       0.010   1.190   0.000  0.00  0.00    +0.000 C 
ATOM     12  C   UNL     1      -0.699   0.776   0.000  0.00  0.00    +0.000 C 
ATOM     13  O   UNL     1      -1.427  -1.268   0.000  0.00  0.00    +0.000 OA
ATOM     14  N   UNL     1       3.591  -0.439   0.000  0.00  0.00    +0.000 NA
ENDROOT
BRANCH   4  15
ATOM     15  C   UNL     1      -2.130  -0.019   0.000  0.00  0.00    +0.000 A 
ATOM     16  C   UNL     1      -2.130   0.834   0.000  0.00  0.00    +0.000 A 
ATOM     17  C   UNL     1      -2.868  -0.414   0.000  0.00  0.00    +0.000 A 
ATOM     18  C   UNL     1      -2.839   1.268   0.000  0.00  0.00    +0.000 A 
ATOM     19  C   UNL     1      -3.591   0.005   0.000  0.00  0.00    +0.000 A 
ATOM     20  C   UNL     1      -3.591   0.848   0.000  0.00  0.00    +0.000 A 
ENDBRANCH   4  15
TORSDOF 1
