REMARK  Name = 
REMARK  5 active torsions:
REMARK  status: ('A' for Active; 'I' for Inactive)
REMARK    1  A    between atoms: C_2  and  N_3
REMARK    2  A    between atoms: C_4  and  C_6
REMARK    3  A    between atoms: C_8  and  C_11
REMARK    4  A    between atoms: C_14  and  C_17
REMARK    5  A    between atoms: C_17  and  N_18
REMARK                            x       y       z     vdW  Elec       q    Type
REMARK                         _______ _______ _______ _____ _____    ______ ____
ROOT
ATOM      1  C   UNL     1       1.450  -0.448   0.000  0.00  0.00    +0.000 A 
ATOM      2  C   UNL     1       1.057   0.277   0.000  0.00  0.00    +0.000 A 
ATOM      3  C   UNL     1       1.488   0.980   0.000  0.00  0.00    +0.000 A 
ATOM      4  C   UNL     1       2.312   0.959   0.000  0.00  0.00    +0.000 A 
ATOM      5  C   UNL     1       2.706   0.234   0.000  0.00  0.00    +0.000 A 
ATOM      6  C   UNL     1       2.275  -0.470   0.000  0.00  0.00    +0.000 A 
ATOM      7  F   UNL     1       1.094   1.705   0.000  0.00  0.00    +0.000 F 
ENDROOT
BRANCH   1  10
ATOM      8  C   UNL     1       1.019  -2.318   0.000  0.00  0.00    +0.000 C 
ATOM      9  C   UNL     1       0.436  -1.735   0.000  0.00  0.00    +0.000 C 
ATOM     10  C   UNL     1       1.019  -1.151   0.000  0.00  0.00    +0.000 C 
ATOM     11  C   UNL     1       1.603  -1.735   0.000  0.00  0.00    +0.000 C 
ATOM     12  F   UNL     1       0.588  -0.448   0.000  0.00  0.00    +0.000 F 
BRANCH   8  14
ATOM     13  N   UNL     1       1.734  -3.556   0.000  0.00  0.00    +0.000 NA
ATOM     14  C   UNL     1       1.019  -3.143   0.000  0.00  0.00    +0.000 C 
ATOM     15  O   UNL     1       0.305  -3.556   0.000  0.00  0.00    +0.000 OA
BRANCH  13  17
ATOM     16  C   UNL     1       2.448  -4.793   0.000  0.00  0.00    +0.000 C 
ATOM     17  C   UNL     1       1.734  -4.381   0.000  0.00  0.00    +0.000 C 
ENDBRANCH  13  17
ENDBRANCH   8  14
ENDBRANCH   1  10
BRANCH   4  18
ATOM     18  C   UNL     1       2.744   1.662   0.000  0.00  0.00    +0.000 C 
BRANCH  18  19
ATOM     19  N   UNL     1       3.568   1.641   0.000  0.00  0.00    +0.000 NA
ATOM     20  C   UNL     1       4.071   2.295   0.000  0.00  0.00    +0.000 C 
ATOM     21  C   UNL     1       4.848   2.020   0.000  0.00  0.00    +0.000 C 
ATOM     22  C   UNL     1       4.827   1.195   0.000  0.00  0.00    +0.000 C 
ATOM     23  C   UNL     1       4.035   0.961   0.000  0.00  0.00    +0.000 C 
ENDBRANCH  18  19
ENDBRANCH   4  18
TORSDOF 5
