REMARK  Name = 
REMARK  5 active torsions:
REMARK  status: ('A' for Active; 'I' for Inactive)
REMARK    1  A    between atoms: C_4  and  N_7
REMARK    2  A    between atoms: N_9  and  C_10
REMARK    3  A    between atoms: C_13  and  C_19
REMARK    4  A    between atoms: N_21  and  C_30
REMARK    5  A    between atoms: C_26  and  N_32
REMARK                            x       y       z     vdW  Elec       q    Type
REMARK                         _______ _______ _______ _____ _____    ______ ____
ROOT
ATOM      1  C   UNL     1      -0.708   0.824   0.000  0.00  0.00    +0.000 A 
ATOM      2  C   UNL     1       0.006   0.411   0.000  0.00  0.00    +0.000 A 
ATOM      3  C   UNL     1       0.719   0.824   0.000  0.00  0.00    +0.000 A 
ATOM      4  C   UNL     1       0.718   1.650   0.000  0.00  0.00    +0.000 A 
ATOM      5  C   UNL     1      -0.002   2.061   0.000  0.00  0.00    +0.000 A 
ATOM      6  C   UNL     1      -0.712   1.646   0.000  0.00  0.00    +0.000 A 
ATOM      7  F   UNL     1      -1.429   2.055   0.000  0.00  0.00    +0.000 F 
ATOM      8 BR   UNL     1       1.431   2.064   0.000  0.00  0.00    +0.000 Br
ENDROOT
BRANCH   3   9
ATOM      9  C   UNL     1       1.434   0.412   0.000  0.00  0.00    +0.000 A 
ATOM     10  C   UNL     1       1.429  -0.417   0.000  0.00  0.00    +0.000 A 
ATOM     11  N   UNL     1       2.140  -0.829   0.000  0.00  0.00    +0.000 N 
ATOM     12  C   UNL     1       2.142   0.823   0.000  0.00  0.00    +0.000 A 
ATOM     13  C   UNL     1       2.857   0.406   0.000  0.00  0.00    +0.000 A 
ATOM     14  C   UNL     1       2.855  -0.420   0.000  0.00  0.00    +0.000 A 
ATOM     15  C   UNL     1       3.566  -0.833   0.000  0.00  0.00    +0.000 A 
ATOM     16  C   UNL     1       4.284  -0.424   0.000  0.00  0.00    +0.000 A 
ATOM     17  N   UNL     1       4.286   0.403   0.000  0.00  0.00    +0.000 NA
ATOM     18  C   UNL     1       3.570   0.821   0.000  0.00  0.00    +0.000 A 
ATOM     19  O   UNL     1       0.713  -0.827   0.000  0.00  0.00    +0.000 OA
BRANCH  11  20
ATOM     20  C   UNL     1       2.137  -1.654   0.000  0.00  0.00    +0.000 C 
ATOM     21  C   UNL     1       1.421  -2.064   0.000  0.00  0.00    +0.000 C 
ENDBRANCH  11  20
BRANCH  16  22
ATOM     22  N   UNL     1       4.997  -0.839   0.000  0.00  0.00    +0.000 NA
ATOM     23  C   UNL     1       4.994  -1.664   0.000  0.00  0.00    +0.000 C 
ENDBRANCH  16  22
ENDBRANCH   3   9
BRANCH   1  26
ATOM     24  N   UNL     1      -2.851   0.408   0.000  0.00  0.00    +0.000 NA
ATOM     25  C   UNL     1      -2.137   0.822   0.000  0.00  0.00    +0.000 C 
ATOM     26  N   UNL     1      -1.422   0.410   0.000  0.00  0.00    +0.000 NA
ATOM     27  O   UNL     1      -2.138   1.647   0.000  0.00  0.00    +0.000 OA
BRANCH  24  31
ATOM     28  C   UNL     1      -4.996   1.646   0.000  0.00  0.00    +0.000 A 
ATOM     29  C   UNL     1      -4.997   0.819   0.000  0.00  0.00    +0.000 A 
ATOM     30  C   UNL     1      -4.282   0.406   0.000  0.00  0.00    +0.000 A 
ATOM     31  C   UNL     1      -3.566   0.819   0.000  0.00  0.00    +0.000 A 
ATOM     32  C   UNL     1      -3.569   1.650   0.000  0.00  0.00    +0.000 A 
ATOM     33  C   UNL     1      -4.284   2.059   0.000  0.00  0.00    +0.000 A 
ENDBRANCH  24  31
ENDBRANCH   1  26
TORSDOF 5
