REMARK  Name = 
REMARK  39 active torsions:
REMARK  status: ('A' for Active; 'I' for Inactive)
REMARK    1  A    between atoms: C_1  and  C_2
REMARK    2  A    between atoms: C_1  and  O_7
REMARK    3  A    between atoms: C_1  and  C_8
REMARK    4  A    between atoms: C_2  and  O_3
REMARK    5  A    between atoms: O_3  and  C_4
REMARK    6  A    between atoms: C_4  and  C_13
REMARK    7  A    between atoms: O_7  and  C_10
REMARK    8  A    between atoms: C_8  and  O_9
REMARK    9  A    between atoms: O_9  and  P_18
REMARK   10  A    between atoms: C_10  and  C_12
REMARK   11  A    between atoms: C_12  and  C_35
REMARK   12  A    between atoms: C_13  and  C_21
REMARK   13  A    between atoms: O_14  and  C_15
REMARK   14  A    between atoms: O_14  and  P_18
REMARK   15  A    between atoms: C_15  and  C_16
REMARK   16  A    between atoms: C_21  and  C_22
REMARK   17  A    between atoms: C_22  and  C_23
REMARK   18  A    between atoms: C_23  and  C_24
REMARK   19  A    between atoms: C_24  and  C_25
REMARK   20  A    between atoms: C_25  and  C_26
REMARK   21  A    between atoms: C_26  and  C_27
REMARK   22  A    between atoms: C_27  and  C_28
REMARK   23  A    between atoms: C_28  and  C_29
REMARK   24  A    between atoms: C_29  and  C_30
REMARK   25  A    between atoms: C_30  and  C_31
REMARK   26  A    between atoms: C_31  and  C_32
REMARK   27  A    between atoms: C_32  and  C_33
REMARK   28  A    between atoms: C_35  and  C_36
REMARK   29  A    between atoms: C_36  and  C_37
REMARK   30  A    between atoms: C_37  and  C_38
REMARK   31  A    between atoms: C_38  and  C_39
REMARK   32  A    between atoms: C_39  and  C_40
REMARK   33  A    between atoms: C_40  and  C_41
REMARK   34  A    between atoms: C_41  and  C_42
REMARK   35  A    between atoms: C_42  and  C_43
REMARK   36  A    between atoms: C_43  and  C_44
REMARK   37  A    between atoms: C_44  and  C_45
REMARK   38  A    between atoms: C_45  and  C_46
REMARK   39  A    between atoms: C_46  and  C_47
REMARK                            x       y       z     vdW  Elec       q    Type
REMARK                         _______ _______ _______ _____ _____    ______ ____
ROOT
ATOM      1  C   UNL     1       3.929   0.362   0.000  0.00  0.00    +0.000 C 
ENDROOT
BRANCH   1   2
ATOM      2  C   UNL     1       4.643   0.775   0.000  0.00  0.00    +0.000 C 
BRANCH   2   3
ATOM      3  O   UNL     1       5.358   0.362   0.000  0.00  0.00    +0.000 OA
BRANCH   3   4
ATOM      4  P   UNL     1       6.072   0.775   0.000  0.00  0.00    +0.000 P 
ATOM      5  O   UNL     1       6.072   1.600   0.000  0.00  0.00    +0.000 OA
ATOM      6  O   UNL     1       6.286  -0.022   0.000  0.00  0.00    +0.000 OA
BRANCH   4   7
ATOM      7  O   UNL     1       6.787   0.363   0.000  0.00  0.00    +0.000 OA
BRANCH   7   8
ATOM      8  C   UNL     1       7.501   0.775   0.000  0.00  0.00    +0.000 C 
BRANCH   8   9
ATOM      9  C   UNL     1       8.216   0.363   0.000  0.00  0.00    +0.000 C 
ATOM     10  N   UNL     1       8.930   0.775   0.000  0.00  0.00    +0.000 NA
ENDBRANCH   8   9
ENDBRANCH   7   8
ENDBRANCH   4   7
ENDBRANCH   3   4
ENDBRANCH   2   3
ENDBRANCH   1   2
BRANCH   1  11
ATOM     11  O   UNL     1       3.516  -0.352   0.000  0.00  0.00    +0.000 OA
BRANCH  11  12
ATOM     12  C   UNL     1       2.768  -0.774   0.000  0.00  0.00    +0.000 C 
ATOM     13  O   UNL     1       2.768  -1.600   0.000  0.00  0.00    +0.000 OA
BRANCH  12  14
ATOM     14  C   UNL     1       2.054  -0.361   0.000  0.00  0.00    +0.000 C 
BRANCH  14  15
ATOM     15  C   UNL     1       1.339  -0.774   0.000  0.00  0.00    +0.000 C 
BRANCH  15  16
ATOM     16  C   UNL     1       0.625  -0.361   0.000  0.00  0.00    +0.000 C 
BRANCH  16  17
ATOM     17  C   UNL     1      -0.090  -0.774   0.000  0.00  0.00    +0.000 C 
BRANCH  17  18
ATOM     18  C   UNL     1      -0.804  -0.361   0.000  0.00  0.00    +0.000 C 
BRANCH  18  19
ATOM     19  C   UNL     1      -1.519  -0.774   0.000  0.00  0.00    +0.000 C 
BRANCH  19  20
ATOM     20  C   UNL     1      -2.233  -0.361   0.000  0.00  0.00    +0.000 C 
BRANCH  20  21
ATOM     21  C   UNL     1      -2.947  -0.774   0.000  0.00  0.00    +0.000 C 
BRANCH  21  22
ATOM     22  C   UNL     1      -3.662  -0.361   0.000  0.00  0.00    +0.000 C 
BRANCH  22  23
ATOM     23  C   UNL     1      -4.376  -0.774   0.000  0.00  0.00    +0.000 C 
BRANCH  23  24
ATOM     24  C   UNL     1      -5.091  -0.361   0.000  0.00  0.00    +0.000 C 
BRANCH  24  25
ATOM     25  C   UNL     1      -5.805  -0.774   0.000  0.00  0.00    +0.000 C 
BRANCH  25  26
ATOM     26  C   UNL     1      -6.520  -0.361   0.000  0.00  0.00    +0.000 C 
BRANCH  26  27
ATOM     27  C   UNL     1      -7.234  -0.774   0.000  0.00  0.00    +0.000 C 
ATOM     28  C   UNL     1      -7.949  -0.361   0.000  0.00  0.00    +0.000 C 
ENDBRANCH  26  27
ENDBRANCH  25  26
ENDBRANCH  24  25
ENDBRANCH  23  24
ENDBRANCH  22  23
ENDBRANCH  21  22
ENDBRANCH  20  21
ENDBRANCH  19  20
ENDBRANCH  18  19
ENDBRANCH  17  18
ENDBRANCH  16  17
ENDBRANCH  15  16
ENDBRANCH  14  15
ENDBRANCH  12  14
ENDBRANCH  11  12
ENDBRANCH   1  11
BRANCH   1  29
ATOM     29  C   UNL     1       3.215   0.774   0.000  0.00  0.00    +0.000 C 
BRANCH  29  30
ATOM     30  O   UNL     1       2.501   0.362   0.000  0.00  0.00    +0.000 OA
BRANCH  30  31
ATOM     31  C   UNL     1       1.786   0.774   0.000  0.00  0.00    +0.000 C 
ATOM     32  O   UNL     1       1.786   1.599   0.000  0.00  0.00    +0.000 OA
BRANCH  31  33
ATOM     33  C   UNL     1       1.072   0.361   0.000  0.00  0.00    +0.000 C 
BRANCH  33  34
ATOM     34  C   UNL     1       0.357   0.773   0.000  0.00  0.00    +0.000 C 
BRANCH  34  35
ATOM     35  C   UNL     1      -0.357   0.361   0.000  0.00  0.00    +0.000 C 
BRANCH  35  36
ATOM     36  C   UNL     1      -1.071   0.773   0.000  0.00  0.00    +0.000 C 
BRANCH  36  37
ATOM     37  C   UNL     1      -1.786   0.361   0.000  0.00  0.00    +0.000 C 
BRANCH  37  38
ATOM     38  C   UNL     1      -2.500   0.773   0.000  0.00  0.00    +0.000 C 
BRANCH  38  39
ATOM     39  C   UNL     1      -3.215   0.361   0.000  0.00  0.00    +0.000 C 
BRANCH  39  40
ATOM     40  C   UNL     1      -3.929   0.773   0.000  0.00  0.00    +0.000 C 
BRANCH  40  41
ATOM     41  C   UNL     1      -4.644   0.361   0.000  0.00  0.00    +0.000 C 
BRANCH  41  42
ATOM     42  C   UNL     1      -5.358   0.773   0.000  0.00  0.00    +0.000 C 
BRANCH  42  43
ATOM     43  C   UNL     1      -6.073   0.361   0.000  0.00  0.00    +0.000 C 
BRANCH  43  44
ATOM     44  C   UNL     1      -6.787   0.773   0.000  0.00  0.00    +0.000 C 
BRANCH  44  45
ATOM     45  C   UNL     1      -7.502   0.361   0.000  0.00  0.00    +0.000 C 
BRANCH  45  46
ATOM     46  C   UNL     1      -8.216   0.773   0.000  0.00  0.00    +0.000 C 
ATOM     47  C   UNL     1      -8.930   0.361   0.000  0.00  0.00    +0.000 C 
ENDBRANCH  45  46
ENDBRANCH  44  45
ENDBRANCH  43  44
ENDBRANCH  42  43
ENDBRANCH  41  42
ENDBRANCH  40  41
ENDBRANCH  39  40
ENDBRANCH  38  39
ENDBRANCH  37  38
ENDBRANCH  36  37
ENDBRANCH  35  36
ENDBRANCH  34  35
ENDBRANCH  33  34
ENDBRANCH  31  33
ENDBRANCH  30  31
ENDBRANCH  29  30
ENDBRANCH   1  29
TORSDOF 39
