REMARK  Name = 
REMARK  8 active torsions:
REMARK  status: ('A' for Active; 'I' for Inactive)
REMARK    1  A    between atoms: O_1  and  C_15
REMARK    2  A    between atoms: N_8  and  C_10
REMARK    3  A    between atoms: C_14  and  C_15
REMARK    4  A    between atoms: C_14  and  C_16
REMARK    5  A    between atoms: C_15  and  C_20
REMARK    6  A    between atoms: C_16  and  C_19
REMARK    7  A    between atoms: C_19  and  C_22
REMARK    8  A    between atoms: C_21  and  C_23
REMARK                            x       y       z     vdW  Elec       q    Type
REMARK                         _______ _______ _______ _____ _____    ______ ____
ROOT
ATOM      1  C   UNL     1      -0.281  -0.445   0.000  0.00  0.00    +0.000 C 
ENDROOT
BRANCH   1   4
ATOM      2  O   UNL     1       1.084  -0.024   0.000  0.00  0.00    +0.000 OA
ATOM      3  N   UNL     1       0.766  -1.417   0.000  0.00  0.00    +0.000 N 
ATOM      4  C   UNL     1       0.523  -0.629   0.000  0.00  0.00    +0.000 C 
ATOM      5  H   UNL     1       0.418  -1.792   0.000  0.00  0.00    +0.000 HD
BRANCH   3   9
ATOM      6  O   UNL     1       4.228  -1.417   0.000  0.00  0.00    +0.000 OA
ATOM      7  O   UNL     1       1.109  -2.920   0.000  0.00  0.00    +0.000 OA
ATOM      8  N   UNL     1       2.497  -2.763   0.000  0.00  0.00    +0.000 N 
ATOM      9  C   UNL     1       1.570  -1.601   0.000  0.00  0.00    +0.000 C 
ATOM     10  C   UNL     1       2.085  -0.956   0.000  0.00  0.00    +0.000 C 
ATOM     11  C   UNL     1       2.910  -0.956   0.000  0.00  0.00    +0.000 C 
ATOM     12  C   UNL     1       3.424  -1.601   0.000  0.00  0.00    +0.000 C 
ATOM     13  C   UNL     1       3.240  -2.405   0.000  0.00  0.00    +0.000 C 
ATOM     14  C   UNL     1       1.754  -2.405   0.000  0.00  0.00    +0.000 C 
ATOM     15  H   UNL     1       2.497  -3.275   0.000  0.00  0.00    +0.000 HD
ENDBRANCH   3   9
ENDBRANCH   1   4
BRANCH   1  17
ATOM     16  O   UNL     1       0.036   0.948   0.000  0.00  0.00    +0.000 OA
ATOM     17  C   UNL     1      -0.525   0.343   0.000  0.00  0.00    +0.000 C 
BRANCH  17  19
ATOM     18  O   UNL     1      -1.890  -0.078   0.000  0.00  0.00    +0.000 OA
ATOM     19  C   UNL     1      -1.329   0.526   0.000  0.00  0.00    +0.000 C 
BRANCH  19  21
ATOM     20  O   UNL     1      -1.011   1.920   0.000  0.00  0.00    +0.000 OA
ATOM     21  C   UNL     1      -1.572   1.315   0.000  0.00  0.00    +0.000 C 
BRANCH  21  22
ATOM     22  C   UNL     1      -2.377   1.498   0.000  0.00  0.00    +0.000 C 
ATOM     23  C   UNL     1      -2.620   2.287   0.000  0.00  0.00    +0.000 C 
BRANCH  23  24
ATOM     24  C   UNL     1      -3.424   2.470   0.000  0.00  0.00    +0.000 C 
ATOM     25  C   UNL     1      -4.228   2.654   0.000  0.00  0.00    +0.000 C 
ATOM     26  C   UNL     1      -3.240   3.275   0.000  0.00  0.00    +0.000 C 
ATOM     27  C   UNL     1      -3.608   1.666   0.000  0.00  0.00    +0.000 C 
ENDBRANCH  23  24
ENDBRANCH  21  22
ENDBRANCH  19  21
ENDBRANCH  17  19
ENDBRANCH   1  17
BRANCH   1  28
ATOM     28  O   UNL     1      -0.843  -1.050   0.000  0.00  0.00    +0.000 OA
ATOM     29  C   UNL     1      -1.647  -0.867   0.000  0.00  0.00    +0.000 C 
ENDBRANCH   1  28
TORSDOF 8
