REMARK  Name = 
REMARK  7 active torsions:
REMARK  status: ('A' for Active; 'I' for Inactive)
REMARK    1  A    between atoms: C_3  and  C_24
REMARK    2  A    between atoms: C_7  and  C_8
REMARK    3  A    between atoms: C_8  and  O_9
REMARK    4  A    between atoms: O_9  and  C_10
REMARK    5  A    between atoms: C_10  and  C_12
REMARK    6  A    between atoms: C_13  and  C_14
REMARK    7  A    between atoms: C_15  and  C_17
REMARK                            x       y       z     vdW  Elec       q    Type
REMARK                         _______ _______ _______ _____ _____    ______ ____
ROOT
ATOM      1  O   UNL     1      -0.302  -6.902   0.000  0.00  0.00    +0.000 OA
ENDROOT
BRANCH   1   2
ATOM      2  C   UNL     1      -0.302  -6.077   0.000  0.00  0.00    +0.000 C 
ATOM      3  O   UNL     1       0.412  -5.665   0.000  0.00  0.00    +0.000 OA
BRANCH   2   4
ATOM      4  C   UNL     1      -1.016  -5.665   0.000  0.00  0.00    +0.000 C 
ATOM      5  C   UNL     1      -1.841  -5.665   0.000  0.00  0.00    +0.000 C 
ATOM      6  C   UNL     1      -1.429  -4.950   0.000  0.00  0.00    +0.000 C 
ATOM      7  C   UNL     1      -1.902  -4.274   0.000  0.00  0.00    +0.000 C 
ATOM      8  C   UNL     1      -0.956  -4.274   0.000  0.00  0.00    +0.000 C 
BRANCH   5   9
ATOM      9  C   UNL     1      -2.556  -6.077   0.000  0.00  0.00    +0.000 C 
ATOM     10  C   UNL     1      -3.270  -5.665   0.000  0.00  0.00    +0.000 C 
ATOM     11 CL   UNL     1      -3.270  -4.840   0.000  0.00  0.00    +0.000 Cl
BRANCH  10  12
ATOM     12  C   UNL     1      -3.985  -6.077   0.000  0.00  0.00    +0.000 C 
ATOM     13  F   UNL     1      -4.699  -6.489   0.000  0.00  0.00    +0.000 F 
ATOM     14  F   UNL     1      -3.572  -6.791   0.000  0.00  0.00    +0.000 F 
ATOM     15  F   UNL     1      -4.397  -5.362   0.000  0.00  0.00    +0.000 F 
ENDBRANCH  10  12
ENDBRANCH   5   9
ENDBRANCH   2   4
ENDBRANCH   1   2
BRANCH   1  16
ATOM     16  C   UNL     1       0.412  -7.314   0.000  0.00  0.00    +0.000 C 
BRANCH  16  23
ATOM     17  C   UNL     1       1.841  -8.139   0.000  0.00  0.00    +0.000 C 
ATOM     18  C   UNL     1       1.127  -8.552   0.000  0.00  0.00    +0.000 A 
ATOM     19  C   UNL     1       1.127  -9.377   0.000  0.00  0.00    +0.000 A 
ATOM     20  C   UNL     1       0.412  -9.790   0.000  0.00  0.00    +0.000 A 
ATOM     21  C   UNL     1      -0.302  -9.377   0.000  0.00  0.00    +0.000 A 
ATOM     22  C   UNL     1      -0.302  -8.552   0.000  0.00  0.00    +0.000 A 
ATOM     23  C   UNL     1       0.412  -8.139   0.000  0.00  0.00    +0.000 A 
BRANCH  19  24
ATOM     24  C   UNL     1       1.841  -9.790   0.000  0.00  0.00    +0.000 A 
ATOM     25  C   UNL     1       2.556  -9.377   0.000  0.00  0.00    +0.000 A 
ATOM     26  C   UNL     1       3.270  -9.790   0.000  0.00  0.00    +0.000 A 
ATOM     27  C   UNL     1       3.270 -10.614   0.000  0.00  0.00    +0.000 A 
ATOM     28  C   UNL     1       2.556 -11.027   0.000  0.00  0.00    +0.000 A 
ATOM     29  C   UNL     1       1.841 -10.614   0.000  0.00  0.00    +0.000 A 
ENDBRANCH  19  24
ENDBRANCH  16  23
ENDBRANCH   1  16
TORSDOF 7
