REMARK  Name = 
REMARK  1 active torsions:
REMARK  status: ('A' for Active; 'I' for Inactive)
REMARK    1  A    between atoms: N_2  and  C_3
REMARK                            x       y       z     vdW  Elec       q    Type
REMARK                         _______ _______ _______ _____ _____    ______ ____
ROOT
ATOM      1  C   UNL     1      -1.468   0.077   0.000  0.00  0.00    +0.000 C 
ATOM      2  C   UNL     1      -0.801  -0.408   0.000  0.00  0.00    +0.000 C 
ATOM      3  C   UNL     1      -0.047  -0.072   0.000  0.00  0.00    +0.000 A 
ATOM      4  C   UNL     1       0.879  -0.408   0.000  0.00  0.00    +0.000 A 
ATOM      5  C   UNL     1       1.547   0.077   0.000  0.00  0.00    +0.000 A 
ATOM      6  C   UNL     1       1.460   0.897   0.000  0.00  0.00    +0.000 A 
ATOM      7  C   UNL     1       0.707   1.233   0.000  0.00  0.00    +0.000 A 
ATOM      8  C   UNL     1       0.039   0.748   0.000  0.00  0.00    +0.000 A 
ATOM      9  N   UNL     1      -0.628   1.233   0.000  0.00  0.00    +0.000 N 
ATOM     10  C   UNL     1      -0.373   2.018   0.000  0.00  0.00    +0.000 A 
ATOM     11  O   UNL     1      -0.858   2.685   0.000  0.00  0.00    +0.000 OA
ATOM     12  N   UNL     1       0.452   2.018   0.000  0.00  0.00    +0.000 NA
ATOM     13  C   UNL     1      -1.382   0.897   0.000  0.00  0.00    +0.000 C 
ENDROOT
BRANCH   1  15
ATOM     14  C   UNL     1      -2.889   0.226   0.000  0.00  0.00    +0.000 C 
ATOM     15  N   UNL     1      -2.222  -0.259   0.000  0.00  0.00    +0.000 NA
ENDBRANCH   1  15
TORSDOF 1
