REMARK  Name = 
REMARK  42 active torsions:
REMARK  status: ('A' for Active; 'I' for Inactive)
REMARK    1  A    between atoms: O_3  and  C_62
REMARK    2  A    between atoms: O_3  and  C_74
REMARK    3  A    between atoms: O_6  and  C_63
REMARK    4  A    between atoms: O_6  and  C_75
REMARK    5  A    between atoms: O_23  and  C_100
REMARK    6  A    between atoms: O_23  and  C_103
REMARK    7  A    between atoms: O_24  and  C_101
REMARK    8  A    between atoms: O_24  and  C_104
REMARK    9  A    between atoms: N_27  and  C_50
REMARK   10  A    between atoms: N_28  and  C_51
REMARK   11  A    between atoms: N_29  and  C_52
REMARK   12  A    between atoms: N_30  and  C_53
REMARK   13  A    between atoms: N_31  and  C_69
REMARK   14  A    between atoms: N_31  and  C_76
REMARK   15  A    between atoms: N_32  and  C_70
REMARK   16  A    between atoms: N_32  and  C_77
REMARK   17  A    between atoms: N_33  and  C_72
REMARK   18  A    between atoms: N_34  and  C_73
REMARK   19  A    between atoms: N_35  and  C_82
REMARK   20  A    between atoms: N_35  and  C_96
REMARK   21  A    between atoms: N_36  and  C_83
REMARK   22  A    between atoms: N_36  and  C_97
REMARK   23  A    between atoms: N_37  and  C_92
REMARK   24  A    between atoms: N_38  and  C_94
REMARK   25  A    between atoms: N_39  and  C_98
REMARK   26  A    between atoms: N_40  and  C_99
REMARK   27  A    between atoms: C_50  and  C_64
REMARK   28  A    between atoms: C_51  and  C_65
REMARK   29  A    between atoms: C_52  and  C_66
REMARK   30  A    between atoms: C_53  and  C_67
REMARK   31  A    between atoms: C_58  and  C_68
REMARK   32  A    between atoms: C_60  and  C_71
REMARK   33  A    between atoms: C_64  and  C_69
REMARK   34  A    between atoms: C_65  and  C_70
REMARK   35  A    between atoms: C_66  and  C_72
REMARK   36  A    between atoms: C_67  and  C_73
REMARK   37  A    between atoms: C_80  and  C_84
REMARK   38  A    between atoms: C_81  and  C_85
REMARK   39  A    between atoms: C_96  and  C_98
REMARK   40  A    between atoms: C_97  and  C_99
REMARK   41  A    between atoms: C_102  and  C_103
REMARK   42  A    between atoms: C_102  and  C_104
REMARK                            x       y       z     vdW  Elec       q    Type
REMARK                         _______ _______ _______ _____ _____    ______ ____
ROOT
ATOM      1  N   UNL     1       1.504  -3.982   0.000  0.00  0.00    +0.000 NA
ATOM      2  C   UNL     1       1.020  -3.314   0.000  0.00  0.00    +0.000 C 
ENDROOT
BRANCH   2   3
ATOM      3  C   UNL     1       1.355  -2.561   0.000  0.00  0.00    +0.000 C 
BRANCH   3   4
ATOM      4  O   UNL     1       2.176  -2.474   0.000  0.00  0.00    +0.000 OA
BRANCH   4   7
ATOM      5  O   UNL     1       2.026  -1.053   0.000  0.00  0.00    +0.000 OA
ATOM      6  N   UNL     1       3.332  -1.634   0.000  0.00  0.00    +0.000 NA
ATOM      7  C   UNL     1       2.511  -1.721   0.000  0.00  0.00    +0.000 C 
BRANCH   6   8
ATOM      8  C   UNL     1       3.667  -0.881   0.000  0.00  0.00    +0.000 C 
BRANCH   8   9
ATOM      9  C   UNL     1       4.488  -0.794   0.000  0.00  0.00    +0.000 C 
BRANCH   9  10
ATOM     10  N   UNL     1       4.823  -0.041   0.000  0.00  0.00    +0.000 NA
BRANCH  10  14
ATOM     11  O   UNL     1       7.625   0.254   0.000  0.00  0.00    +0.000 OA
ATOM     12  O   UNL     1       6.371  -1.294   0.000  0.00  0.00    +0.000 OA
ATOM     13  C   UNL     1       6.163   0.686   0.000  0.00  0.00    +0.000 C 
ATOM     14  C   UNL     1       5.644   0.045   0.000  0.00  0.00    +0.000 C 
ATOM     15  C   UNL     1       6.804   0.167   0.000  0.00  0.00    +0.000 C 
ATOM     16  C   UNL     1       6.285  -0.474   0.000  0.00  0.00    +0.000 C 
BRANCH  13  17
ATOM     17  N   UNL     1       6.077   1.507   0.000  0.00  0.00    +0.000 NA
BRANCH  17  18
ATOM     18  C   UNL     1       6.744   1.992   0.000  0.00  0.00    +0.000 C 
BRANCH  18  19
ATOM     19  C   UNL     1       6.658   2.812   0.000  0.00  0.00    +0.000 C 
BRANCH  19  20
ATOM     20  C   UNL     1       7.325   3.297   0.000  0.00  0.00    +0.000 C 
BRANCH  20  21
ATOM     21  N   UNL     1       7.239   4.118   0.000  0.00  0.00    +0.000 NA
ATOM     22  N   UNL     1       7.067   5.758   0.000  0.00  0.00    +0.000 NA
ATOM     23  C   UNL     1       6.485   4.453   0.000  0.00  0.00    +0.000 C 
ATOM     24  C   UNL     1       7.907   4.603   0.000  0.00  0.00    +0.000 C 
ATOM     25  C   UNL     1       6.399   5.274   0.000  0.00  0.00    +0.000 C 
ATOM     26  C   UNL     1       7.820   5.423   0.000  0.00  0.00    +0.000 C 
BRANCH  22  27
ATOM     27  C   UNL     1       6.980   6.579   0.000  0.00  0.00    +0.000 C 
BRANCH  27  28
ATOM     28  C   UNL     1       7.648   7.064   0.000  0.00  0.00    +0.000 C 
BRANCH  28  29
ATOM     29  C   UNL     1       7.562   7.885   0.000  0.00  0.00    +0.000 C 
BRANCH  29  31
ATOM     30  O   UNL     1       7.389   9.525   0.000  0.00  0.00    +0.000 OA
ATOM     31  N   UNL     1       8.229   8.369   0.000  0.00  0.00    +0.000 NA
ATOM     32  C   UNL     1       8.143   9.190   0.000  0.00  0.00    +0.000 C 
BRANCH  32  35
ATOM     33  C   UNL     1      10.231   9.824   0.000  0.00  0.00    +0.000 A 
ATOM     34  C   UNL     1       9.564   9.339   0.000  0.00  0.00    +0.000 A 
ATOM     35  C   UNL     1       8.810   9.675   0.000  0.00  0.00    +0.000 A 
ATOM     36  C   UNL     1      10.145  10.645   0.000  0.00  0.00    +0.000 A 
ATOM     37  C   UNL     1       9.391  10.980   0.000  0.00  0.00    +0.000 A 
ATOM     38  C   UNL     1       8.724  10.495   0.000  0.00  0.00    +0.000 A 
BRANCH  37  41
ATOM     39  O   UNL     1       8.552  12.136   0.000  0.00  0.00    +0.000 OA
ATOM     40  O   UNL     1       9.973  12.286   0.000  0.00  0.00    +0.000 OA
ATOM     41  N   UNL     1       9.305  11.801   0.000  0.00  0.00    +0.000 N 
ENDBRANCH  37  41
BRANCH  33  42
ATOM     42  O   UNL     1      10.985   9.489   0.000  0.00  0.00    +0.000 OA
BRANCH  42  51
ATOM     43  O   UNL     1      11.566  10.794   0.000  0.00  0.00    +0.000 OA
ATOM     44  O   UNL     1      13.655  11.428   0.000  0.00  0.00    +0.000 OA
ATOM     45  O   UNL     1      13.827   9.787   0.000  0.00  0.00    +0.000 OA
ATOM     46  O   UNL     1      12.492   8.818   0.000  0.00  0.00    +0.000 OA
ATOM     47  C   UNL     1      12.987  10.943   0.000  0.00  0.00    +0.000 C 
ATOM     48  C   UNL     1      13.074  10.123   0.000  0.00  0.00    +0.000 C 
ATOM     49  C   UNL     1      12.234  11.279   0.000  0.00  0.00    +0.000 C 
ATOM     50  C   UNL     1      12.406   9.638   0.000  0.00  0.00    +0.000 C 
ATOM     51  C   UNL     1      11.652   9.974   0.000  0.00  0.00    +0.000 C 
BRANCH  49  53
ATOM     52  O   UNL     1      12.815  12.584   0.000  0.00  0.00    +0.000 OA
ATOM     53  C   UNL     1      12.147  12.099   0.000  0.00  0.00    +0.000 C 
ENDBRANCH  49  53
ENDBRANCH  42  51
ENDBRANCH  33  42
ENDBRANCH  32  35
ENDBRANCH  29  31
ENDBRANCH  28  29
ENDBRANCH  27  28
ENDBRANCH  22  27
ENDBRANCH  20  21
ENDBRANCH  19  20
ENDBRANCH  18  19
ENDBRANCH  17  18
ENDBRANCH  13  17
ENDBRANCH  10  14
ENDBRANCH   9  10
ENDBRANCH   8   9
ENDBRANCH   6   8
ENDBRANCH   4   7
ENDBRANCH   3   4
ENDBRANCH   2   3
BRANCH   2  54
ATOM     54  C   UNL     1       0.199  -3.400   0.000  0.00  0.00    +0.000 C 
BRANCH  54  55
ATOM     55  O   UNL     1      -0.286  -2.733   0.000  0.00  0.00    +0.000 OA
BRANCH  55  58
ATOM     56  O   UNL     1      -1.442  -3.573   0.000  0.00  0.00    +0.000 OA
ATOM     57  N   UNL     1      -1.591  -2.152   0.000  0.00  0.00    +0.000 NA
ATOM     58  C   UNL     1      -1.106  -2.819   0.000  0.00  0.00    +0.000 C 
BRANCH  57  59
ATOM     59  C   UNL     1      -2.412  -2.238   0.000  0.00  0.00    +0.000 C 
BRANCH  59  60
ATOM     60  C   UNL     1      -2.896  -1.571   0.000  0.00  0.00    +0.000 C 
BRANCH  60  61
ATOM     61  N   UNL     1      -3.717  -1.657   0.000  0.00  0.00    +0.000 NA
BRANCH  61  65
ATOM     62  O   UNL     1      -5.373   0.622   0.000  0.00  0.00    +0.000 OA
ATOM     63  O   UNL     1      -3.405   0.310   0.000  0.00  0.00    +0.000 OA
ATOM     64  C   UNL     1      -5.017  -0.860   0.000  0.00  0.00    +0.000 C 
ATOM     65  C   UNL     1      -4.202  -0.990   0.000  0.00  0.00    +0.000 C 
ATOM     66  C   UNL     1      -4.888  -0.046   0.000  0.00  0.00    +0.000 C 
ATOM     67  C   UNL     1      -4.073  -0.175   0.000  0.00  0.00    +0.000 C 
BRANCH  64  68
ATOM     68  N   UNL     1      -5.684  -1.345   0.000  0.00  0.00    +0.000 NA
BRANCH  68  69
ATOM     69  C   UNL     1      -5.598  -2.166   0.000  0.00  0.00    +0.000 C 
BRANCH  69  70
ATOM     70  C   UNL     1      -6.265  -2.651   0.000  0.00  0.00    +0.000 C 
BRANCH  70  71
ATOM     71  C   UNL     1      -6.179  -3.471   0.000  0.00  0.00    +0.000 C 
BRANCH  71  72
ATOM     72  N   UNL     1      -6.847  -3.956   0.000  0.00  0.00    +0.000 NA
ATOM     73  N   UNL     1      -8.181  -4.926   0.000  0.00  0.00    +0.000 NA
ATOM     74  C   UNL     1      -7.600  -3.621   0.000  0.00  0.00    +0.000 C 
ATOM     75  C   UNL     1      -6.760  -4.777   0.000  0.00  0.00    +0.000 C 
ATOM     76  C   UNL     1      -8.268  -4.106   0.000  0.00  0.00    +0.000 C 
ATOM     77  C   UNL     1      -7.428  -5.262   0.000  0.00  0.00    +0.000 C 
BRANCH  73  78
ATOM     78  C   UNL     1      -8.849  -5.411   0.000  0.00  0.00    +0.000 C 
BRANCH  78  79
ATOM     79  C   UNL     1      -8.763  -6.231   0.000  0.00  0.00    +0.000 C 
BRANCH  79  80
ATOM     80  C   UNL     1      -9.430  -6.716   0.000  0.00  0.00    +0.000 C 
BRANCH  80  82
ATOM     81  O   UNL     1     -10.765  -7.686   0.000  0.00  0.00    +0.000 OA
ATOM     82  N   UNL     1      -9.344  -7.537   0.000  0.00  0.00    +0.000 NA
ATOM     83  C   UNL     1     -10.011  -8.022   0.000  0.00  0.00    +0.000 C 
BRANCH  83  86
ATOM     84  C   UNL     1     -10.506 -10.148   0.000  0.00  0.00    +0.000 A 
ATOM     85  C   UNL     1     -10.592  -9.327   0.000  0.00  0.00    +0.000 A 
ATOM     86  C   UNL     1      -9.925  -8.842   0.000  0.00  0.00    +0.000 A 
ATOM     87  C   UNL     1      -9.753 -10.483   0.000  0.00  0.00    +0.000 A 
ATOM     88  C   UNL     1      -9.085  -9.998   0.000  0.00  0.00    +0.000 A 
ATOM     89  C   UNL     1      -9.171  -9.178   0.000  0.00  0.00    +0.000 A 
BRANCH  88  92
ATOM     90  O   UNL     1      -7.664  -9.849   0.000  0.00  0.00    +0.000 OA
ATOM     91  O   UNL     1      -8.245 -11.154   0.000  0.00  0.00    +0.000 OA
ATOM     92  N   UNL     1      -8.332 -10.334   0.000  0.00  0.00    +0.000 N 
ENDBRANCH  88  92
BRANCH  84  93
ATOM     93  O   UNL     1     -11.174 -10.632   0.000  0.00  0.00    +0.000 OA
BRANCH  93 102
ATOM     94  O   UNL     1     -12.014  -9.476   0.000  0.00  0.00    +0.000 OA
ATOM     95  O   UNL     1     -14.188  -9.290   0.000  0.00  0.00    +0.000 OA
ATOM     96  O   UNL     1     -14.016 -10.931   0.000  0.00  0.00    +0.000 OA
ATOM     97  O   UNL     1     -12.509 -11.602   0.000  0.00  0.00    +0.000 OA
ATOM     98  C   UNL     1     -13.435  -9.626   0.000  0.00  0.00    +0.000 C 
ATOM     99  C   UNL     1     -13.348 -10.446   0.000  0.00  0.00    +0.000 C 
ATOM    100  C   UNL     1     -12.767  -9.141   0.000  0.00  0.00    +0.000 C 
ATOM    101  C   UNL     1     -12.595 -10.782   0.000  0.00  0.00    +0.000 C 
ATOM    102  C   UNL     1     -11.927 -10.297   0.000  0.00  0.00    +0.000 C 
BRANCH 100 104
ATOM    103  O   UNL     1     -13.607  -7.985   0.000  0.00  0.00    +0.000 OA
ATOM    104  C   UNL     1     -12.854  -8.320   0.000  0.00  0.00    +0.000 C 
ENDBRANCH 100 104
ENDBRANCH  93 102
ENDBRANCH  84  93
ENDBRANCH  83  86
ENDBRANCH  80  82
ENDBRANCH  79  80
ENDBRANCH  78  79
ENDBRANCH  73  78
ENDBRANCH  71  72
ENDBRANCH  70  71
ENDBRANCH  69  70
ENDBRANCH  68  69
ENDBRANCH  64  68
ENDBRANCH  61  65
ENDBRANCH  60  61
ENDBRANCH  59  60
ENDBRANCH  57  59
ENDBRANCH  55  58
ENDBRANCH  54  55
ENDBRANCH   2  54
TORSDOF 42
