REMARK  Name = 
REMARK  16 active torsions:
REMARK  status: ('A' for Active; 'I' for Inactive)
REMARK    1  A    between atoms: O_3  and  C_28
REMARK    2  A    between atoms: O_3  and  C_32
REMARK    3  A    between atoms: O_4  and  C_29
REMARK    4  A    between atoms: O_4  and  C_33
REMARK    5  A    between atoms: N_15  and  C_36
REMARK    6  A    between atoms: N_16  and  C_37
REMARK    7  A    between atoms: N_17  and  C_46
REMARK    8  A    between atoms: C_26  and  C_30
REMARK    9  A    between atoms: C_27  and  C_31
REMARK   10  A    between atoms: C_32  and  C_34
REMARK   11  A    between atoms: C_33  and  C_35
REMARK   12  A    between atoms: C_34  and  C_36
REMARK   13  A    between atoms: C_35  and  C_37
REMARK   14  A    between atoms: C_38  and  C_40
REMARK   15  A    between atoms: C_39  and  C_41
REMARK   16  A    between atoms: C_45  and  C_46
REMARK                            x       y       z     vdW  Elec       q    Type
REMARK                         _______ _______ _______ _____ _____    ______ ____
ROOT
ATOM      1  C   UNL     1      -0.714  -0.825   0.000  0.00  0.00    +0.000 A 
ATOM      2  C   UNL     1       0.714  -0.825   0.000  0.00  0.00    +0.000 A 
ATOM      3  C   UNL     1       0.000  -0.412   0.000  0.00  0.00    +0.000 A 
ATOM      4  C   UNL     1      -0.715  -1.650   0.000  0.00  0.00    +0.000 A 
ATOM      5  C   UNL     1       0.715  -1.650   0.000  0.00  0.00    +0.000 A 
ATOM      6  C   UNL     1       0.000  -2.062   0.000  0.00  0.00    +0.000 A 
ENDROOT
BRANCH   2   9
ATOM      7  O   UNL     1       1.429   0.412   0.000  0.00  0.00    +0.000 OA
ATOM      8  N   UNL     1       2.143  -0.825   0.000  0.00  0.00    +0.000 N 
ATOM      9  C   UNL     1       1.429  -0.412   0.000  0.00  0.00    +0.000 C 
ATOM     10  H   UNL     1       2.143  -1.337   0.000  0.00  0.00    +0.000 HD
BRANCH   8  11
ATOM     11  C   UNL     1       2.858  -0.412   0.000  0.00  0.00    +0.000 C 
BRANCH  11  12
ATOM     12  C   UNL     1       3.572  -0.825   0.000  0.00  0.00    +0.000 C 
BRANCH  12  13
ATOM     13  C   UNL     1       4.287  -0.412   0.000  0.00  0.00    +0.000 C 
BRANCH  13  14
ATOM     14  O   UNL     1       5.001  -0.825   0.000  0.00  0.00    +0.000 OA
BRANCH  14  23
ATOM     15  O   UNL     1       5.716   0.412   0.000  0.00  0.00    +0.000 OA
ATOM     16  O   UNL     1       7.859  -0.825   0.000  0.00  0.00    +0.000 OA
ATOM     17  O   UNL     1       7.859   0.825   0.000  0.00  0.00    +0.000 OA
ATOM     18  O   UNL     1       6.430  -1.650   0.000  0.00  0.00    +0.000 OA
ATOM     19  C   UNL     1       7.145  -0.412   0.000  0.00  0.00    +0.000 C 
ATOM     20  C   UNL     1       7.145   0.412   0.000  0.00  0.00    +0.000 C 
ATOM     21  C   UNL     1       6.430  -0.825   0.000  0.00  0.00    +0.000 C 
ATOM     22  C   UNL     1       6.430   0.825   0.000  0.00  0.00    +0.000 C 
ATOM     23  C   UNL     1       5.716  -0.412   0.000  0.00  0.00    +0.000 C 
BRANCH  22  25
ATOM     24  O   UNL     1       5.716   2.062   0.000  0.00  0.00    +0.000 OA
ATOM     25  C   UNL     1       6.430   1.650   0.000  0.00  0.00    +0.000 C 
ENDBRANCH  22  25
ENDBRANCH  14  23
ENDBRANCH  13  14
ENDBRANCH  12  13
ENDBRANCH  11  12
ENDBRANCH   8  11
ENDBRANCH   2   9
BRANCH   1  28
ATOM     26  O   UNL     1      -1.429   0.412   0.000  0.00  0.00    +0.000 OA
ATOM     27  N   UNL     1      -2.143  -0.825   0.000  0.00  0.00    +0.000 N 
ATOM     28  C   UNL     1      -1.429  -0.412   0.000  0.00  0.00    +0.000 C 
ATOM     29  H   UNL     1      -2.143  -1.337   0.000  0.00  0.00    +0.000 HD
BRANCH  27  30
ATOM     30  C   UNL     1      -2.858  -0.412   0.000  0.00  0.00    +0.000 C 
BRANCH  30  31
ATOM     31  C   UNL     1      -3.572  -0.825   0.000  0.00  0.00    +0.000 C 
BRANCH  31  32
ATOM     32  C   UNL     1      -4.287  -0.412   0.000  0.00  0.00    +0.000 C 
BRANCH  32  33
ATOM     33  O   UNL     1      -5.001  -0.825   0.000  0.00  0.00    +0.000 OA
BRANCH  33  42
ATOM     34  O   UNL     1      -5.716   0.412   0.000  0.00  0.00    +0.000 OA
ATOM     35  O   UNL     1      -7.859  -0.825   0.000  0.00  0.00    +0.000 OA
ATOM     36  O   UNL     1      -7.859   0.825   0.000  0.00  0.00    +0.000 OA
ATOM     37  O   UNL     1      -6.430  -1.650   0.000  0.00  0.00    +0.000 OA
ATOM     38  C   UNL     1      -7.145  -0.412   0.000  0.00  0.00    +0.000 C 
ATOM     39  C   UNL     1      -7.145   0.412   0.000  0.00  0.00    +0.000 C 
ATOM     40  C   UNL     1      -6.430  -0.825   0.000  0.00  0.00    +0.000 C 
ATOM     41  C   UNL     1      -6.430   0.825   0.000  0.00  0.00    +0.000 C 
ATOM     42  C   UNL     1      -5.716  -0.412   0.000  0.00  0.00    +0.000 C 
BRANCH  41  44
ATOM     43  O   UNL     1      -5.716   2.062   0.000  0.00  0.00    +0.000 OA
ATOM     44  C   UNL     1      -6.430   1.650   0.000  0.00  0.00    +0.000 C 
ENDBRANCH  41  44
ENDBRANCH  33  42
ENDBRANCH  32  33
ENDBRANCH  31  32
ENDBRANCH  30  31
ENDBRANCH  27  30
ENDBRANCH   1  28
BRANCH   6  45
ATOM     45  C   UNL     1       0.000  -2.888   0.000  0.00  0.00    +0.000 C 
BRANCH  45  46
ATOM     46  N   UNL     1       0.714  -3.300   0.000  0.00  0.00    +0.000 NA
ATOM     47  N   UNL     1       0.714  -4.125   0.000  0.00  0.00    +0.000 NA
ATOM     48  N   UNL     1       0.715  -4.950   0.000  0.00  0.00    +0.000 NA
ENDBRANCH  45  46
ENDBRANCH   6  45
TORSDOF 16
