REMARK  Name = 
REMARK  7 active torsions:
REMARK  status: ('A' for Active; 'I' for Inactive)
REMARK    1  A    between atoms: C_2  and  C_5
REMARK    2  A    between atoms: C_5  and  C_6
REMARK    3  A    between atoms: C_5  and  C_31
REMARK    4  A    between atoms: C_5  and  C_35
REMARK    5  A    between atoms: C_8  and  C_27
REMARK    6  A    between atoms: C_9  and  N_10
REMARK    7  A    between atoms: C_11  and  C_13
REMARK                            x       y       z     vdW  Elec       q    Type
REMARK                         _______ _______ _______ _____ _____    ______ ____
ROOT
ATOM      1  C   UNL     1      -3.572   2.062   0.000  0.00  0.00    +0.000 A 
ATOM      2  C   UNL     1      -2.858   2.475   0.000  0.00  0.00    +0.000 A 
ATOM      3  C   UNL     1      -2.143   2.062   0.000  0.00  0.00    +0.000 A 
ATOM      4  C   UNL     1      -2.143   1.238   0.000  0.00  0.00    +0.000 A 
ATOM      5  C   UNL     1      -2.858   0.825   0.000  0.00  0.00    +0.000 A 
ATOM      6  C   UNL     1      -3.572   1.238   0.000  0.00  0.00    +0.000 A 
ATOM      7  O   UNL     1      -4.287   0.825   0.000  0.00  0.00    +0.000 OA
ENDROOT
BRANCH   3   8
ATOM      8  C   UNL     1      -1.429   2.475   0.000  0.00  0.00    +0.000 C 
ATOM      9  C   UNL     1      -0.715   2.888   0.000  0.00  0.00    +0.000 C 
ATOM     10  C   UNL     1      -1.016   1.760   0.000  0.00  0.00    +0.000 C 
ATOM     11  C   UNL     1      -1.841   3.189   0.000  0.00  0.00    +0.000 C 
ENDBRANCH   3   8
BRANCH   4  12
ATOM     12  N   UNL     1      -1.429   0.825   0.000  0.00  0.00    +0.000 NA
ATOM     13  C   UNL     1      -1.429   0.000   0.000  0.00  0.00    +0.000 C 
ATOM     14  O   UNL     1      -2.143  -0.412   0.000  0.00  0.00    +0.000 OA
BRANCH  13  15
ATOM     15  C   UNL     1      -0.715  -0.412   0.000  0.00  0.00    +0.000 A 
ATOM     16  C   UNL     1      -0.715  -1.238   0.000  0.00  0.00    +0.000 A 
ATOM     17  N   UNL     1       0.000  -1.650   0.000  0.00  0.00    +0.000 NA
ATOM     18  C   UNL     1       0.715  -1.238   0.000  0.00  0.00    +0.000 A 
ATOM     19  C   UNL     1       0.715  -0.412   0.000  0.00  0.00    +0.000 A 
ATOM     20  C   UNL     1       1.429   0.000   0.000  0.00  0.00    +0.000 A 
ATOM     21  C   UNL     1       2.143  -0.412   0.000  0.00  0.00    +0.000 A 
ATOM     22  C   UNL     1       2.143  -1.238   0.000  0.00  0.00    +0.000 A 
ATOM     23  C   UNL     1       1.429  -1.650   0.000  0.00  0.00    +0.000 A 
ATOM     24  C   UNL     1       0.000   0.000   0.000  0.00  0.00    +0.000 A 
ATOM     25  O   UNL     1       0.000   0.825   0.000  0.00  0.00    +0.000 OA
ENDBRANCH  13  15
ENDBRANCH   4  12
BRANCH   1  26
ATOM     26  C   UNL     1      -4.287   2.475   0.000  0.00  0.00    +0.000 C 
BRANCH  26  28
ATOM     27  H   UNL     1      -4.589   3.602   0.000  0.00  0.00    +0.000 HD
ATOM     28  C   UNL     1      -5.001   2.888   0.000  0.00  0.00    +0.000 C 
ATOM     29  H   UNL     1      -5.716   3.300   0.000  0.00  0.00    +0.000 HD
ATOM     30  H   UNL     1      -5.414   2.173   0.000  0.00  0.00    +0.000 HD
ENDBRANCH  26  28
BRANCH  26  31
ATOM     31  C   UNL     1      -4.699   1.760   0.000  0.00  0.00    +0.000 C 
ATOM     32  H   UNL     1      -5.354   1.258   0.000  0.00  0.00    +0.000 HD
ATOM     33  H   UNL     1      -4.486   0.964   0.000  0.00  0.00    +0.000 HD
ATOM     34  H   UNL     1      -3.881   1.653   0.000  0.00  0.00    +0.000 HD
ENDBRANCH  26  31
BRANCH  26  35
ATOM     35  C   UNL     1      -3.874   3.189   0.000  0.00  0.00    +0.000 C 
ATOM     36  H   UNL     1      -3.372   2.535   0.000  0.00  0.00    +0.000 HD
ATOM     37  H   UNL     1      -3.077   3.403   0.000  0.00  0.00    +0.000 HD
ATOM     38  H   UNL     1      -3.767   4.007   0.000  0.00  0.00    +0.000 HD
ENDBRANCH  26  35
ENDBRANCH   1  26
TORSDOF 7
