REMARK  Name = 
REMARK  8 active torsions:
REMARK  status: ('A' for Active; 'I' for Inactive)
REMARK    1  A    between atoms: O_2  and  C_3
REMARK    2  A    between atoms: C_7  and  C_11
REMARK    3  A    between atoms: C_17  and  O_18
REMARK    4  A    between atoms: C_21  and  O_22
REMARK    5  A    between atoms: O_22  and  C_23
REMARK    6  A    between atoms: C_23  and  C_24
REMARK    7  A    between atoms: C_27  and  C_29
REMARK    8  A    between atoms: C_32  and  C_35
REMARK                            x       y       z     vdW  Elec       q    Type
REMARK                         _______ _______ _______ _____ _____    ______ ____
ROOT
ATOM      1  C   UNL     1      -0.628  -0.698   0.000  0.00  0.00    +0.000 A 
ATOM      2  C   UNL     1      -0.143  -1.365   0.000  0.00  0.00    +0.000 A 
ATOM      3  C   UNL     1       0.641  -1.110   0.000  0.00  0.00    +0.000 A 
ATOM      4  C   UNL     1       0.641  -0.285   0.000  0.00  0.00    +0.000 A 
ATOM      5  O   UNL     1      -0.143  -0.030   0.000  0.00  0.00    +0.000 OA
ATOM      6  C   UNL     1       1.356   0.127   0.000  0.00  0.00    +0.000 A 
ATOM      7  C   UNL     1       2.070  -0.285   0.000  0.00  0.00    +0.000 A 
ATOM      8  C   UNL     1       2.070  -1.110   0.000  0.00  0.00    +0.000 A 
ATOM      9  C   UNL     1       1.356  -1.523   0.000  0.00  0.00    +0.000 A 
ENDROOT
BRANCH   1  14
ATOM     10  C   UNL     1      -3.993  -0.698   0.000  0.00  0.00    +0.000 A 
ATOM     11  N   UNL     1      -3.508  -0.030   0.000  0.00  0.00    +0.000 NA
ATOM     12  N   UNL     1      -2.723  -0.285   0.000  0.00  0.00    +0.000 N 
ATOM     13  C   UNL     1      -1.938  -0.030   0.000  0.00  0.00    +0.000 A 
ATOM     14  C   UNL     1      -1.453  -0.698   0.000  0.00  0.00    +0.000 A 
ATOM     15  N   UNL     1      -1.938  -1.365   0.000  0.00  0.00    +0.000 NA
ATOM     16  C   UNL     1      -2.723  -1.110   0.000  0.00  0.00    +0.000 A 
ATOM     17  S   UNL     1      -3.508  -1.365   0.000  0.00  0.00    +0.000 S 
BRANCH  10  19
ATOM     18  C   UNL     1      -5.230  -1.412   0.000  0.00  0.00    +0.000 C 
ATOM     19  O   UNL     1      -4.817  -0.698   0.000  0.00  0.00    +0.000 OA
ENDBRANCH  10  19
ENDBRANCH   1  14
BRANCH   7  20
ATOM     20  O   UNL     1       2.784   0.127   0.000  0.00  0.00    +0.000 OA
ATOM     21  C   UNL     1       3.499  -0.285   0.000  0.00  0.00    +0.000 C 
ENDBRANCH   7  20
BRANCH   9  22
ATOM     22  O   UNL     1       1.356  -2.348   0.000  0.00  0.00    +0.000 OA
BRANCH  22  23
ATOM     23  C   UNL     1       0.641  -2.760   0.000  0.00  0.00    +0.000 C 
BRANCH  23  24
ATOM     24  C   UNL     1       0.641  -3.585   0.000  0.00  0.00    +0.000 A 
ATOM     25  C   UNL     1       1.309  -4.070   0.000  0.00  0.00    +0.000 A 
ATOM     26  S   UNL     1       1.054  -4.855   0.000  0.00  0.00    +0.000 S 
ATOM     27  C   UNL     1       0.229  -4.855   0.000  0.00  0.00    +0.000 A 
ATOM     28  N   UNL     1      -0.026  -4.070   0.000  0.00  0.00    +0.000 NA
BRANCH  27  29
ATOM     29  C   UNL     1      -0.256  -5.522   0.000  0.00  0.00    +0.000 A 
ATOM     30  C   UNL     1       0.079  -6.276   0.000  0.00  0.00    +0.000 A 
ATOM     31  C   UNL     1      -0.406  -6.944   0.000  0.00  0.00    +0.000 A 
ATOM     32  C   UNL     1      -1.226  -6.857   0.000  0.00  0.00    +0.000 A 
ATOM     33  C   UNL     1      -1.562  -6.104   0.000  0.00  0.00    +0.000 A 
ATOM     34  C   UNL     1      -1.077  -5.436   0.000  0.00  0.00    +0.000 A 
BRANCH  32  35
ATOM     35  C   UNL     1      -1.711  -7.525   0.000  0.00  0.00    +0.000 C 
ATOM     36  O   UNL     1      -2.532  -7.439   0.000  0.00  0.00    +0.000 OA
ATOM     37  N   UNL     1      -1.375  -8.278   0.000  0.00  0.00    +0.000 N 
ATOM     38  C   UNL     1      -0.555  -8.365   0.000  0.00  0.00    +0.000 C 
ATOM     39  C   UNL     1      -1.860  -8.946   0.000  0.00  0.00    +0.000 C 
ENDBRANCH  32  35
ENDBRANCH  27  29
ENDBRANCH  23  24
ENDBRANCH  22  23
ENDBRANCH   9  22
TORSDOF 8
