REMARK  Name = 
REMARK  7 active torsions:
REMARK  status: ('A' for Active; 'I' for Inactive)
REMARK    1  A    between atoms: C_10  and  C_15
REMARK    2  A    between atoms: C_10  and  C_16
REMARK    3  A    between atoms: C_15  and  N_20
REMARK    4  A    between atoms: C_16  and  O_21
REMARK    5  A    between atoms: C_17  and  C_18
REMARK    6  A    between atoms: C_17  and  C_19
REMARK    7  A    between atoms: C_19  and  O_21
REMARK                            x       y       z     vdW  Elec       q    Type
REMARK                         _______ _______ _______ _____ _____    ______ ____
ROOT
ATOM      1  C   UNL     1       9.947   2.923   0.000  0.00  0.00    +0.000 C 
ATOM      2  C   UNL     1       9.256   3.372   0.000  0.00  0.00    +0.000 C 
ATOM      3  C   UNL     1      10.028   2.102   0.000  0.00  0.00    +0.000 C 
ATOM      4  C   UNL     1       8.473   3.112   0.000  0.00  0.00    +0.000 C 
ATOM      5  C   UNL     1       9.435   1.527   0.000  0.00  0.00    +0.000 C 
ATOM      6  C   UNL     1       8.189   2.337   0.000  0.00  0.00    +0.000 C 
ATOM      7  C   UNL     1       8.617   1.632   0.000  0.00  0.00    +0.000 C 
ENDROOT
BRANCH   7   8
ATOM      8  C   UNL     1       8.531   0.811   0.000  0.00  0.00    +0.000 C 
BRANCH   8  14
ATOM      9  C   UNL     1      10.533  -0.643   0.000  0.00  0.00    +0.000 A 
ATOM     10  C   UNL     1      10.620   0.177   0.000  0.00  0.00    +0.000 A 
ATOM     11  C   UNL     1       9.780  -0.979   0.000  0.00  0.00    +0.000 A 
ATOM     12  C   UNL     1       9.952   0.662   0.000  0.00  0.00    +0.000 A 
ATOM     13  C   UNL     1       9.112  -0.494   0.000  0.00  0.00    +0.000 A 
ATOM     14  C   UNL     1       9.198   0.327   0.000  0.00  0.00    +0.000 A 
ENDBRANCH   8  14
ENDBRANCH   7   8
BRANCH   7  15
ATOM     15  O   UNL     1       7.903   1.220   0.000  0.00  0.00    +0.000 OA
BRANCH  15  16
ATOM     16  C   UNL     1       7.188   1.632   0.000  0.00  0.00    +0.000 C 
BRANCH  16  17
ATOM     17  C   UNL     1       6.474   1.220   0.000  0.00  0.00    +0.000 C 
BRANCH  17  18
ATOM     18  C   UNL     1       5.759   1.632   0.000  0.00  0.00    +0.000 C 
BRANCH  18  21
ATOM     19  C   UNL     1       4.330   1.632   0.000  0.00  0.00    +0.000 C 
ATOM     20  C   UNL     1       5.045   0.395   0.000  0.00  0.00    +0.000 C 
ATOM     21  N   UNL     1       5.045   1.220   0.000  0.00  0.00    +0.000 NA
ENDBRANCH  18  21
ENDBRANCH  17  18
ENDBRANCH  16  17
ENDBRANCH  15  16
ENDBRANCH   7  15
TORSDOF 7
