REMARK  Name = 
REMARK  4 active torsions:
REMARK  status: ('A' for Active; 'I' for Inactive)
REMARK    1  A    between atoms: C_5  and  C_6
REMARK    2  A    between atoms: C_5  and  C_11
REMARK    3  A    between atoms: C_11  and  C_15
REMARK    4  A    between atoms: C_14  and  C_15
REMARK                            x       y       z     vdW  Elec       q    Type
REMARK                         _______ _______ _______ _____ _____    ______ ____
ROOT
ATOM      1  C   UNL     1       1.540   2.062   0.000  0.00  0.00    +0.000 C 
ATOM      2  C   UNL     1       0.715   2.062   0.000  0.00  0.00    +0.000 C 
ATOM      3  O   UNL     1      -0.111   2.062   0.000  0.00  0.00    +0.000 OA
ENDROOT
BRANCH   2  10
ATOM      4  C   UNL     1       0.715  -1.238   0.000  0.00  0.00    +0.000 C 
ATOM      5  C   UNL     1       1.429   0.000   0.000  0.00  0.00    +0.000 C 
ATOM      6  C   UNL     1       0.000   0.000   0.000  0.00  0.00    +0.000 C 
ATOM      7  C   UNL     1       1.429   0.825   0.000  0.00  0.00    +0.000 C 
ATOM      8  C   UNL     1       0.000   0.825   0.000  0.00  0.00    +0.000 C 
ATOM      9  C   UNL     1       0.715  -0.412   0.000  0.00  0.00    +0.000 C 
ATOM     10  C   UNL     1       0.715   1.238   0.000  0.00  0.00    +0.000 C 
ENDBRANCH   2  10
BRANCH   2  11
ATOM     11  C   UNL     1       0.715   2.888   0.000  0.00  0.00    +0.000 C 
BRANCH  11  12
ATOM     12  C   UNL     1       0.000   3.300   0.000  0.00  0.00    +0.000 C 
BRANCH  12  15
ATOM     13  C   UNL     1       0.715   5.362   0.000  0.00  0.00    +0.000 C 
ATOM     14  C   UNL     1       1.429   4.125   0.000  0.00  0.00    +0.000 C 
ATOM     15  C   UNL     1       0.000   4.125   0.000  0.00  0.00    +0.000 C 
ATOM     16  C   UNL     1       0.715   4.537   0.000  0.00  0.00    +0.000 C 
ENDBRANCH  12  15
ENDBRANCH  11  12
ENDBRANCH   2  11
TORSDOF 4
