REMARK  Name = 
REMARK  9 active torsions:
REMARK  status: ('A' for Active; 'I' for Inactive)
REMARK    1  A    between atoms: C_2  and  N_3
REMARK    2  A    between atoms: N_6  and  C_9
REMARK    3  A    between atoms: C_12  and  N_13
REMARK    4  A    between atoms: N_13  and  C_14
REMARK    5  A    between atoms: N_24  and  C_25
REMARK    6  A    between atoms: C_28  and  O_29
REMARK    7  A    between atoms: C_32  and  O_33
REMARK    8  A    between atoms: C_37  and  N_38
REMARK    9  A    between atoms: C_39  and  C_41
REMARK                            x       y       z     vdW  Elec       q    Type
REMARK                         _______ _______ _______ _____ _____    ______ ____
ROOT
ATOM      1  C   UNL     1       5.716 -11.550   0.000  0.00  0.00    +0.000 A 
ATOM      2  C   UNL     1       5.716 -12.375   0.000  0.00  0.00    +0.000 A 
ATOM      3  C   UNL     1       5.001 -12.787   0.000  0.00  0.00    +0.000 A 
ATOM      4  N   UNL     1       4.287 -12.375   0.000  0.00  0.00    +0.000 NA
ATOM      5  C   UNL     1       4.287 -11.550   0.000  0.00  0.00    +0.000 A 
ATOM      6  N   UNL     1       5.001 -11.137   0.000  0.00  0.00    +0.000 NA
ATOM      7  N   UNL     1       5.001 -13.613   0.000  0.00  0.00    +0.000 N 
ATOM      8  C   UNL     1       5.716 -14.025   0.000  0.00  0.00    +0.000 C 
ATOM      9  C   UNL     1       4.287 -14.025   0.000  0.00  0.00    +0.000 C 
ATOM     10  O   UNL     1       3.572 -13.613   0.000  0.00  0.00    +0.000 OA
ATOM     11  N   UNL     1       4.287 -14.850   0.000  0.00  0.00    +0.000 NA
ENDROOT
BRANCH  11  12
ATOM     12  C   UNL     1       3.572 -15.262   0.000  0.00  0.00    +0.000 A 
ATOM     13  C   UNL     1       3.572 -16.087   0.000  0.00  0.00    +0.000 A 
ATOM     14 CL   UNL     1       4.287 -16.500   0.000  0.00  0.00    +0.000 Cl
ATOM     15  C   UNL     1       2.858 -16.500   0.000  0.00  0.00    +0.000 A 
ATOM     16  C   UNL     1       2.143 -16.087   0.000  0.00  0.00    +0.000 A 
ATOM     17  C   UNL     1       2.143 -15.262   0.000  0.00  0.00    +0.000 A 
ATOM     18  C   UNL     1       2.858 -14.850   0.000  0.00  0.00    +0.000 A 
ATOM     19 CL   UNL     1       2.858 -14.025   0.000  0.00  0.00    +0.000 Cl
BRANCH  15  20
ATOM     20  O   UNL     1       2.858 -17.325   0.000  0.00  0.00    +0.000 OA
ATOM     21  C   UNL     1       3.572 -17.738   0.000  0.00  0.00    +0.000 C 
ENDBRANCH  15  20
BRANCH  17  22
ATOM     22  O   UNL     1       1.429 -14.850   0.000  0.00  0.00    +0.000 OA
ATOM     23  C   UNL     1       1.429 -14.025   0.000  0.00  0.00    +0.000 C 
ENDBRANCH  17  22
ENDBRANCH  11  12
BRANCH   1  24
ATOM     24  N   UNL     1       6.430 -11.137   0.000  0.00  0.00    +0.000 NA
BRANCH  24  28
ATOM     25  C   UNL     1       6.430  -8.662   0.000  0.00  0.00    +0.000 A 
ATOM     26  C   UNL     1       7.145  -9.075   0.000  0.00  0.00    +0.000 A 
ATOM     27  C   UNL     1       7.145  -9.900   0.000  0.00  0.00    +0.000 A 
ATOM     28  C   UNL     1       6.430 -10.312   0.000  0.00  0.00    +0.000 A 
ATOM     29  C   UNL     1       5.716  -9.900   0.000  0.00  0.00    +0.000 A 
ATOM     30  C   UNL     1       5.716  -9.075   0.000  0.00  0.00    +0.000 A 
BRANCH  25  34
ATOM     31  N   UNL     1       6.430  -6.188   0.000  0.00  0.00    +0.000 NA
ATOM     32  C   UNL     1       7.145  -6.600   0.000  0.00  0.00    +0.000 C 
ATOM     33  C   UNL     1       7.145  -7.425   0.000  0.00  0.00    +0.000 C 
ATOM     34  N   UNL     1       6.430  -7.838   0.000  0.00  0.00    +0.000 N 
ATOM     35  C   UNL     1       5.716  -7.425   0.000  0.00  0.00    +0.000 C 
ATOM     36  C   UNL     1       5.716  -6.600   0.000  0.00  0.00    +0.000 C 
BRANCH  31  38
ATOM     37  C   UNL     1       5.716  -4.950   0.000  0.00  0.00    +0.000 C 
ATOM     38  C   UNL     1       6.430  -5.362   0.000  0.00  0.00    +0.000 C 
ENDBRANCH  31  38
ENDBRANCH  25  34
BRANCH  29  39
ATOM     39  N   UNL     1       5.001 -10.312   0.000  0.00  0.00    +0.000 NA
ATOM     40  C   UNL     1       4.287  -9.900   0.000  0.00  0.00    +0.000 C 
ATOM     41  O   UNL     1       4.287  -9.075   0.000  0.00  0.00    +0.000 OA
BRANCH  40  42
ATOM     42  C   UNL     1       3.572 -10.312   0.000  0.00  0.00    +0.000 C 
ATOM     43  C   UNL     1       2.858  -9.900   0.000  0.00  0.00    +0.000 C 
ENDBRANCH  40  42
ENDBRANCH  29  39
ENDBRANCH  24  28
ENDBRANCH   1  24
TORSDOF 9
