REMARK  Name = 
REMARK  10 active torsions:
REMARK  status: ('A' for Active; 'I' for Inactive)
REMARK    1  A    between atoms: N_3  and  C_16
REMARK    2  A    between atoms: N_6  and  C_7
REMARK    3  A    between atoms: C_7  and  C_8
REMARK    4  A    between atoms: C_8  and  C_9
REMARK    5  A    between atoms: C_9  and  C_10
REMARK    6  A    between atoms: C_16  and  C_17
REMARK    7  A    between atoms: C_17  and  O_18
REMARK    8  A    between atoms: O_18  and  C_19
REMARK    9  A    between atoms: C_19  and  C_20
REMARK   10  A    between atoms: C_19  and  C_27
REMARK                            x       y       z     vdW  Elec       q    Type
REMARK                         _______ _______ _______ _____ _____    ______ ____
ROOT
ATOM      1  C   UNL     1      -2.143  -2.888   0.000  0.00  0.00    +0.000 C 
ENDROOT
BRANCH   1   2
ATOM      2  O   UNL     1      -2.143  -3.712   0.000  0.00  0.00    +0.000 OA
BRANCH   2   3
ATOM      3  C   UNL     1      -1.429  -4.125   0.000  0.00  0.00    +0.000 C 
BRANCH   3   4
ATOM      4  C   UNL     1      -0.715  -3.712   0.000  0.00  0.00    +0.000 A 
ATOM      5  C   UNL     1      -0.715  -2.888   0.000  0.00  0.00    +0.000 A 
ATOM      6  C   UNL     1       0.000  -2.475   0.000  0.00  0.00    +0.000 A 
ATOM      7  C   UNL     1       0.715  -2.888   0.000  0.00  0.00    +0.000 A 
ATOM      8  C   UNL     1       0.715  -3.712   0.000  0.00  0.00    +0.000 A 
ATOM      9  C   UNL     1       0.000  -4.125   0.000  0.00  0.00    +0.000 A 
ATOM     10  F   UNL     1       1.429  -2.475   0.000  0.00  0.00    +0.000 F 
ENDBRANCH   3   4
BRANCH   3  11
ATOM     11  C   UNL     1      -1.429  -4.950   0.000  0.00  0.00    +0.000 A 
ATOM     12  C   UNL     1      -0.715  -5.362   0.000  0.00  0.00    +0.000 A 
ATOM     13  C   UNL     1      -0.715  -6.188   0.000  0.00  0.00    +0.000 A 
ATOM     14  C   UNL     1      -1.429  -6.600   0.000  0.00  0.00    +0.000 A 
ATOM     15  C   UNL     1      -2.143  -6.188   0.000  0.00  0.00    +0.000 A 
ATOM     16  C   UNL     1      -2.143  -5.362   0.000  0.00  0.00    +0.000 A 
ATOM     17  F   UNL     1      -1.429  -7.425   0.000  0.00  0.00    +0.000 F 
ENDBRANCH   3  11
ENDBRANCH   2   3
ENDBRANCH   1   2
BRANCH   1  18
ATOM     18  C   UNL     1      -2.858  -2.475   0.000  0.00  0.00    +0.000 C 
BRANCH  18  21
ATOM     19  C   UNL     1      -2.143  -0.412   0.000  0.00  0.00    +0.000 C 
ATOM     20  C   UNL     1      -2.143  -1.238   0.000  0.00  0.00    +0.000 C 
ATOM     21  N   UNL     1      -2.858  -1.650   0.000  0.00  0.00    +0.000 NA
ATOM     22  C   UNL     1      -3.572  -1.238   0.000  0.00  0.00    +0.000 C 
ATOM     23  C   UNL     1      -3.572  -0.412   0.000  0.00  0.00    +0.000 C 
ATOM     24  N   UNL     1      -2.858   0.000   0.000  0.00  0.00    +0.000 NA
BRANCH  24  25
ATOM     25  C   UNL     1      -2.858   0.825   0.000  0.00  0.00    +0.000 C 
BRANCH  25  26
ATOM     26  C   UNL     1      -3.572   1.238   0.000  0.00  0.00    +0.000 C 
BRANCH  26  27
ATOM     27  C   UNL     1      -3.572   2.062   0.000  0.00  0.00    +0.000 C 
BRANCH  27  28
ATOM     28  C   UNL     1      -4.287   2.475   0.000  0.00  0.00    +0.000 A 
ATOM     29  C   UNL     1      -5.001   2.062   0.000  0.00  0.00    +0.000 A 
ATOM     30  C   UNL     1      -5.716   2.475   0.000  0.00  0.00    +0.000 A 
ATOM     31  C   UNL     1      -5.716   3.300   0.000  0.00  0.00    +0.000 A 
ATOM     32  C   UNL     1      -5.001   3.712   0.000  0.00  0.00    +0.000 A 
ATOM     33  C   UNL     1      -4.287   3.300   0.000  0.00  0.00    +0.000 A 
ENDBRANCH  27  28
ENDBRANCH  26  27
ENDBRANCH  25  26
ENDBRANCH  24  25
ENDBRANCH  18  21
ENDBRANCH   1  18
TORSDOF 10
