REMARK  Name = 
REMARK  9 active torsions:
REMARK  status: ('A' for Active; 'I' for Inactive)
REMARK    1  A    between atoms: C_2  and  C_5
REMARK    2  A    between atoms: C_5  and  C_6
REMARK    3  A    between atoms: C_7  and  C_33
REMARK    4  A    between atoms: C_7  and  C_35
REMARK    5  A    between atoms: C_8  and  C_25
REMARK    6  A    between atoms: C_9  and  C_11
REMARK    7  A    between atoms: N_13  and  C_14
REMARK    8  A    between atoms: C_17  and  C_22
REMARK    9  A    between atoms: C_19  and  O_20
REMARK                            x       y       z     vdW  Elec       q    Type
REMARK                         _______ _______ _______ _____ _____    ______ ____
ROOT
ATOM      1  C   UNL     1       0.392  -1.632   0.000  0.00  0.00    +0.000 C 
ATOM      2  C   UNL     1       1.059  -1.147   0.000  0.00  0.00    +0.000 C 
ATOM      3  C   UNL     1       1.726  -1.632   0.000  0.00  0.00    +0.000 C 
ATOM      4  C   UNL     1       1.472  -2.417   0.000  0.00  0.00    +0.000 C 
ATOM      5  N   UNL     1       0.646  -2.417   0.000  0.00  0.00    +0.000 NA
ENDROOT
BRANCH   2   6
ATOM      6  C   UNL     1       1.464  -0.428   0.000  0.00  0.00    +0.000 A 
ATOM      7  C   UNL     1       1.044   0.282   0.000  0.00  0.00    +0.000 A 
ATOM      8  C   UNL     1       1.449   1.000   0.000  0.00  0.00    +0.000 A 
ATOM      9  C   UNL     1       2.274   1.009   0.000  0.00  0.00    +0.000 A 
ATOM     10  C   UNL     1       2.694   0.299   0.000  0.00  0.00    +0.000 A 
ATOM     11  C   UNL     1       2.289  -0.420   0.000  0.00  0.00    +0.000 A 
ATOM     12  F   UNL     1       3.094  -0.240   0.000  0.00  0.00    +0.000 F 
ATOM     13 CL   UNL     1       2.679   1.728   0.000  0.00  0.00    +0.000 Cl
ENDBRANCH   2   6
BRANCH   3  14
ATOM     14  C   UNL     1       2.511  -1.377   0.000  0.00  0.00    +0.000 A 
ATOM     15  C   UNL     1       2.683  -0.570   0.000  0.00  0.00    +0.000 A 
ATOM     16  C   UNL     1       3.467  -0.315   0.000  0.00  0.00    +0.000 A 
ATOM     17  C   UNL     1       4.080  -0.867   0.000  0.00  0.00    +0.000 A 
ATOM     18  C   UNL     1       3.909  -1.674   0.000  0.00  0.00    +0.000 A 
ATOM     19  C   UNL     1       3.124  -1.929   0.000  0.00  0.00    +0.000 A 
ATOM     20  F   UNL     1       2.953  -2.736   0.000  0.00  0.00    +0.000 F 
ATOM     21 CL   UNL     1       4.522  -2.226   0.000  0.00  0.00    +0.000 Cl
ENDBRANCH   3  14
BRANCH   4  22
ATOM     22  C   UNL     1       1.956  -3.084   0.000  0.00  0.00    +0.000 C 
ATOM     23  O   UNL     1       2.777  -2.998   0.000  0.00  0.00    +0.000 OA
ATOM     24  N   UNL     1       1.621  -3.838   0.000  0.00  0.00    +0.000 NA
BRANCH  24  25
ATOM     25  C   UNL     1       2.106  -4.505   0.000  0.00  0.00    +0.000 A 
ATOM     26  C   UNL     1       2.926  -4.419   0.000  0.00  0.00    +0.000 A 
ATOM     27  C   UNL     1       3.411  -5.086   0.000  0.00  0.00    +0.000 A 
ATOM     28  C   UNL     1       3.076  -5.840   0.000  0.00  0.00    +0.000 A 
ATOM     29  C   UNL     1       2.255  -5.926   0.000  0.00  0.00    +0.000 A 
ATOM     30  C   UNL     1       1.770  -5.259   0.000  0.00  0.00    +0.000 A 
BRANCH  28  31
ATOM     31  C   UNL     1       3.561  -6.508   0.000  0.00  0.00    +0.000 C 
ATOM     32  O   UNL     1       3.225  -7.261   0.000  0.00  0.00    +0.000 OA
ATOM     33  O   UNL     1       4.381  -6.421   0.000  0.00  0.00    +0.000 OA
ENDBRANCH  28  31
BRANCH  30  34
ATOM     34  O   UNL     1       0.950  -5.345   0.000  0.00  0.00    +0.000 OA
ATOM     35  C   UNL     1       0.465  -4.678   0.000  0.00  0.00    +0.000 C 
ENDBRANCH  30  34
ENDBRANCH  24  25
ENDBRANCH   4  22
BRANCH   2  36
ATOM     36  C   UNL     1       0.654  -0.428   0.000  0.00  0.00    +0.000 C 
ATOM     37  N   UNL     1       0.249   0.290   0.000  0.00  0.00    +0.000 NA
ENDBRANCH   2  36
BRANCH   1  38
ATOM     38  C   UNL     1      -0.393  -1.377   0.000  0.00  0.00    +0.000 C 
BRANCH  38  40
ATOM     39  C   UNL     1      -1.619  -2.481   0.000  0.00  0.00    +0.000 C 
ATOM     40  C   UNL     1      -1.006  -1.929   0.000  0.00  0.00    +0.000 C 
ATOM     41  C   UNL     1      -1.558  -1.316   0.000  0.00  0.00    +0.000 C 
ATOM     42  C   UNL     1      -0.454  -2.542   0.000  0.00  0.00    +0.000 C 
ENDBRANCH  38  40
ENDBRANCH   1  38
TORSDOF 9
