REMARK  Name = 
REMARK  1 active torsions:
REMARK  status: ('A' for Active; 'I' for Inactive)
REMARK    1  A    between atoms: C_1  and  N_4
REMARK                            x       y       z     vdW  Elec       q    Type
REMARK                         _______ _______ _______ _____ _____    ______ ____
ROOT
ATOM      1  C   UNL     1       0.422  -0.011   0.000  0.00  0.00    +0.000 C 
ATOM      2  C   UNL     1       1.211  -0.266   0.000  0.00  0.00    +0.000 C 
ATOM      3  C   UNL     1       0.422   0.793   0.000  0.00  0.00    +0.000 C 
ATOM      4  S   UNL     1       1.695   0.386   0.000  0.00  0.00    +0.000 S 
ATOM      5  O   UNL     1       1.463  -1.037   0.000  0.00  0.00    +0.000 OA
ATOM      6  C   UNL     1       1.232   1.037   0.000  0.00  0.00    +0.000 C 
ENDROOT
BRANCH   1   7
ATOM      7  N   UNL     1      -0.260  -0.421   0.000  0.00  0.00    +0.000 NA
ATOM      8  C   UNL     1      -0.973  -0.011   0.000  0.00  0.00    +0.000 C 
ATOM      9  C   UNL     1      -1.695  -0.410   0.000  0.00  0.00    +0.000 C 
ATOM     10  O   UNL     1      -0.973   0.777   0.000  0.00  0.00    +0.000 OA
ENDBRANCH   1   7
TORSDOF 1
