REMARK  Name = 
REMARK  4 active torsions:
REMARK  status: ('A' for Active; 'I' for Inactive)
REMARK    1  A    between atoms: C_3  and  N_12
REMARK    2  A    between atoms: C_9  and  C_10
REMARK    3  A    between atoms: C_9  and  C_11
REMARK    4  A    between atoms: C_10  and  N_12
REMARK                            x       y       z     vdW  Elec       q    Type
REMARK                         _______ _______ _______ _____ _____    ______ ____
ROOT
ATOM      1  C   UNL     1       4.287   2.475   0.000  0.00  0.00    +0.000 C 
ENDROOT
BRANCH   1   7
ATOM      2  C   UNL     1       6.430   1.238   0.000  0.00  0.00    +0.000 A 
ATOM      3  C   UNL     1       6.430   2.062   0.000  0.00  0.00    +0.000 A 
ATOM      4  C   UNL     1       5.716   0.825   0.000  0.00  0.00    +0.000 A 
ATOM      5  C   UNL     1       5.716   2.475   0.000  0.00  0.00    +0.000 A 
ATOM      6  C   UNL     1       5.001   1.238   0.000  0.00  0.00    +0.000 A 
ATOM      7  C   UNL     1       5.001   2.062   0.000  0.00  0.00    +0.000 A 
ENDBRANCH   1   7
BRANCH   1   9
ATOM      8  C   UNL     1       3.572   1.238   0.000  0.00  0.00    +0.000 C 
ATOM      9  C   UNL     1       3.572   2.062   0.000  0.00  0.00    +0.000 C 
BRANCH   9  10
ATOM     10  N   UNL     1       2.858   2.475   0.000  0.00  0.00    +0.000 NA
BRANCH  10  12
ATOM     11  C   UNL     1       1.429   2.475   0.000  0.00  0.00    +0.000 C 
ATOM     12  C   UNL     1       2.143   2.062   0.000  0.00  0.00    +0.000 C 
ENDBRANCH  10  12
ENDBRANCH   9  10
ENDBRANCH   1   9
TORSDOF 4
