REMARK  Name = 
REMARK  11 active torsions:
REMARK  status: ('A' for Active; 'I' for Inactive)
REMARK    1  A    between atoms: O_2  and  C_3
REMARK    2  A    between atoms: C_6  and  O_7
REMARK    3  A    between atoms: O_7  and  C_8
REMARK    4  A    between atoms: C_8  and  O_10
REMARK    5  A    between atoms: O_10  and  C_11
REMARK    6  A    between atoms: C_21  and  C_30
REMARK    7  A    between atoms: C_30  and  C_32
REMARK    8  A    between atoms: C_32  and  C_33
REMARK    9  A    between atoms: C_33  and  C_34
REMARK   10  A    between atoms: C_34  and  C_35
REMARK   11  A    between atoms: C_40  and  C_42
REMARK                            x       y       z     vdW  Elec       q    Type
REMARK                         _______ _______ _______ _____ _____    ______ ____
ROOT
ATOM      1  C   UNL     1      -0.098  -2.208   0.000  0.00  0.00    +0.000 C 
ATOM      2  C   UNL     1       0.183  -1.432   0.000  0.00  0.00    +0.000 C 
ATOM      3  C   UNL     1       0.995  -1.287   0.000  0.00  0.00    +0.000 C 
ATOM      4  C   UNL     1       1.527  -1.917   0.000  0.00  0.00    +0.000 C 
ATOM      5  C   UNL     1       1.807  -1.141   0.000  0.00  0.00    +0.000 C 
ATOM      6  C   UNL     1       2.339  -1.772   0.000  0.00  0.00    +0.000 C 
ATOM      7  C   UNL     1       2.619  -0.996   0.000  0.00  0.00    +0.000 C 
ATOM      8  C   UNL     1       3.431  -0.851   0.000  0.00  0.00    +0.000 C 
ATOM      9  C   UNL     1       3.963  -1.482   0.000  0.00  0.00    +0.000 C 
ATOM     10  C   UNL     1       4.323  -0.739   0.000  0.00  0.00    +0.000 C 
ATOM     11  C   UNL     1       4.787  -1.508   0.000  0.00  0.00    +0.000 C 
ATOM     12  C   UNL     1       5.017  -2.301   0.000  0.00  0.00    +0.000 C 
ATOM     13  C   UNL     1       4.334  -2.764   0.000  0.00  0.00    +0.000 C 
ATOM     14  C   UNL     1       3.683  -2.258   0.000  0.00  0.00    +0.000 C 
ATOM     15  C   UNL     1       2.870  -2.403   0.000  0.00  0.00    +0.000 C 
ATOM     16  C   UNL     1       2.590  -3.179   0.000  0.00  0.00    +0.000 C 
ATOM     17  C   UNL     1       1.778  -3.324   0.000  0.00  0.00    +0.000 C 
ATOM     18  C   UNL     1       1.246  -2.693   0.000  0.00  0.00    +0.000 C 
ATOM     19  C   UNL     1       0.434  -2.838   0.000  0.00  0.00    +0.000 C 
ENDROOT
BRANCH  11  20
ATOM     20  C   UNL     1       5.294  -0.857   0.000  0.00  0.00    +0.000 C 
ATOM     21  C   UNL     1       6.111  -0.970   0.000  0.00  0.00    +0.000 C 
BRANCH  20  22
ATOM     22  C   UNL     1       4.983  -0.093   0.000  0.00  0.00    +0.000 C 
BRANCH  22  23
ATOM     23  C   UNL     1       5.489   0.558   0.000  0.00  0.00    +0.000 C 
BRANCH  23  24
ATOM     24  C   UNL     1       5.178   1.323   0.000  0.00  0.00    +0.000 C 
BRANCH  24  25
ATOM     25  C   UNL     1       5.685   1.974   0.000  0.00  0.00    +0.000 C 
ATOM     26  C   UNL     1       5.374   2.738   0.000  0.00  0.00    +0.000 C 
ATOM     27  C   UNL     1       6.502   1.861   0.000  0.00  0.00    +0.000 C 
ENDBRANCH  24  25
ENDBRANCH  23  24
ENDBRANCH  22  23
ENDBRANCH  20  22
ENDBRANCH  11  20
BRANCH   1  28
ATOM     28  O   UNL     1      -0.910  -2.353   0.000  0.00  0.00    +0.000 OA
BRANCH  28  29
ATOM     29  C   UNL     1      -1.190  -3.129   0.000  0.00  0.00    +0.000 C 
ATOM     30  O   UNL     1      -0.658  -3.760   0.000  0.00  0.00    +0.000 OA
BRANCH  29  31
ATOM     31  O   UNL     1      -2.002  -3.274   0.000  0.00  0.00    +0.000 OA
BRANCH  31  35
ATOM     32  C   UNL     1      -3.375  -4.971   0.000  0.00  0.00    +0.000 A 
ATOM     33  C   UNL     1      -3.095  -4.195   0.000  0.00  0.00    +0.000 A 
ATOM     34 CL   UNL     1      -3.626  -3.564   0.000  0.00  0.00    +0.000 Cl
ATOM     35  C   UNL     1      -2.283  -4.050   0.000  0.00  0.00    +0.000 A 
ATOM     36  C   UNL     1      -1.751  -4.681   0.000  0.00  0.00    +0.000 A 
ATOM     37 CL   UNL     1      -0.939  -4.535   0.000  0.00  0.00    +0.000 Cl
ATOM     38  C   UNL     1      -2.031  -5.457   0.000  0.00  0.00    +0.000 A 
ATOM     39  N   UNL     1      -2.843  -5.602   0.000  0.00  0.00    +0.000 NA
BRANCH  38  40
ATOM     40  C   UNL     1      -1.499  -6.087   0.000  0.00  0.00    +0.000 C 
ATOM     41 CL   UNL     1      -0.967  -6.718   0.000  0.00  0.00    +0.000 Cl
ATOM     42 CL   UNL     1      -2.130  -6.619   0.000  0.00  0.00    +0.000 Cl
ATOM     43 CL   UNL     1      -0.868  -5.556   0.000  0.00  0.00    +0.000 Cl
ENDBRANCH  38  40
BRANCH  32  45
ATOM     44  C   UNL     1      -4.467  -5.892   0.000  0.00  0.00    +0.000 C 
ATOM     45  O   UNL     1      -4.187  -5.116   0.000  0.00  0.00    +0.000 OA
ENDBRANCH  32  45
ENDBRANCH  31  35
ENDBRANCH  29  31
ENDBRANCH  28  29
ENDBRANCH   1  28
TORSDOF 11
