REMARK  Name = 
REMARK  7 active torsions:
REMARK  status: ('A' for Active; 'I' for Inactive)
REMARK    1  A    between atoms: C_2  and  C_6
REMARK    2  A    between atoms: C_3  and  C_7
REMARK    3  A    between atoms: C_4  and  C_8
REMARK    4  A    between atoms: C_6  and  N_13
REMARK    5  A    between atoms: C_7  and  N_14
REMARK    6  A    between atoms: C_8  and  N_14
REMARK    7  A    between atoms: N_14  and  P_17
REMARK                            x       y       z     vdW  Elec       q    Type
REMARK                         _______ _______ _______ _____ _____    ______ ____
ROOT
ATOM      1  C   UNL     1       5.359  -2.156   0.000  0.00  0.00    +0.000 C 
ATOM      2  C   UNL     1       5.641  -1.381   0.000  0.00  0.00    +0.000 C 
ATOM      3  C   UNL     1       4.547  -2.299   0.000  0.00  0.00    +0.000 C 
ATOM      4  N   UNL     1       5.111  -0.749   0.000  0.00  0.00    +0.000 NA
ATOM      5  O   UNL     1       3.486  -0.749   0.000  0.00  0.00    +0.000 OA
ATOM      6  O   UNL     1       4.016  -1.667   0.000  0.00  0.00    +0.000 OA
ATOM      7  P   UNL     1       4.299  -0.892   0.000  0.00  0.00    +0.000 P 
ENDROOT
BRANCH   4   8
ATOM      8  C   UNL     1       5.393   0.026   0.000  0.00  0.00    +0.000 C 
BRANCH   8   9
ATOM      9  C   UNL     1       6.206   0.170   0.000  0.00  0.00    +0.000 C 
ATOM     10 CL   UNL     1       6.488   0.945   0.000  0.00  0.00    +0.000 Cl
ENDBRANCH   8   9
ENDBRANCH   4   8
BRANCH   7  11
ATOM     11  N   UNL     1       4.299  -0.067   0.000  0.00  0.00    +0.000 NA
BRANCH  11  12
ATOM     12  C   UNL     1       3.584   0.345   0.000  0.00  0.00    +0.000 C 
BRANCH  12  13
ATOM     13  C   UNL     1       3.584   1.171   0.000  0.00  0.00    +0.000 C 
ATOM     14 CL   UNL     1       2.870   1.583   0.000  0.00  0.00    +0.000 Cl
ENDBRANCH  12  13
ENDBRANCH  11  12
BRANCH  11  15
ATOM     15  C   UNL     1       5.013   0.345   0.000  0.00  0.00    +0.000 C 
BRANCH  15  16
ATOM     16  C   UNL     1       5.013   1.171   0.000  0.00  0.00    +0.000 C 
ATOM     17 CL   UNL     1       5.728   1.583   0.000  0.00  0.00    +0.000 Cl
ENDBRANCH  15  16
ENDBRANCH  11  15
ENDBRANCH   7  11
TORSDOF 7
