REMARK  Name = 
REMARK  2 active torsions:
REMARK  status: ('A' for Active; 'I' for Inactive)
REMARK    1  A    between atoms: N_9  and  C_10
REMARK    2  A    between atoms: C_23  and  C_24
REMARK                            x       y       z     vdW  Elec       q    Type
REMARK                         _______ _______ _______ _____ _____    ______ ____
ROOT
ATOM      1  C   UNL     1      -0.241  -1.436   0.000  0.00  0.00    +0.000 A 
ATOM      2  C   UNL     1       0.583  -1.479   0.000  0.00  0.00    +0.000 A 
ATOM      3  C   UNL     1      -0.536  -2.206   0.000  0.00  0.00    +0.000 A 
ATOM      4  N   UNL     1       0.104  -2.726   0.000  0.00  0.00    +0.000 NA
ATOM      5  N   UNL     1       0.796  -2.276   0.000  0.00  0.00    +0.000 N 
ATOM      6  C   UNL     1       1.963  -1.110   0.000  0.00  0.00    +0.000 A 
ATOM      7  N   UNL     1       1.166  -0.896   0.000  0.00  0.00    +0.000 NA
ATOM      8  C   UNL     1       1.593  -2.490   0.000  0.00  0.00    +0.000 A 
ATOM      9  C   UNL     1       2.177  -1.907   0.000  0.00  0.00    +0.000 A 
ATOM     10  N   UNL     1       2.546  -0.526   0.000  0.00  0.00    +0.000 N 
ATOM     11  C   UNL     1       3.361  -0.655   0.000  0.00  0.00    +0.000 C 
ATOM     12  C   UNL     1       3.736   0.080   0.000  0.00  0.00    +0.000 C 
ATOM     13  C   UNL     1       3.152   0.663   0.000  0.00  0.00    +0.000 C 
ATOM     14  C   UNL     1       2.417   0.288   0.000  0.00  0.00    +0.000 C 
ENDROOT
BRANCH   1  23
ATOM     15  C   UNL     1      -2.309   1.194   0.000  0.00  0.00    +0.000 C 
ATOM     16  C   UNL     1      -3.001   0.744   0.000  0.00  0.00    +0.000 C 
ATOM     17  C   UNL     1      -2.787  -0.052   0.000  0.00  0.00    +0.000 C 
ATOM     18  N   UNL     1      -1.963  -0.096   0.000  0.00  0.00    +0.000 N 
ATOM     19  C   UNL     1      -1.668   0.674   0.000  0.00  0.00    +0.000 C 
ATOM     20  O   UNL     1      -3.736   1.119   0.000  0.00  0.00    +0.000 OA
ATOM     21  C   UNL     1      -1.514  -0.787   0.000  0.00  0.00    +0.000 C 
ATOM     22  O   UNL     1      -1.927  -1.502   0.000  0.00  0.00    +0.000 OA
ATOM     23  N   UNL     1      -0.690  -0.744   0.000  0.00  0.00    +0.000 NA
ENDBRANCH   1  23
BRANCH  14  24
ATOM     24  C   UNL     1       1.682   0.663   0.000  0.00  0.00    +0.000 A 
ATOM     25  C   UNL     1       0.968   1.901   0.000  0.00  0.00    +0.000 A 
ATOM     26  C   UNL     1       0.254   1.488   0.000  0.00  0.00    +0.000 A 
ATOM     27  C   UNL     1       0.254   0.663   0.000  0.00  0.00    +0.000 A 
ATOM     28  C   UNL     1       0.968   0.251   0.000  0.00  0.00    +0.000 A 
ATOM     29  C   UNL     1       1.682   1.488   0.000  0.00  0.00    +0.000 A 
ATOM     30  F   UNL     1       1.011  -0.573   0.000  0.00  0.00    +0.000 F 
ATOM     31  F   UNL     1       0.968   2.726   0.000  0.00  0.00    +0.000 F 
ENDBRANCH  14  24
TORSDOF 2
