REMARK  Name = 
REMARK  3 active torsions:
REMARK  status: ('A' for Active; 'I' for Inactive)
REMARK    1  A    between atoms: C_5  and  C_10
REMARK    2  A    between atoms: C_11  and  C_12
REMARK    3  A    between atoms: C_12  and  C_13
REMARK                            x       y       z     vdW  Elec       q    Type
REMARK                         _______ _______ _______ _____ _____    ______ ____
ROOT
ATOM      1  C   UNL     1      -1.855   0.000   0.000  0.00  0.00    +0.000 A 
ATOM      2  C   UNL     1      -1.855  -0.825   0.000  0.00  0.00    +0.000 A 
ATOM      3  C   UNL     1      -1.141  -1.238   0.000  0.00  0.00    +0.000 A 
ATOM      4  C   UNL     1      -0.426  -0.825   0.000  0.00  0.00    +0.000 A 
ATOM      5  C   UNL     1      -0.426   0.000   0.000  0.00  0.00    +0.000 A 
ATOM      6  C   UNL     1      -1.141   0.413   0.000  0.00  0.00    +0.000 A 
ATOM      7  O   UNL     1      -2.640   0.255   0.000  0.00  0.00    +0.000 OA
ATOM      8  C   UNL     1      -3.125  -0.412   0.000  0.00  0.00    +0.000 C 
ATOM      9  O   UNL     1      -2.640  -1.080   0.000  0.00  0.00    +0.000 OA
ENDROOT
BRANCH   5  10
ATOM     10  C   UNL     1       0.299   0.419   0.000  0.00  0.00    +0.000 C 
ATOM     11  C   UNL     1       1.010   0.009   0.000  0.00  0.00    +0.000 C 
BRANCH  11  12
ATOM     12  C   UNL     1       1.707   0.411   0.000  0.00  0.00    +0.000 C 
ATOM     13  O   UNL     1       1.707   1.238   0.000  0.00  0.00    +0.000 OA
BRANCH  12  14
ATOM     14  C   UNL     1       2.410   0.005   0.000  0.00  0.00    +0.000 C 
ATOM     15  C   UNL     1       3.125  -0.407   0.000  0.00  0.00    +0.000 C 
ATOM     16  C   UNL     1       1.992  -0.720   0.000  0.00  0.00    +0.000 C 
ATOM     17  C   UNL     1       2.816   0.709   0.000  0.00  0.00    +0.000 C 
ENDBRANCH  12  14
ENDBRANCH  11  12
ENDBRANCH   5  10
TORSDOF 3
