REMARK  Name = 
REMARK  1 active torsions:
REMARK  status: ('A' for Active; 'I' for Inactive)
REMARK    1  A    between atoms: C_3  and  C_9
REMARK                            x       y       z     vdW  Elec       q    Type
REMARK                         _______ _______ _______ _____ _____    ______ ____
ROOT
ATOM      1  C   UNL     1      -0.715   1.031   0.000  0.00  0.00    +0.000 A 
ATOM      2  C   UNL     1       0.000   0.619   0.000  0.00  0.00    +0.000 A 
ATOM      3  C   UNL     1       0.000  -0.206   0.000  0.00  0.00    +0.000 A 
ATOM      4  N   UNL     1      -0.715  -0.619   0.000  0.00  0.00    +0.000 NA
ATOM      5  C   UNL     1      -1.429  -0.206   0.000  0.00  0.00    +0.000 A 
ATOM      6  N   UNL     1      -1.429   0.619   0.000  0.00  0.00    +0.000 NA
ATOM      7  O   UNL     1      -0.715   1.856   0.000  0.00  0.00    +0.000 OA
ATOM      8 BR   UNL     1       0.715   1.031   0.000  0.00  0.00    +0.000 Br
ATOM      9  N   UNL     1      -2.144  -0.619   0.000  0.00  0.00    +0.000 NA
ENDROOT
BRANCH   3  10
ATOM     10  C   UNL     1       0.715  -0.619   0.000  0.00  0.00    +0.000 A 
ATOM     11  C   UNL     1       1.429  -0.206   0.000  0.00  0.00    +0.000 A 
ATOM     12  C   UNL     1       2.143  -0.619   0.000  0.00  0.00    +0.000 A 
ATOM     13  C   UNL     1       2.143  -1.444   0.000  0.00  0.00    +0.000 A 
ATOM     14  C   UNL     1       1.429  -1.856   0.000  0.00  0.00    +0.000 A 
ATOM     15  C   UNL     1       0.715  -1.444   0.000  0.00  0.00    +0.000 A 
ENDBRANCH   3  10
TORSDOF 1
