REMARK  Name = 
REMARK  6 active torsions:
REMARK  status: ('A' for Active; 'I' for Inactive)
REMARK    1  A    between atoms: C_2  and  C_4
REMARK    2  A    between atoms: C_12  and  C_15
REMARK    3  A    between atoms: C_15  and  O_16
REMARK    4  A    between atoms: O_16  and  C_17
REMARK    5  A    between atoms: C_20  and  C_23
REMARK    6  A    between atoms: C_26  and  S_29
REMARK                            x       y       z     vdW  Elec       q    Type
REMARK                         _______ _______ _______ _____ _____    ______ ____
ROOT
ATOM      1  O   UNL     1       4.602 -11.278   0.000  0.00  0.00    +0.000 OA
ENDROOT
BRANCH   1   2
ATOM      2  C   UNL     1       5.087 -11.945   0.000  0.00  0.00    +0.000 A 
ATOM      3  C   UNL     1       5.907 -11.859   0.000  0.00  0.00    +0.000 A 
ATOM      4  C   UNL     1       6.392 -12.527   0.000  0.00  0.00    +0.000 A 
ATOM      5  C   UNL     1       6.056 -13.280   0.000  0.00  0.00    +0.000 A 
ATOM      6  N   UNL     1       5.236 -13.367   0.000  0.00  0.00    +0.000 NA
ATOM      7  C   UNL     1       4.751 -12.699   0.000  0.00  0.00    +0.000 A 
BRANCH   5   8
ATOM      8  C   UNL     1       6.541 -13.948   0.000  0.00  0.00    +0.000 A 
ATOM      9  C   UNL     1       7.362 -13.862   0.000  0.00  0.00    +0.000 A 
ATOM     10  C   UNL     1       7.847 -14.529   0.000  0.00  0.00    +0.000 A 
ATOM     11  C   UNL     1       7.511 -15.283   0.000  0.00  0.00    +0.000 A 
ATOM     12  C   UNL     1       6.691 -15.369   0.000  0.00  0.00    +0.000 A 
ATOM     13  C   UNL     1       6.206 -14.701   0.000  0.00  0.00    +0.000 A 
BRANCH  11  14
ATOM     14  S   UNL     1       7.996 -15.950   0.000  0.00  0.00    +0.000 S 
ATOM     15  O   UNL     1       8.481 -16.618   0.000  0.00  0.00    +0.000 OA
ATOM     16  O   UNL     1       7.329 -16.435   0.000  0.00  0.00    +0.000 OA
ATOM     17  C   UNL     1       8.664 -15.465   0.000  0.00  0.00    +0.000 C 
ENDBRANCH  11  14
ENDBRANCH   5   8
ENDBRANCH   1   2
BRANCH   1  18
ATOM     18  C   UNL     1       3.781 -11.364   0.000  0.00  0.00    +0.000 C 
BRANCH  18  27
ATOM     19  C   UNL     1       1.429  -7.425   0.000  0.00  0.00    +0.000 A 
ATOM     20  N   UNL     1       2.096  -7.910   0.000  0.00  0.00    +0.000 NA
ATOM     21  C   UNL     1       1.841  -8.694   0.000  0.00  0.00    +0.000 A 
ATOM     22  O   UNL     1       1.016  -8.694   0.000  0.00  0.00    +0.000 OA
ATOM     23  N   UNL     1       0.761  -7.910   0.000  0.00  0.00    +0.000 NA
ATOM     24  N   UNL     1       2.326  -9.362   0.000  0.00  0.00    +0.000 N 
ATOM     25  C   UNL     1       3.147  -9.276   0.000  0.00  0.00    +0.000 C 
ATOM     26  C   UNL     1       3.632  -9.943   0.000  0.00  0.00    +0.000 C 
ATOM     27  C   UNL     1       3.296 -10.697   0.000  0.00  0.00    +0.000 C 
ATOM     28  C   UNL     1       2.476 -10.783   0.000  0.00  0.00    +0.000 C 
ATOM     29  C   UNL     1       1.991 -10.116   0.000  0.00  0.00    +0.000 C 
BRANCH  19  31
ATOM     30  C   UNL     1       0.715  -6.188   0.000  0.00  0.00    +0.000 C 
ATOM     31  C   UNL     1       1.429  -6.600   0.000  0.00  0.00    +0.000 C 
ATOM     32  C   UNL     1       2.143  -6.188   0.000  0.00  0.00    +0.000 C 
ENDBRANCH  19  31
ENDBRANCH  18  27
ENDBRANCH   1  18
TORSDOF 6
