REMARK  Name = 
REMARK  4 active torsions:
REMARK  status: ('A' for Active; 'I' for Inactive)
REMARK    1  A    between atoms: O_2  and  C_3
REMARK    2  A    between atoms: C_17  and  C_18
REMARK    3  A    between atoms: N_19  and  N_20
REMARK    4  A    between atoms: N_23  and  C_26
REMARK                            x       y       z     vdW  Elec       q    Type
REMARK                         _______ _______ _______ _____ _____    ______ ____
ROOT
ATOM      1  C   UNL     1       4.241   3.145   0.000  0.00  0.00    +0.000 C 
ATOM      2  C   UNL     1       4.974   2.756   0.000  0.00  0.00    +0.000 C 
ATOM      3  C   UNL     1       5.598   2.196   0.000  0.00  0.00    +0.000 C 
ATOM      4  O   UNL     1       6.154   1.546   0.000  0.00  0.00    +0.000 OA
ATOM      5  C   UNL     1       6.187   0.684   0.000  0.00  0.00    +0.000 C 
ATOM      6  C   UNL     1       6.667   0.013   0.000  0.00  0.00    +0.000 C 
ATOM      7  O   UNL     1       5.417   0.981   0.000  0.00  0.00    +0.000 OA
ATOM      8  C   UNL     1       4.847   0.394   0.000  0.00  0.00    +0.000 A 
ATOM      9  C   UNL     1       5.266  -0.332   0.000  0.00  0.00    +0.000 A 
ATOM     10  C   UNL     1       6.095  -0.157   0.000  0.00  0.00    +0.000 C 
ATOM     11  O   UNL     1       6.707  -0.711   0.000  0.00  0.00    +0.000 OA
ATOM     12  C   UNL     1       4.783  -1.057   0.000  0.00  0.00    +0.000 A 
ATOM     13  C   UNL     1       5.091  -1.841   0.000  0.00  0.00    +0.000 A 
ATOM     14  O   UNL     1       5.908  -1.956   0.000  0.00  0.00    +0.000 OA
ATOM     15  C   UNL     1       4.598  -2.483   0.000  0.00  0.00    +0.000 A 
ATOM     16  C   UNL     1       3.760  -2.425   0.000  0.00  0.00    +0.000 A 
ATOM     17  N   UNL     1       2.941  -2.702   0.000  0.00  0.00    +0.000 NA
ATOM     18  C   UNL     1       2.092  -2.722   0.000  0.00  0.00    +0.000 C 
ATOM     19  O   UNL     1       1.943  -3.533   0.000  0.00  0.00    +0.000 OA
ATOM     20  C   UNL     1       1.283  -2.391   0.000  0.00  0.00    +0.000 C 
ATOM     21  C   UNL     1       0.849  -3.092   0.000  0.00  0.00    +0.000 C 
ATOM     22  C   UNL     1       0.629  -1.818   0.000  0.00  0.00    +0.000 C 
ATOM     23  C   UNL     1       0.161  -1.067   0.000  0.00  0.00    +0.000 C 
ATOM     24  C   UNL     1      -0.066  -0.269   0.000  0.00  0.00    +0.000 C 
ATOM     25  C   UNL     1      -0.079   0.561   0.000  0.00  0.00    +0.000 C 
ATOM     26  C   UNL     1      -0.898   0.657   0.000  0.00  0.00    +0.000 C 
ATOM     27  C   UNL     1       0.125   1.364   0.000  0.00  0.00    +0.000 C 
ATOM     28  O   UNL     1      -0.641   1.670   0.000  0.00  0.00    +0.000 OA
ATOM     29  C   UNL     1       0.529   2.087   0.000  0.00  0.00    +0.000 C 
ATOM     30  C   UNL     1      -0.132   2.581   0.000  0.00  0.00    +0.000 C 
ATOM     31  C   UNL     1       1.107   2.681   0.000  0.00  0.00    +0.000 C 
ATOM     32  O   UNL     1       0.596   3.329   0.000  0.00  0.00    +0.000 OA
ATOM     33  C   UNL     1       1.819   3.105   0.000  0.00  0.00    +0.000 C 
ATOM     34  C   UNL     1       1.492   3.863   0.000  0.00  0.00    +0.000 C 
ATOM     35  C   UNL     1       2.615   3.330   0.000  0.00  0.00    +0.000 C 
ATOM     36  O   UNL     1       2.495   4.146   0.000  0.00  0.00    +0.000 OA
ATOM     37  C   UNL     1       3.441   3.342   0.000  0.00  0.00    +0.000 C 
ATOM     38  C   UNL     1       3.534   4.162   0.000  0.00  0.00    +0.000 C 
ATOM     39  C   UNL     1       3.465  -1.657   0.000  0.00  0.00    +0.000 A 
ATOM     40  O   UNL     1       2.646  -1.558   0.000  0.00  0.00    +0.000 OA
ATOM     41  C   UNL     1       3.939  -0.975   0.000  0.00  0.00    +0.000 A 
ATOM     42  C   UNL     1       3.570  -0.225   0.000  0.00  0.00    +0.000 A 
ATOM     43  O   UNL     1       2.746  -0.181   0.000  0.00  0.00    +0.000 OA
ATOM     44  C   UNL     1       4.010   0.473   0.000  0.00  0.00    +0.000 A 
ATOM     45  C   UNL     1       3.646   1.213   0.000  0.00  0.00    +0.000 C 
ENDROOT
BRANCH   1  47
ATOM     46  C   UNL     1       5.351   4.046   0.000  0.00  0.00    +0.000 C 
ATOM     47  O   UNL     1       4.536   3.916   0.000  0.00  0.00    +0.000 OA
ENDBRANCH   1  47
BRANCH  15  48
ATOM     48  C   UNL     1       4.937  -3.235   0.000  0.00  0.00    +0.000 C 
ATOM     49  N   UNL     1       5.758  -3.317   0.000  0.00  0.00    +0.000 NA
BRANCH  49  50
ATOM     50  N   UNL     1       6.097  -4.069   0.000  0.00  0.00    +0.000 N 
ATOM     51  C   UNL     1       6.918  -4.151   0.000  0.00  0.00    +0.000 C 
ATOM     52  C   UNL     1       7.258  -4.903   0.000  0.00  0.00    +0.000 C 
ATOM     53  N   UNL     1       6.776  -5.573   0.000  0.00  0.00    +0.000 NA
ATOM     54  C   UNL     1       5.955  -5.491   0.000  0.00  0.00    +0.000 C 
ATOM     55  C   UNL     1       5.616  -4.739   0.000  0.00  0.00    +0.000 C 
BRANCH  53  56
ATOM     56  C   UNL     1       7.115  -6.325   0.000  0.00  0.00    +0.000 C 
ATOM     57  C   UNL     1       7.923  -6.492   0.000  0.00  0.00    +0.000 C 
ATOM     58  C   UNL     1       8.013  -7.312   0.000  0.00  0.00    +0.000 C 
ATOM     59  C   UNL     1       7.261  -7.652   0.000  0.00  0.00    +0.000 C 
ATOM     60  C   UNL     1       6.706  -7.041   0.000  0.00  0.00    +0.000 C 
ENDBRANCH  53  56
ENDBRANCH  49  50
ENDBRANCH  15  48
TORSDOF 4
