REMARK  Name = 
REMARK  11 active torsions:
REMARK  status: ('A' for Active; 'I' for Inactive)
REMARK    1  A    between atoms: C_1  and  O_35
REMARK    2  A    between atoms: C_27  and  O_35
REMARK    3  A    between atoms: C_31  and  C_36
REMARK    4  A    between atoms: C_39  and  N_54
REMARK    5  A    between atoms: C_46  and  C_50
REMARK    6  A    between atoms: C_50  and  C_51
REMARK    7  A    between atoms: C_55  and  C_56
REMARK    8  A    between atoms: C_56  and  C_58
REMARK    9  A    between atoms: C_56  and  N_59
REMARK   10  A    between atoms: C_58  and  C_60
REMARK   11  A    between atoms: C_71  and  C_74
REMARK                            x       y       z     vdW  Elec       q    Type
REMARK                         _______ _______ _______ _____ _____    ______ ____
ROOT
ATOM      1  C   UNK A   1      -0.714   2.068   0.000  0.00  0.00    +0.000 A 
ATOM      2  C   UNK A   1       0.000   1.656   0.000  0.00  0.00    +0.000 A 
ATOM      3  C   UNK A   1      -1.429   1.656   0.000  0.00  0.00    +0.000 A 
ATOM      4  C   UNK A   1      -0.714   0.418   0.000  0.00  0.00    +0.000 A 
ATOM      5  C   UNK A   1      -1.429   0.831   0.000  0.00  0.00    +0.000 A 
ATOM      6  C   UNK A   1       0.000   0.831   0.000  0.00  0.00    +0.000 A 
ATOM      7  O   UNK A   1       0.715   2.068   0.000  0.00  0.00    +0.000 OA
ATOM      8  O   UNK A   1      -2.143   2.068   0.000  0.00  0.00    +0.000 OA
ATOM      9  C   UNK A   3      -5.001   0.418   0.000  0.00  0.00    +0.000 C 
ATOM     10  C   UNK A   1       3.572   0.418   0.000  0.00  0.00    +0.000 C 
ATOM     11  C   UNK A   3      -4.287   0.831   0.000  0.00  0.00    +0.000 A 
ATOM     12  C   UNK A   1       2.858   0.831   0.000  0.00  0.00    +0.000 A 
ATOM     13  C   UNK A   1      -2.858   1.656   0.000  0.00  0.00    +0.000 A 
ATOM     14  C   UNK A   1       1.429   1.656   0.000  0.00  0.00    +0.000 A 
ATOM     15  C   UNK A   1      -2.858   0.831   0.000  0.00  0.00    +0.000 A 
ATOM     16  C   UNK A   1       2.143   2.068   0.000  0.00  0.00    +0.000 A 
ATOM     17  C   UNK A   1       2.858   1.656   0.000  0.00  0.00    +0.000 A 
ATOM     18  C   UNK A   1       2.143   0.418   0.000  0.00  0.00    +0.000 A 
ATOM     19  C   UNK A   3      -4.287   1.656   0.000  0.00  0.00    +0.000 A 
ATOM     20  C   UNK A   3      -3.572   2.068   0.000  0.00  0.00    +0.000 A 
ATOM     21  C   UNK A   1       1.429   0.831   0.000  0.00  0.00    +0.000 A 
ATOM     22 CL   UNK A   1       2.143   2.893   0.000  0.00  0.00    +0.000 Cl
ATOM     23  O   UNK A   3      -5.715   0.831   0.000  0.00  0.00    +0.000 OA
ATOM     24 CL   UNK A   1      -2.143   0.418   0.000  0.00  0.00    +0.000 Cl
ATOM     25  O   UNK A   1       4.287   0.831   0.000  0.00  0.00    +0.000 OA
ATOM     26  C   UNK A   1      -3.572   0.418   0.000  0.00  0.00    +0.000 A 
ATOM     27  C   UNK A   1       3.572  -1.232   0.000  0.00  0.00    +0.000 C 
ATOM     28  N   UNK A   1       0.000  -1.644   0.000  0.00  0.00    +0.000 NA
ATOM     29  C   UNK A   1       2.858  -1.644   0.000  0.00  0.00    +0.000 C 
ATOM     30  C   UNK A   1      -1.429  -1.644   0.000  0.00  0.00    +0.000 C 
ATOM     31  N   UNK A   1       2.143  -1.231   0.000  0.00  0.00    +0.000 NA
ATOM     32  C   UNK A   1      -0.714  -1.231   0.000  0.00  0.00    +0.000 C 
ATOM     33  C   UNK A   1       0.715  -1.231   0.000  0.00  0.00    +0.000 C 
ATOM     34  C   UNK A   1       1.429  -1.644   0.000  0.00  0.00    +0.000 C 
ATOM     35  O   UNK A   1       2.858  -2.469   0.000  0.00  0.00    +0.000 OA
ATOM     36  O   UNK A   1      -1.429  -2.469   0.000  0.00  0.00    +0.000 OA
ATOM     37  O   UNK A   1       0.715  -0.406   0.000  0.00  0.00    +0.000 OA
ATOM     38  C   UNK A   3      -5.001  -1.231   0.000  0.00  0.00    +0.000 C 
ATOM     39  N   UNK A   2      -2.143  -1.231   0.000  0.00  0.00    +0.000 NA
ATOM     40  C   UNK A   2      -2.858  -1.644   0.000  0.00  0.00    +0.000 C 
ATOM     41  O   UNK A   3      -6.430  -1.231   0.000  0.00  0.00    +0.000 OA
ATOM     42  N   UNK A   3      -4.287  -1.644   0.000  0.00  0.00    +0.000 NA
ATOM     43  C   UNK A   2      -3.572  -1.231   0.000  0.00  0.00    +0.000 C 
ATOM     44  O   UNK A   2      -3.572  -0.406   0.000  0.00  0.00    +0.000 OA
ATOM     45  C   UNK A   4      -6.430  -2.881   0.000  0.00  0.00    +0.000 C 
ATOM     46  N   UNK A   4      -5.715  -2.469   0.000  0.00  0.00    +0.000 NA
ATOM     47  C   UNK A   3      -5.715  -1.644   0.000  0.00  0.00    +0.000 C 
ATOM     48  C   UNK A   2      -3.583  -4.131   0.000  0.00  0.00    +0.000 A 
ATOM     49  C   UNK A   2      -2.869  -4.543   0.000  0.00  0.00    +0.000 A 
ATOM     50  C   UNK A   2      -2.869  -2.893   0.000  0.00  0.00    +0.000 A 
ATOM     51  C   UNK A   2      -3.583  -3.306   0.000  0.00  0.00    +0.000 A 
ATOM     52  C   UNK A   2      -2.155  -4.131   0.000  0.00  0.00    +0.000 A 
ATOM     53  C   UNK A   2      -2.155  -3.306   0.000  0.00  0.00    +0.000 A 
ATOM     54  O   UNK A   2      -2.869  -5.368   0.000  0.00  0.00    +0.000 OA
ATOM     55  C   UNK A   4      -6.430  -3.706   0.000  0.00  0.00    +0.000 A 
ATOM     56  C   UNK A   4      -7.144  -4.119   0.000  0.00  0.00    +0.000 A 
ATOM     57  C   UNK A   2      -6.430  -5.356   0.000  0.00  0.00    +0.000 A 
ATOM     58  C   UNK A   2      -5.715  -4.119   0.000  0.00  0.00    +0.000 A 
ATOM     59  C   UNK A   4      -7.144  -4.944   0.000  0.00  0.00    +0.000 A 
ATOM     60  O   UNK A   4      -7.859  -5.356   0.000  0.00  0.00    +0.000 OA
ATOM     61  C   UNK A   2      -5.715  -4.944   0.000  0.00  0.00    +0.000 A 
ATOM     62  O   UNK A   2      -5.001  -5.356   0.000  0.00  0.00    +0.000 OA
ENDROOT
BRANCH  27  63
ATOM     63  N   UNK A   1       4.287  -1.644   0.000  0.00  0.00    +0.000 NA
ATOM     64  C   UNK A   1       5.001  -1.232   0.000  0.00  0.00    +0.000 C 
ATOM     65  O   UNK A   1       5.001  -0.406   0.000  0.00  0.00    +0.000 OA
BRANCH  64  66
ATOM     66  C   UNK A   1       5.716  -1.644   0.000  0.00  0.00    +0.000 C 
BRANCH  66  67
ATOM     67  N   UNK A   1       5.716  -2.469   0.000  0.00  0.00    +0.000 NA
ATOM     68  C   ACE A   0       6.430  -2.881   0.000  0.00  0.00    +0.000 C 
ENDBRANCH  66  67
BRANCH  66  69
ATOM     69  C   UNK A   1       6.430  -1.232   0.000  0.00  0.00    +0.000 C 
BRANCH  69  70
ATOM     70  C   UNK A   1       7.144  -1.644   0.000  0.00  0.00    +0.000 C 
ATOM     71  C   UNK A   1       7.144  -2.469   0.000  0.00  0.00    +0.000 C 
ATOM     72  C   UNK A   1       7.859  -1.232   0.000  0.00  0.00    +0.000 C 
ENDBRANCH  69  70
ENDBRANCH  66  69
ENDBRANCH  64  66
ENDBRANCH  27  63
BRANCH  45  73
ATOM     73  C   UNK A   4      -7.145  -2.469   0.000  0.00  0.00    +0.000 C 
ATOM     74  O   UNK A   4      -7.145  -1.644   0.000  0.00  0.00    +0.000 OA
ATOM     75  O   UNK A   4      -7.859  -2.881   0.000  0.00  0.00    +0.000 OA
ENDBRANCH  45  73
BRANCH   1  76
ATOM     76  O   UNK A   1      -0.714   2.893   0.000  0.00  0.00    +0.000 OA
BRANCH  76  78
ATOM     77  C   UNK A   1      -1.429   4.131   0.000  0.00  0.00    +0.000 C 
ATOM     78  C   UNK A   1      -1.429   3.306   0.000  0.00  0.00    +0.000 C 
ATOM     79  C   UNK A   1      -2.143   4.543   0.000  0.00  0.00    +0.000 C 
ATOM     80  O   UNK A   1      -2.143   2.893   0.000  0.00  0.00    +0.000 OA
ATOM     81  C   UNK A   1      -2.858   4.131   0.000  0.00  0.00    +0.000 C 
ATOM     82  C   UNK A   1      -2.858   3.306   0.000  0.00  0.00    +0.000 C 
ATOM     83  O   UNK A   1      -0.714   4.543   0.000  0.00  0.00    +0.000 OA
ATOM     84  O   UNK A   1      -2.143   5.368   0.000  0.00  0.00    +0.000 OA
ATOM     85  O   UNK A   1      -3.572   4.543   0.000  0.00  0.00    +0.000 OA
BRANCH  82  86
ATOM     86  C   UNK A   1      -3.572   2.893   0.000  0.00  0.00    +0.000 C 
ATOM     87  O   UNK A   1      -4.287   3.306   0.000  0.00  0.00    +0.000 OA
ENDBRANCH  82  86
ENDBRANCH  76  78
ENDBRANCH   1  76
BRANCH  34  88
ATOM     88  C   UNK A   1       1.429  -2.469   0.000  0.00  0.00    +0.000 C 
BRANCH  88  89
ATOM     89  C   UNK A   1       0.715  -2.881   0.000  0.00  0.00    +0.000 C 
ATOM     90  N   UNK A   1       0.000  -2.469   0.000  0.00  0.00    +0.000 NA
ATOM     91  O   UNK A   1       0.715  -3.706   0.000  0.00  0.00    +0.000 OA
ENDBRANCH  88  89
ENDBRANCH  34  88
TORSDOF 11
