REMARK  Name = 
REMARK  10 active torsions:
REMARK  status: ('A' for Active; 'I' for Inactive)
REMARK    1  A    between atoms: C_5  and  C_10
REMARK    2  A    between atoms: C_6  and  C_11
REMARK    3  A    between atoms: C_7  and  C_12
REMARK    4  A    between atoms: C_8  and  N_25
REMARK    5  A    between atoms: C_9  and  O_38
REMARK    6  A    between atoms: C_20  and  O_42
REMARK    7  A    between atoms: C_21  and  S_43
REMARK    8  A    between atoms: C_22  and  O_38
REMARK    9  A    between atoms: C_23  and  O_42
REMARK   10  A    between atoms: C_24  and  S_43
REMARK                            x       y       z     vdW  Elec       q    Type
REMARK                         _______ _______ _______ _____ _____    ______ ____
ROOT
ATOM      1  C   UNL     1      -0.357   2.062   0.000  0.00  0.00    +0.000 C 
ATOM      2  C   UNL     1      -1.072   1.650   0.000  0.00  0.00    +0.000 C 
ATOM      3  C   UNL     1      -0.357   0.412   0.000  0.00  0.00    +0.000 C 
ATOM      4  C   UNL     1      -1.072   0.825   0.000  0.00  0.00    +0.000 C 
ATOM      5  C   UNL     1       0.357   0.825   0.000  0.00  0.00    +0.000 C 
ATOM      6  O   UNL     1      -1.786   2.062   0.000  0.00  0.00    +0.000 OA
ATOM      7  O   UNL     1      -0.357  -0.412   0.000  0.00  0.00    +0.000 OA
ATOM      8  O   UNL     1       0.357   1.650   0.000  0.00  0.00    +0.000 OA
ENDROOT
BRANCH   1   9
ATOM      9  C   UNL     1      -0.357   2.888   0.000  0.00  0.00    +0.000 C 
ATOM     10  O   UNL     1       0.357   3.300   0.000  0.00  0.00    +0.000 OA
ENDBRANCH   1   9
BRANCH   5  11
ATOM     11  O   UNL     1       1.072   0.412   0.000  0.00  0.00    +0.000 OA
BRANCH  11  15
ATOM     12  C   UNL     1       2.501   2.062   0.000  0.00  0.00    +0.000 C 
ATOM     13  C   UNL     1       1.786   1.650   0.000  0.00  0.00    +0.000 C 
ATOM     14  C   UNL     1       2.501   0.412   0.000  0.00  0.00    +0.000 C 
ATOM     15  C   UNL     1       1.786   0.825   0.000  0.00  0.00    +0.000 C 
ATOM     16  C   UNL     1       3.215   0.825   0.000  0.00  0.00    +0.000 C 
ATOM     17  O   UNL     1       1.072   2.062   0.000  0.00  0.00    +0.000 OA
ATOM     18  O   UNL     1       2.501  -0.412   0.000  0.00  0.00    +0.000 OA
ATOM     19  O   UNL     1       3.215   1.650   0.000  0.00  0.00    +0.000 OA
BRANCH  12  20
ATOM     20  C   UNL     1       2.501   2.888   0.000  0.00  0.00    +0.000 C 
ATOM     21  O   UNL     1       3.215   3.300   0.000  0.00  0.00    +0.000 OA
ENDBRANCH  12  20
BRANCH  16  22
ATOM     22  O   UNL     1       3.929   0.412   0.000  0.00  0.00    +0.000 OA
BRANCH  22  28
ATOM     23  C   UNL     1       4.644  -1.650   0.000  0.00  0.00    +0.000 A 
ATOM     24  C   UNL     1       3.215  -1.650   0.000  0.00  0.00    +0.000 A 
ATOM     25  C   UNL     1       4.644  -0.825   0.000  0.00  0.00    +0.000 A 
ATOM     26  C   UNL     1       3.215  -0.825   0.000  0.00  0.00    +0.000 A 
ATOM     27  C   UNL     1       3.929  -2.062   0.000  0.00  0.00    +0.000 A 
ATOM     28  C   UNL     1       3.929  -0.412   0.000  0.00  0.00    +0.000 A 
BRANCH  27  29
ATOM     29  N   UNL     1       3.929  -2.888   0.000  0.00  0.00    +0.000 N 
ATOM     30  O   UNL     1       4.644  -3.300   0.000  0.00  0.00    +0.000 OA
ATOM     31  O   UNL     1       3.215  -3.300   0.000  0.00  0.00    +0.000 OA
ENDBRANCH  27  29
ENDBRANCH  22  28
ENDBRANCH  16  22
ENDBRANCH  11  15
ENDBRANCH   5  11
BRANCH   4  32
ATOM     32  S   UNL     1      -1.786   0.412   0.000  0.00  0.00    +0.000 S 
BRANCH  32  37
ATOM     33  C   UNL     1      -3.215   2.062   0.000  0.00  0.00    +0.000 C 
ATOM     34  C   UNL     1      -3.929   1.650   0.000  0.00  0.00    +0.000 C 
ATOM     35  C   UNL     1      -3.929   0.825   0.000  0.00  0.00    +0.000 C 
ATOM     36  C   UNL     1      -3.215   0.412   0.000  0.00  0.00    +0.000 C 
ATOM     37  C   UNL     1      -2.501   0.825   0.000  0.00  0.00    +0.000 C 
ATOM     38  O   UNL     1      -4.644   2.062   0.000  0.00  0.00    +0.000 OA
ATOM     39  O   UNL     1      -4.644   0.412   0.000  0.00  0.00    +0.000 OA
ATOM     40  O   UNL     1      -3.215  -0.412   0.000  0.00  0.00    +0.000 OA
ATOM     41  O   UNL     1      -2.501   1.650   0.000  0.00  0.00    +0.000 OA
BRANCH  33  42
ATOM     42  C   UNL     1      -3.215   2.888   0.000  0.00  0.00    +0.000 C 
ATOM     43  O   UNL     1      -3.929   3.300   0.000  0.00  0.00    +0.000 OA
ENDBRANCH  33  42
ENDBRANCH  32  37
ENDBRANCH   4  32
TORSDOF 10
