REMARK  Name = 
REMARK  16 active torsions:
REMARK  status: ('A' for Active; 'I' for Inactive)
REMARK    1  A    between atoms: P_1  and  O_5
REMARK    2  A    between atoms: O_5  and  C_30
REMARK    3  A    between atoms: N_17  and  C_28
REMARK    4  A    between atoms: N_20  and  C_38
REMARK    5  A    between atoms: N_20  and  C_39
REMARK    6  A    between atoms: N_21  and  CA_44
REMARK    7  A    between atoms: C_29  and  C_30
REMARK    8  A    between atoms: C_31  and  C_34
REMARK    9  A    between atoms: C_33  and  C_35
REMARK   10  A    between atoms: C_36  and  C_37
REMARK   11  A    between atoms: C_38  and  C_40
REMARK   12  A    between atoms: C_43  and  C_49
REMARK   13  A    between atoms: CA_44  and  CB_47
REMARK   14  A    between atoms: CA_44  and  C_54
REMARK   15  A    between atoms: CB_47  and  CG_51
REMARK   16  A    between atoms: CG_51  and  CD_56
REMARK                            x       y       z     vdW  Elec       q    Type
REMARK                         _______ _______ _______ _____ _____    ______ ____
ROOT
ATOM      1  O   UNL     1      -1.169  -0.406   0.000  0.00  0.00    +0.000 OA
ATOM      2  N   UNL     1      -0.459   0.834   0.000  0.00  0.00    +0.000 N 
ATOM      3  C   UNL     1      -0.456   0.009   0.000  0.00  0.00    +0.000 C 
ENDROOT
BRANCH   2   4
ATOM      4  C   UNL     1       0.254   1.250   0.000  0.00  0.00    +0.000 A 
ATOM      5  C   UNL     1       0.970   0.840   0.000  0.00  0.00    +0.000 A 
ATOM      6  C   UNL     1       0.250   2.075   0.000  0.00  0.00    +0.000 A 
ATOM      7  C   UNL     1       1.679   2.080   0.000  0.00  0.00    +0.000 A 
ATOM      8  C   UNL     1       1.682   1.255   0.000  0.00  0.00    +0.000 A 
ATOM      9  C   UNL     1       0.963   2.490   0.000  0.00  0.00    +0.000 A 
BRANCH   7  12
ATOM     10  O   UNL     1       3.108   2.086   0.000  0.00  0.00    +0.000 OA
ATOM     11  N   UNL     1       2.389   3.320   0.000  0.00  0.00    +0.000 N 
ATOM     12  C   ACE A   0       2.392   2.495   0.000  0.00  0.00    +0.000 C 
ATOM     13  H   UNL     1       1.945   3.574   0.000  0.00  0.00    +0.000 HD
BRANCH  11  14
ATOM     14  CA  UNL     1       3.102   3.736   0.000  0.00  0.00    +0.000 C 
BRANCH  14  17
ATOM     15  O   UNL     1       3.811   4.976   0.000  0.00  0.00    +0.000 OA
ATOM     16  OXT UNL     1       2.383   4.970   0.000  0.00  0.00    +0.000 OA
ATOM     17  C   UNL     1       3.099   4.561   0.000  0.00  0.00    +0.000 C 
ENDBRANCH  14  17
BRANCH  14  18
ATOM     18  CB  UNL     1       3.818   3.326   0.000  0.00  0.00    +0.000 C 
BRANCH  18  19
ATOM     19  CG  UNL     1       4.531   3.741   0.000  0.00  0.00    +0.000 C 
BRANCH  19  22
ATOM     20  OE1 UNL     1       5.960   3.747   0.000  0.00  0.00    +0.000 OA
ATOM     21  OE2 UNL     1       5.250   2.506   0.000  0.00  0.00    +0.000 OA
ATOM     22  CD  UNL     1       5.247   3.331   0.000  0.00  0.00    +0.000 C 
ENDBRANCH  19  22
ENDBRANCH  18  19
ENDBRANCH  14  18
ENDBRANCH  11  14
ENDBRANCH   7  12
ENDBRANCH   2   4
BRANCH   3  24
ATOM     23  C   UNL     1       0.263  -1.225   0.000  0.00  0.00    +0.000 C 
ATOM     24  C   UNL     1       0.260  -0.400   0.000  0.00  0.00    +0.000 C 
BRANCH  23  27
ATOM     25  N   UNL     1       1.069  -2.455   0.000  0.00  0.00    +0.000 N 
ATOM     26  N   UNL     1       2.286  -1.908   0.000  0.00  0.00    +0.000 NA
ATOM     27  C   UNL     1       0.979  -1.635   0.000  0.00  0.00    +0.000 A 
ATOM     28  C   UNL     1       1.876  -2.623   0.000  0.00  0.00    +0.000 A 
ATOM     29  C   UNL     1       1.731  -1.296   0.000  0.00  0.00    +0.000 A 
BRANCH  25  35
ATOM     30  O   UNL     1      -0.350  -2.841   0.000  0.00  0.00    +0.000 OA
ATOM     31  O   UNL     1       1.263  -4.239   0.000  0.00  0.00    +0.000 OA
ATOM     32  O   UNL     1      -0.374  -4.976   0.000  0.00  0.00    +0.000 OA
ATOM     33  C   UNL     1       0.547  -3.830   0.000  0.00  0.00    +0.000 C 
ATOM     34  C   UNL     1      -0.205  -4.168   0.000  0.00  0.00    +0.000 C 
ATOM     35  C   UNL     1       0.458  -3.010   0.000  0.00  0.00    +0.000 C 
ATOM     36  C   UNL     1      -0.760  -3.557   0.000  0.00  0.00    +0.000 C 
BRANCH  36  37
ATOM     37  C   UNL     1      -1.580  -3.647   0.000  0.00  0.00    +0.000 C 
BRANCH  37  38
ATOM     38  O   UNL     1      -2.067  -2.981   0.000  0.00  0.00    +0.000 OA
BRANCH  38  39
ATOM     39  P   UNL     1      -2.888  -3.071   0.000  0.00  0.00    +0.000 P 
ATOM     40  O   UNL     1      -2.977  -2.250   0.000  0.00  0.00    +0.000 OA
ATOM     41  O   UNL     1      -3.708  -3.160   0.000  0.00  0.00    +0.000 OA
ATOM     42  O   UNL     1      -2.798  -3.891   0.000  0.00  0.00    +0.000 OA
ENDBRANCH  38  39
ENDBRANCH  37  38
ENDBRANCH  36  37
ENDBRANCH  25  35
BRANCH  29  45
ATOM     43  O   UNL     1       1.285   0.061   0.000  0.00  0.00    +0.000 OA
ATOM     44  N   UNL     1       2.683  -0.231   0.000  0.00  0.00    +0.000 N 
ATOM     45  C   UNL     1       1.900  -0.489   0.000  0.00  0.00    +0.000 C 
ATOM     46  H   UNL     1       2.788   0.270   0.000  0.00  0.00    +0.000 HD
ATOM     47  H   UNL     1       3.065  -0.572   0.000  0.00  0.00    +0.000 HD
ENDBRANCH  29  45
ENDBRANCH  23  27
ENDBRANCH   3  24
BRANCH   2  48
ATOM     48  C   UNL     1      -1.175   1.244   0.000  0.00  0.00    +0.000 C 
BRANCH  48  54
ATOM     49  O   UNL     1      -4.088   2.049   0.000  0.00  0.00    +0.000 OA
ATOM     50  N   UNL     1      -2.636   1.253   0.000  0.00  0.00    +0.000 NA
ATOM     51  N   UNL     1      -4.088  -0.426   0.000  0.00  0.00    +0.000 N 
ATOM     52  N   UNL     1      -4.802   0.812   0.000  0.00  0.00    +0.000 NA
ATOM     53  N   UNL     1      -5.517  -0.426   0.000  0.00  0.00    +0.000 N 
ATOM     54  C   UNL     1      -1.888   0.829   0.000  0.00  0.00    +0.000 A 
ATOM     55  C   UNL     1      -1.888  -0.030   0.000  0.00  0.00    +0.000 A 
ATOM     56  C   UNL     1      -3.373   0.812   0.000  0.00  0.00    +0.000 A 
ATOM     57  C   UNL     1      -3.373  -0.013   0.000  0.00  0.00    +0.000 A 
ATOM     58  C   UNL     1      -2.636  -0.454   0.000  0.00  0.00    +0.000 A 
ATOM     59  C   UNL     1      -4.088   1.224   0.000  0.00  0.00    +0.000 A 
ATOM     60  C   UNL     1      -4.802  -0.013   0.000  0.00  0.00    +0.000 A 
ATOM     61  H   UNL     1      -4.088  -0.937   0.000  0.00  0.00    +0.000 HD
ATOM     62  H   UNL     1      -5.960  -0.170   0.000  0.00  0.00    +0.000 HD
ATOM     63  H   UNL     1      -5.517  -0.937   0.000  0.00  0.00    +0.000 HD
ENDBRANCH  48  54
ENDBRANCH   2  48
TORSDOF 16
