REMARK  Name = 
REMARK  9 active torsions:
REMARK  status: ('A' for Active; 'I' for Inactive)
REMARK    1  A    between atoms: C_1  and  C_7
REMARK    2  A    between atoms: C_1  and  N_8
REMARK    3  A    between atoms: N_4  and  C_21
REMARK    4  A    between atoms: C_7  and  O_19
REMARK    5  A    between atoms: N_8  and  C_10
REMARK    6  A    between atoms: C_9  and  C_16
REMARK    7  A    between atoms: C_21  and  C_22
REMARK    8  A    between atoms: C_22  and  N_23
REMARK    9  A    between atoms: N_25  and  C_29
REMARK                            x       y       z     vdW  Elec       q    Type
REMARK                         _______ _______ _______ _____ _____    ______ ____
ROOT
ATOM      1  C   UNL     1      -0.660   0.433   0.000  0.00  0.00    +0.000 C 
ATOM      2  C   UNL     1      -1.361   0.021   0.000  0.00  0.00    +0.000 C 
ATOM      3  C   UNL     1      -1.361  -0.846   0.000  0.00  0.00    +0.000 C 
ATOM      4  N   UNL     1      -0.660  -1.258   0.000  0.00  0.00    +0.000 NA
ATOM      5  C   UNL     1       0.082  -0.846   0.000  0.00  0.00    +0.000 C 
ATOM      6  C   UNL     1       0.082   0.021   0.000  0.00  0.00    +0.000 C 
ENDROOT
BRANCH   1   7
ATOM      7  N   UNL     1      -1.361   0.846   0.000  0.00  0.00    +0.000 N 
ATOM      8  C   UNL     1      -2.021   0.433   0.000  0.00  0.00    +0.000 C 
ATOM      9  O   UNL     1      -2.021  -0.392   0.000  0.00  0.00    +0.000 OA
BRANCH   7  10
ATOM     10  C   UNL     1      -1.361   1.671   0.000  0.00  0.00    +0.000 A 
ATOM     11  C   UNL     1      -0.660   2.083   0.000  0.00  0.00    +0.000 A 
ATOM     12  C   UNL     1      -0.660   2.949   0.000  0.00  0.00    +0.000 A 
ATOM     13  C   UNL     1      -1.361   3.362   0.000  0.00  0.00    +0.000 A 
ATOM     14  C   UNL     1      -2.063   2.908   0.000  0.00  0.00    +0.000 A 
ATOM     15  C   UNL     1      -2.063   2.083   0.000  0.00  0.00    +0.000 A 
ENDBRANCH   7  10
BRANCH   8  16
ATOM     16  C   UNL     1      -2.723   0.846   0.000  0.00  0.00    +0.000 C 
ATOM     17  C   UNL     1      -3.506   0.433   0.000  0.00  0.00    +0.000 C 
ENDBRANCH   8  16
ENDBRANCH   1   7
BRANCH   4  18
ATOM     18  C   UNL     1      -0.660  -2.083   0.000  0.00  0.00    +0.000 C 
BRANCH  18  19
ATOM     19  C   UNL     1       0.041  -2.454   0.000  0.00  0.00    +0.000 C 
BRANCH  19  20
ATOM     20  N   UNL     1       0.784  -2.083   0.000  0.00  0.00    +0.000 N 
ATOM     21  C   UNL     1       1.444  -2.537   0.000  0.00  0.00    +0.000 A 
ATOM     22  N   UNL     1       2.104  -2.042   0.000  0.00  0.00    +0.000 N 
ATOM     23  N   UNL     1       1.856  -1.299   0.000  0.00  0.00    +0.000 NA
ATOM     24  N   UNL     1       1.031  -1.299   0.000  0.00  0.00    +0.000 NA
ATOM     25  O   UNL     1       1.444  -3.362   0.000  0.00  0.00    +0.000 OA
BRANCH  22  26
ATOM     26  C   UNL     1       2.805  -2.454   0.000  0.00  0.00    +0.000 C 
ATOM     27  C   UNL     1       3.506  -2.042   0.000  0.00  0.00    +0.000 C 
ENDBRANCH  22  26
ENDBRANCH  19  20
ENDBRANCH  18  19
ENDBRANCH   4  18
BRANCH   1  28
ATOM     28  C   UNL     1       0.082   0.846   0.000  0.00  0.00    +0.000 C 
BRANCH  28  29
ATOM     29  O   UNL     1       0.784   0.433   0.000  0.00  0.00    +0.000 OA
ATOM     30  C   UNL     1       1.485   0.846   0.000  0.00  0.00    +0.000 C 
ENDBRANCH  28  29
ENDBRANCH   1  28
TORSDOF 9
