REMARK  Name = 
REMARK  0 active torsions:
REMARK  status: ('A' for Active; 'I' for Inactive)
REMARK                            x       y       z     vdW  Elec       q    Type
REMARK                         _______ _______ _______ _____ _____    ______ ____
ROOT
ATOM      1  C   UNL     1      -0.344   0.775   0.000  0.00  0.00    +0.000 A 
ATOM      2  C   UNL     1      -1.058   0.362   0.000  0.00  0.00    +0.000 A 
ATOM      3  C   UNL     1      -1.058  -0.463   0.000  0.00  0.00    +0.000 A 
ATOM      4  C   UNL     1      -0.344  -0.875   0.000  0.00  0.00    +0.000 A 
ATOM      5  C   UNL     1       0.371  -0.463   0.000  0.00  0.00    +0.000 A 
ATOM      6  C   UNL     1       0.371   0.362   0.000  0.00  0.00    +0.000 A 
ATOM      7  C   UNL     1      -1.843  -0.718   0.000  0.00  0.00    +0.000 A 
ATOM      8  N   UNL     1      -2.328  -0.050   0.000  0.00  0.00    +0.000 NA
ATOM      9  O   UNL     1      -1.843   0.617   0.000  0.00  0.00    +0.000 OA
ATOM     10  F   UNL     1      -0.344   1.600   0.000  0.00  0.00    +0.000 F 
ATOM     11  N   UNL     1       1.085   0.775   0.000  0.00  0.00    +0.000 N 
ATOM     12  C   UNL     1       1.800   0.362   0.000  0.00  0.00    +0.000 C 
ATOM     13  C   UNL     1       1.800  -0.463   0.000  0.00  0.00    +0.000 C 
ATOM     14  C   UNL     1       1.085  -0.875   0.000  0.00  0.00    +0.000 C 
ATOM     15  C   UNL     1       1.085   1.600   0.000  0.00  0.00    +0.000 C 
ATOM     16  C   UNL     1       1.800   2.012   0.000  0.00  0.00    +0.000 C 
ATOM     17  O   UNL     1       2.514   1.600   0.000  0.00  0.00    +0.000 OA
ATOM     18  C   UNL     1       2.514   0.775   0.000  0.00  0.00    +0.000 C 
ATOM     19  N   UNL     1       3.180  -0.833   0.000  0.00  0.00    +0.000 NA
ATOM     20  C   UNL     1       2.597  -0.249   0.000  0.00  0.00    +0.000 C 
ATOM     21  C   UNL     1       1.586  -1.260   0.000  0.00  0.00    +0.000 C 
ATOM     22  N   UNL     1       2.170  -1.843   0.000  0.00  0.00    +0.000 NA
ATOM     23  C   UNL     1       2.966  -1.629   0.000  0.00  0.00    +0.000 C 
ATOM     24  C   UNL     1       3.311   0.988   0.000  0.00  0.00    +0.000 C 
ATOM     25  O   UNL     1       3.009   0.465   0.000  0.00  0.00    +0.000 OA
ATOM     26  O   UNL     1       3.550  -2.213   0.000  0.00  0.00    +0.000 OA
ATOM     27  O   UNL     1       0.789  -1.473   0.000  0.00  0.00    +0.000 OA
ATOM     28  C   UNL     1       1.800   2.837   0.000  0.00  0.00    +0.000 C 
ATOM     29  N   UNL     1      -2.098  -1.502   0.000  0.00  0.00    +0.000 N 
ATOM     30  C   UNL     1      -2.882  -1.757   0.000  0.00  0.00    +0.000 C 
ATOM     31  O   UNL     1      -2.882  -2.582   0.000  0.00  0.00    +0.000 OA
ATOM     32  C   UNL     1      -2.098  -2.837   0.000  0.00  0.00    +0.000 C 
ATOM     33  C   UNL     1      -1.613  -2.170   0.000  0.00  0.00    +0.000 C 
ATOM     34  O   UNL     1      -3.550  -1.272   0.000  0.00  0.00    +0.000 OA
ATOM     35  C   UNL     1      -0.788  -2.170   0.000  0.00  0.00    +0.000 C 
ENDROOT
TORSDOF 0
