REMARK  Name = 
REMARK  10 active torsions:
REMARK  status: ('A' for Active; 'I' for Inactive)
REMARK    1  A    between atoms: C_2  and  C_3
REMARK    2  A    between atoms: C_3  and  O_4
REMARK    3  A    between atoms: O_4  and  C_5
REMARK    4  A    between atoms: C_11  and  C_26
REMARK    5  A    between atoms: C_12  and  C_23
REMARK    6  A    between atoms: C_13  and  C_14
REMARK    7  A    between atoms: C_29  and  O_36
REMARK    8  A    between atoms: C_31  and  O_32
REMARK    9  A    between atoms: O_32  and  C_33
REMARK   10  A    between atoms: C_33  and  C_34
REMARK                            x       y       z     vdW  Elec       q    Type
REMARK                         _______ _______ _______ _____ _____    ______ ____
ROOT
ATOM      1  C   UNL     1       6.434   1.669   0.000  0.00  0.00    +0.000 A 
ATOM      2  C   UNL     1       5.882   1.056   0.000  0.00  0.00    +0.000 A 
ATOM      3  C   UNL     1       5.075   1.228   0.000  0.00  0.00    +0.000 A 
ATOM      4  C   UNL     1       4.820   2.012   0.000  0.00  0.00    +0.000 A 
ATOM      5  C   UNL     1       5.372   2.626   0.000  0.00  0.00    +0.000 A 
ATOM      6  C   UNL     1       6.179   2.454   0.000  0.00  0.00    +0.000 A 
ATOM      7  C   UNL     1       4.960   3.340   0.000  0.00  0.00    +0.000 C 
ATOM      8  C   UNL     1       4.153   3.168   0.000  0.00  0.00    +0.000 C 
ATOM      9  C   UNL     1       4.067   2.348   0.000  0.00  0.00    +0.000 C 
ENDROOT
BRANCH   9  10
ATOM     10  C   UNL     1       3.352   1.935   0.000  0.00  0.00    +0.000 A 
ATOM     11  C   UNL     1       3.352   1.110   0.000  0.00  0.00    +0.000 A 
ATOM     12  C   UNL     1       2.638   0.698   0.000  0.00  0.00    +0.000 A 
ATOM     13  C   UNL     1       1.923   1.110   0.000  0.00  0.00    +0.000 A 
ATOM     14  C   UNL     1       1.923   1.935   0.000  0.00  0.00    +0.000 A 
ATOM     15  C   UNL     1       2.638   2.348   0.000  0.00  0.00    +0.000 A 
ATOM     16  O   UNL     1       1.139   2.190   0.000  0.00  0.00    +0.000 OA
ATOM     17  C   UNL     1       0.654   1.523   0.000  0.00  0.00    +0.000 C 
ATOM     18  O   UNL     1       1.139   0.856   0.000  0.00  0.00    +0.000 OA
ENDBRANCH   9  10
BRANCH   7  19
ATOM     19  C   UNL     1       5.295   4.094   0.000  0.00  0.00    +0.000 A 
ATOM     20  C   UNL     1       4.811   4.761   0.000  0.00  0.00    +0.000 A 
ATOM     21  C   UNL     1       5.146   5.515   0.000  0.00  0.00    +0.000 A 
ATOM     22  C   UNL     1       5.967   5.601   0.000  0.00  0.00    +0.000 A 
ATOM     23  C   UNL     1       6.452   4.934   0.000  0.00  0.00    +0.000 A 
ATOM     24  C   UNL     1       6.116   4.180   0.000  0.00  0.00    +0.000 A 
BRANCH  22  25
ATOM     25  O   UNL     1       6.302   6.355   0.000  0.00  0.00    +0.000 OA
ATOM     26  C   UNL     1       7.123   6.441   0.000  0.00  0.00    +0.000 C 
ENDBRANCH  22  25
BRANCH  24  27
ATOM     27  O   UNL     1       6.601   3.512   0.000  0.00  0.00    +0.000 OA
BRANCH  27  28
ATOM     28  C   UNL     1       7.421   3.599   0.000  0.00  0.00    +0.000 C 
BRANCH  28  29
ATOM     29  C   UNL     1       7.757   4.352   0.000  0.00  0.00    +0.000 C 
ATOM     30  O   UNL     1       8.577   4.439   0.000  0.00  0.00    +0.000 OA
ENDBRANCH  28  29
ENDBRANCH  27  28
ENDBRANCH  24  27
ENDBRANCH   7  19
BRANCH   8  31
ATOM     31  C   UNL     1       3.540   3.720   0.000  0.00  0.00    +0.000 C 
ATOM     32  O   UNL     1       2.755   3.466   0.000  0.00  0.00    +0.000 OA
ATOM     33  O   UNL     1       3.711   4.527   0.000  0.00  0.00    +0.000 OA
ENDBRANCH   8  31
BRANCH   1  34
ATOM     34  O   UNL     1       7.241   1.498   0.000  0.00  0.00    +0.000 OA
BRANCH  34  35
ATOM     35  C   UNL     1       7.793   2.111   0.000  0.00  0.00    +0.000 C 
BRANCH  35  37
ATOM     36  C   UNL     1       9.152   2.553   0.000  0.00  0.00    +0.000 C 
ATOM     37  C   UNL     1       8.600   1.939   0.000  0.00  0.00    +0.000 C 
ENDBRANCH  35  37
ENDBRANCH  34  35
ENDBRANCH   1  34
TORSDOF 10
