REMARK  Name = 
REMARK  11 active torsions:
REMARK  status: ('A' for Active; 'I' for Inactive)
REMARK    1  A    between atoms: C_1  and  C_7
REMARK    2  A    between atoms: C_2  and  C_8
REMARK    3  A    between atoms: N_19  and  C_20
REMARK    4  A    between atoms: N_19  and  C_21
REMARK    5  A    between atoms: C_20  and  C_24
REMARK    6  A    between atoms: C_24  and  C_25
REMARK    7  A    between atoms: C_25  and  C_26
REMARK    8  A    between atoms: C_26  and  O_27
REMARK    9  A    between atoms: O_27  and  C_28
REMARK   10  A    between atoms: C_28  and  C_29
REMARK   11  A    between atoms: N_30  and  S_31
REMARK                            x       y       z     vdW  Elec       q    Type
REMARK                         _______ _______ _______ _____ _____    ______ ____
ROOT
ATOM      1  C   UNL     1      -3.522   0.410   0.000  0.00  0.00    +0.000 A 
ATOM      2  C   UNL     1      -3.522  -0.414   0.000  0.00  0.00    +0.000 A 
ATOM      3  N   UNL     1      -2.807  -0.827   0.000  0.00  0.00    +0.000 NA
ATOM      4  C   UNL     1      -2.093  -0.414   0.000  0.00  0.00    +0.000 A 
ATOM      5  C   UNL     1      -2.093   0.410   0.000  0.00  0.00    +0.000 A 
ATOM      6  N   UNL     1      -2.807   0.823   0.000  0.00  0.00    +0.000 NA
ATOM      7  N   UNL     1      -1.367   0.830   0.000  0.00  0.00    +0.000 N 
ENDROOT
BRANCH   1   8
ATOM      8  C   UNL     1      -4.236   0.823   0.000  0.00  0.00    +0.000 A 
ATOM      9  C   UNL     1      -4.236   1.648   0.000  0.00  0.00    +0.000 A 
ATOM     10  C   UNL     1      -4.951   2.061   0.000  0.00  0.00    +0.000 A 
ATOM     11  C   UNL     1      -5.665   1.648   0.000  0.00  0.00    +0.000 A 
ATOM     12  C   UNL     1      -5.665   0.823   0.000  0.00  0.00    +0.000 A 
ATOM     13  C   UNL     1      -4.951   0.410   0.000  0.00  0.00    +0.000 A 
ENDBRANCH   1   8
BRANCH   2  14
ATOM     14  C   UNL     1      -4.236  -0.827   0.000  0.00  0.00    +0.000 A 
ATOM     15  C   UNL     1      -4.941  -0.420   0.000  0.00  0.00    +0.000 A 
ATOM     16  C   UNL     1      -5.655  -0.833   0.000  0.00  0.00    +0.000 A 
ATOM     17  C   UNL     1      -5.655  -1.658   0.000  0.00  0.00    +0.000 A 
ATOM     18  C   UNL     1      -4.951  -2.065   0.000  0.00  0.00    +0.000 A 
ATOM     19  C   UNL     1      -4.236  -1.652   0.000  0.00  0.00    +0.000 A 
ENDBRANCH   2  14
BRANCH   7  20
ATOM     20  C   UNL     1      -1.367   1.648   0.000  0.00  0.00    +0.000 C 
ATOM     21  C   UNL     1      -2.089   2.065   0.000  0.00  0.00    +0.000 C 
ATOM     22  C   UNL     1      -0.660   2.057   0.000  0.00  0.00    +0.000 C 
ENDBRANCH   7  20
BRANCH   7  23
ATOM     23  C   UNL     1      -0.657   0.419   0.000  0.00  0.00    +0.000 C 
BRANCH  23  24
ATOM     24  C   UNL     1       0.040   0.822   0.000  0.00  0.00    +0.000 C 
BRANCH  24  25
ATOM     25  C   UNL     1       0.744   0.416   0.000  0.00  0.00    +0.000 C 
BRANCH  25  26
ATOM     26  C   UNL     1       1.444   0.820   0.000  0.00  0.00    +0.000 C 
BRANCH  26  27
ATOM     27  O   UNL     1       2.146   0.415   0.000  0.00  0.00    +0.000 OA
BRANCH  27  28
ATOM     28  C   UNL     1       2.846   0.820   0.000  0.00  0.00    +0.000 C 
BRANCH  28  29
ATOM     29  C   UNL     1       3.548   0.414   0.000  0.00  0.00    +0.000 C 
ATOM     30  N   UNL     1       4.249   0.819   0.000  0.00  0.00    +0.000 NA
ATOM     31  O   UNL     1       3.548  -0.414   0.000  0.00  0.00    +0.000 OA
BRANCH  30  32
ATOM     32  S   UNL     1       4.951   0.414   0.000  0.00  0.00    +0.000 S 
ATOM     33  C   UNL     1       5.665   0.002   0.000  0.00  0.00    +0.000 C 
ATOM     34  O   UNL     1       4.533  -0.310   0.000  0.00  0.00    +0.000 OA
ATOM     35  O   UNL     1       5.357   1.119   0.000  0.00  0.00    +0.000 OA
ENDBRANCH  30  32
ENDBRANCH  28  29
ENDBRANCH  27  28
ENDBRANCH  26  27
ENDBRANCH  25  26
ENDBRANCH  24  25
ENDBRANCH  23  24
ENDBRANCH   7  23
TORSDOF 11
