REMARK  Name = 
REMARK  9 active torsions:
REMARK  status: ('A' for Active; 'I' for Inactive)
REMARK    1  A    between atoms: O_3  and  N_12
REMARK    2  A    between atoms: O_3  and  C_20
REMARK    3  A    between atoms: N_10  and  CA_16
REMARK    4  A    between atoms: C_15  and  CA_16
REMARK    5  A    between atoms: CA_16  and  C_21
REMARK    6  A    between atoms: CA_19  and  C_26
REMARK    7  A    between atoms: C_20  and  C_28
REMARK    8  A    between atoms: C_22  and  C_23
REMARK    9  A    between atoms: C_23  and  C_29
REMARK                            x       y       z     vdW  Elec       q    Type
REMARK                         _______ _______ _______ _____ _____    ______ ____
ROOT
ATOM      1  O   UNL     1      -0.917  -1.601   0.000  0.00  0.00    +0.000 OA
ATOM      2  N   UNL     1      -0.203  -0.364   0.000  0.00  0.00    +0.000 N 
ATOM      3  C   UNL     1      -0.917  -0.776   0.000  0.00  0.00    +0.000 C 
ATOM      4  H   UNL     1      -0.203   0.147   0.000  0.00  0.00    +0.000 HD
ENDROOT
BRANCH   3   6
ATOM      5  N   UNL     1      -1.632   0.461   0.000  0.00  0.00    +0.000 NA
ATOM      6  C   UNL     1      -1.632  -0.364   0.000  0.00  0.00    +0.000 C 
BRANCH   6  10
ATOM      7  S   UNL     1      -3.652  -1.054   0.000  0.00  0.00    +0.000 S 
ATOM      8  N   UNL     1      -2.433  -1.597   0.000  0.00  0.00    +0.000 NA
ATOM      9  N   UNL     1      -3.575  -2.522   0.000  0.00  0.00    +0.000 N 
ATOM     10  C   UNL     1      -2.346  -0.776   0.000  0.00  0.00    +0.000 A 
ATOM     11  C   UNL     1      -3.100  -0.441   0.000  0.00  0.00    +0.000 A 
ATOM     12  C   UNL     1      -3.240  -1.768   0.000  0.00  0.00    +0.000 A 
ATOM     13  H   UNL     1      -3.275  -2.936   0.000  0.00  0.00    +0.000 HD
ATOM     14  H   UNL     1      -4.084  -2.576   0.000  0.00  0.00    +0.000 HD
ENDBRANCH   6  10
BRANCH   5  15
ATOM     15  O   UNL     1      -0.917   0.874   0.000  0.00  0.00    +0.000 OA
BRANCH  15  16
ATOM     16  C   UNL     1      -0.917   1.698   0.000  0.00  0.00    +0.000 C 
ATOM     17  C   UNL     1      -0.092   1.698   0.000  0.00  0.00    +0.000 C 
ATOM     18  C   UNL     1      -1.742   1.698   0.000  0.00  0.00    +0.000 C 
BRANCH  16  21
ATOM     19  O   UNL     1      -1.632   2.936   0.000  0.00  0.00    +0.000 OA
ATOM     20  O   UNL     1      -0.203   2.936   0.000  0.00  0.00    +0.000 OA
ATOM     21  C   UNL     1      -0.917   2.523   0.000  0.00  0.00    +0.000 C 
ENDBRANCH  16  21
ENDBRANCH  15  16
ENDBRANCH   5  15
ENDBRANCH   3   6
BRANCH   2  22
ATOM     22  CA  UNL     1       0.511  -0.776   0.000  0.00  0.00    +0.000 C 
BRANCH  22  25
ATOM     23  S   UNL     1       1.226   0.461   0.000  0.00  0.00    +0.000 S 
ATOM     24  N   UNL     1       1.940  -0.776   0.000  0.00  0.00    +0.000 NA
ATOM     25  C   UNL     1       1.226  -0.364   0.000  0.00  0.00    +0.000 C 
ATOM     26  C   UNL     1       1.940   0.874   0.000  0.00  0.00    +0.000 C 
ATOM     27  C   UNL     1       2.655   0.461   0.000  0.00  0.00    +0.000 C 
ATOM     28  CA  UNL     1       2.655  -0.364   0.000  0.00  0.00    +0.000 C 
ATOM     29  C   UNL     1       3.369   0.874   0.000  0.00  0.00    +0.000 C 
BRANCH  28  32
ATOM     30  O   UNL     1       3.369  -1.601   0.000  0.00  0.00    +0.000 OA
ATOM     31  OXT UNL     1       4.084  -0.364   0.000  0.00  0.00    +0.000 OA
ATOM     32  C   UNL     1       3.369  -0.776   0.000  0.00  0.00    +0.000 C 
ENDBRANCH  28  32
ENDBRANCH  22  25
BRANCH  22  34
ATOM     33  O   UNL     1       1.226  -2.014   0.000  0.00  0.00    +0.000 OA
ATOM     34  C   UNL     1       0.511  -1.601   0.000  0.00  0.00    +0.000 C 
ENDBRANCH  22  34
ENDBRANCH   2  22
TORSDOF 9
