REMARK  Name = 
REMARK  4 active torsions:
REMARK  status: ('A' for Active; 'I' for Inactive)
REMARK    1  A    between atoms: C_8  and  N_12
REMARK    2  A    between atoms: C_14  and  C_15
REMARK    3  A    between atoms: N_20  and  C_21
REMARK    4  A    between atoms: C_25  and  C_30
REMARK                            x       y       z     vdW  Elec       q    Type
REMARK                         _______ _______ _______ _____ _____    ______ ____
ROOT
ATOM      1  N   UNL     1       1.181  -3.548   0.000  0.00  0.00    +0.000 N 
ATOM      2  C   UNL     1       0.374  -3.719   0.000  0.00  0.00    +0.000 A 
ATOM      3  C   UNL     1      -0.178  -3.106   0.000  0.00  0.00    +0.000 A 
ATOM      4  C   UNL     1       0.077  -2.321   0.000  0.00  0.00    +0.000 A 
ATOM      5  O   UNL     1      -0.475  -1.708   0.000  0.00  0.00    +0.000 OA
ATOM      6  N   UNL     1       0.884  -2.150   0.000  0.00  0.00    +0.000 N 
ATOM      7  C   UNL     1       1.436  -2.763   0.000  0.00  0.00    +0.000 A 
ATOM      8  O   UNL     1       2.243  -2.592   0.000  0.00  0.00    +0.000 OA
ENDROOT
BRANCH   1  16
ATOM      9  C   UNL     1       4.070  -6.188   0.000  0.00  0.00    +0.000 C 
ATOM     10  N   UNL     1       3.249  -6.101   0.000  0.00  0.00    +0.000 N 
ATOM     11  C   UNL     1       2.697  -6.715   0.000  0.00  0.00    +0.000 A 
ATOM     12  O   UNL     1       2.869  -7.521   0.000  0.00  0.00    +0.000 OA
ATOM     13  O   UNL     1       1.944  -6.379   0.000  0.00  0.00    +0.000 OA
ATOM     14  C   UNL     1       2.030  -5.559   0.000  0.00  0.00    +0.000 A 
ATOM     15  C   UNL     1       1.478  -4.945   0.000  0.00  0.00    +0.000 A 
ATOM     16  C   UNL     1       1.733  -4.161   0.000  0.00  0.00    +0.000 A 
ATOM     17  C   UNL     1       2.540  -3.989   0.000  0.00  0.00    +0.000 A 
ATOM     18  C   UNL     1       3.092  -4.602   0.000  0.00  0.00    +0.000 A 
ATOM     19  C   UNL     1       2.837  -5.387   0.000  0.00  0.00    +0.000 A 
ENDBRANCH   1  16
BRANCH   6  20
ATOM     20  C   UNL     1       1.139  -1.365   0.000  0.00  0.00    +0.000 C 
ATOM     21  C   UNL     1       0.654  -0.698   0.000  0.00  0.00    +0.000 C 
ATOM     22  C   UNL     1       1.139  -0.030   0.000  0.00  0.00    +0.000 C 
ATOM     23  C   UNL     1       1.923  -0.285   0.000  0.00  0.00    +0.000 A 
ATOM     24  C   UNL     1       2.638   0.127   0.000  0.00  0.00    +0.000 A 
ATOM     25  C   UNL     1       3.352  -0.285   0.000  0.00  0.00    +0.000 A 
ATOM     26  C   UNL     1       3.352  -1.110   0.000  0.00  0.00    +0.000 A 
ATOM     27  C   UNL     1       2.638  -1.523   0.000  0.00  0.00    +0.000 A 
ATOM     28  C   UNL     1       1.923  -1.110   0.000  0.00  0.00    +0.000 A 
BRANCH  24  29
ATOM     29  C   UNL     1       2.638   0.952   0.000  0.00  0.00    +0.000 C 
ATOM     30  F   UNL     1       2.638   1.777   0.000  0.00  0.00    +0.000 F 
ATOM     31  F   UNL     1       3.463   0.952   0.000  0.00  0.00    +0.000 F 
ATOM     32  F   UNL     1       1.813   0.952   0.000  0.00  0.00    +0.000 F 
ENDBRANCH  24  29
ENDBRANCH   6  20
BRANCH   3  33
ATOM     33  C   UNL     1      -0.985  -3.278   0.000  0.00  0.00    +0.000 C 
ATOM     34  O   UNL     1      -1.537  -2.665   0.000  0.00  0.00    +0.000 OA
ATOM     35  O   UNL     1      -1.240  -4.062   0.000  0.00  0.00    +0.000 OA
ENDBRANCH   3  33
TORSDOF 4
