REMARK  Name = 
REMARK  2 active torsions:
REMARK  status: ('A' for Active; 'I' for Inactive)
REMARK    1  A    between atoms: C_2  and  C_9
REMARK    2  A    between atoms: C_4  and  C_18
REMARK                            x       y       z     vdW  Elec       q    Type
REMARK                         _______ _______ _______ _____ _____    ______ ____
ROOT
ATOM      1  C   UNL     1      -0.278  -1.031   0.000  0.00  0.00    +0.000 A 
ATOM      2  C   UNL     1      -0.278  -0.206   0.000  0.00  0.00    +0.000 A 
ATOM      3  C   UNL     1      -0.992   0.206   0.000  0.00  0.00    +0.000 A 
ATOM      4  C   UNL     1      -1.706  -0.206   0.000  0.00  0.00    +0.000 A 
ATOM      5  C   UNL     1      -1.706  -1.031   0.000  0.00  0.00    +0.000 A 
ATOM      6  N   UNL     1      -0.992  -1.444   0.000  0.00  0.00    +0.000 NA
ATOM      7  C   UNL     1       0.437  -1.444   0.000  0.00  0.00    +0.000 C 
ATOM      8  O   UNL     1      -2.421  -1.444   0.000  0.00  0.00    +0.000 OA
ENDROOT
BRANCH   2  11
ATOM      9  C   UNL     1       1.151   1.444   0.000  0.00  0.00    +0.000 A 
ATOM     10  C   UNL     1       0.437   1.031   0.000  0.00  0.00    +0.000 A 
ATOM     11  C   UNL     1       0.437   0.206   0.000  0.00  0.00    +0.000 A 
ATOM     12  C   UNL     1       1.151  -0.206   0.000  0.00  0.00    +0.000 A 
ATOM     13  C   UNL     1       1.866   1.031   0.000  0.00  0.00    +0.000 A 
ATOM     14  N   UNL     1       1.866   0.206   0.000  0.00  0.00    +0.000 N 
ATOM     15  C   UNL     1       2.650  -0.049   0.000  0.00  0.00    +0.000 A 
ATOM     16  C   UNL     1       3.135   0.619   0.000  0.00  0.00    +0.000 A 
ATOM     17  N   UNL     1       2.650   1.286   0.000  0.00  0.00    +0.000 NA
ENDBRANCH   2  11
BRANCH   4  18
ATOM     18  C   UNL     1      -2.421   0.206   0.000  0.00  0.00    +0.000 C 
ATOM     19  N   UNL     1      -3.135   0.619   0.000  0.00  0.00    +0.000 NA
ENDBRANCH   4  18
TORSDOF 2
