REMARK  Name = 
REMARK  17 active torsions:
REMARK  status: ('A' for Active; 'I' for Inactive)
REMARK    1  A    between atoms: C_11  and  O_57
REMARK    2  A    between atoms: C_12  and  O_55
REMARK    3  A    between atoms: C_13  and  O_24
REMARK    4  A    between atoms: C_14  and  C_21
REMARK    5  A    between atoms: C_18  and  O_19
REMARK    6  A    between atoms: O_19  and  C_61
REMARK    7  A    between atoms: C_21  and  C_22
REMARK    8  A    between atoms: O_24  and  C_25
REMARK    9  A    between atoms: C_28  and  O_29
REMARK   10  A    between atoms: O_29  and  C_30
REMARK   11  A    between atoms: C_34  and  O_35
REMARK   12  A    between atoms: O_35  and  C_36
REMARK   13  A    between atoms: C_36  and  C_37
REMARK   14  A    between atoms: C_37  and  C_38
REMARK   15  A    between atoms: C_47  and  N_50
REMARK   16  A    between atoms: O_57  and  C_60
REMARK   17  A    between atoms: C_61  and  C_63
REMARK                            x       y       z     vdW  Elec       q    Type
REMARK                         _______ _______ _______ _____ _____    ______ ____
ROOT
ATOM      1  C   UNL     1      -4.942   0.157   0.000  0.00  0.00    +0.000 C 
ATOM      2  C   UNL     1      -5.636  -0.290   0.000  0.00  0.00    +0.000 C 
ATOM      3  C   UNL     1      -5.636  -1.158   0.000  0.00  0.00    +0.000 C 
ATOM      4  C   UNL     1      -6.384  -1.605   0.000  0.00  0.00    +0.000 C 
ATOM      5  C   UNL     1      -6.384  -2.485   0.000  0.00  0.00    +0.000 C 
ATOM      6  C   UNL     1      -7.331  -3.095   0.000  0.00  0.00    +0.000 C 
ATOM      7  O   UNL     1      -5.616  -2.936   0.000  0.00  0.00    +0.000 OA
ATOM      8  C   UNL     1      -4.895  -2.374   0.000  0.00  0.00    +0.000 C 
ATOM      9  O   UNL     1      -4.895  -1.522   0.000  0.00  0.00    +0.000 OA
ATOM     10  C   UNL     1      -4.127  -2.916   0.000  0.00  0.00    +0.000 C 
ATOM     11  C   UNL     1      -3.374  -2.453   0.000  0.00  0.00    +0.000 C 
ATOM     12  C   UNL     1      -3.374  -1.558   0.000  0.00  0.00    +0.000 C 
ATOM     13  C   UNL     1      -2.582  -1.043   0.000  0.00  0.00    +0.000 C 
ATOM     14  C   UNL     1      -2.582  -0.223   0.000  0.00  0.00    +0.000 C 
ATOM     15  C   UNL     1      -3.402   0.272   0.000  0.00  0.00    +0.000 C 
ATOM     16  C   UNL     1      -3.402   1.052   0.000  0.00  0.00    +0.000 C 
ATOM     17  C   UNL     1      -2.685   1.555   0.000  0.00  0.00    +0.000 C 
ATOM     18  C   UNL     1      -4.154   1.472   0.000  0.00  0.00    +0.000 C 
ATOM     19  C   UNL     1      -4.942   0.941   0.000  0.00  0.00    +0.000 C 
ENDROOT
BRANCH  12  20
ATOM     20  O   UNL     1      -4.139  -1.007   0.000  0.00  0.00    +0.000 OA
ATOM     21  C   UNL     1      -4.139  -0.259   0.000  0.00  0.00    +0.000 C 
ENDBRANCH  12  20
BRANCH  13  22
ATOM     22  O   UNL     1      -1.635  -1.730   0.000  0.00  0.00    +0.000 OA
BRANCH  22  23
ATOM     23  C   UNL     1      -0.743  -1.209   0.000  0.00  0.00    +0.000 C 
ATOM     24  O   UNL     1      -0.074  -1.621   0.000  0.00  0.00    +0.000 OA
ATOM     25  C   UNL     1       0.640  -1.246   0.000  0.00  0.00    +0.000 C 
ATOM     26  C   UNL     1       0.640  -0.459   0.000  0.00  0.00    +0.000 C 
ATOM     27  C   UNL     1      -0.032  -0.048   0.000  0.00  0.00    +0.000 C 
ATOM     28  C   UNL     1      -0.743  -0.423   0.000  0.00  0.00    +0.000 C 
ATOM     29  O   UNL     1      -1.300  -0.075   0.000  0.00  0.00    +0.000 OA
ATOM     30  C   UNL     1       1.295  -1.645   0.000  0.00  0.00    +0.000 C 
BRANCH  27  31
ATOM     31  N   UNL     1      -0.032   0.580   0.000  0.00  0.00    +0.000 NA
ATOM     32  C   UNL     1      -0.649   0.909   0.000  0.00  0.00    +0.000 C 
ATOM     33  C   UNL     1       0.657   0.937   0.000  0.00  0.00    +0.000 C 
ENDBRANCH  27  31
BRANCH  26  34
ATOM     34  O   UNL     1       1.668   0.024   0.000  0.00  0.00    +0.000 OA
BRANCH  34  35
ATOM     35  C   UNL     1       2.350   0.415   0.000  0.00  0.00    +0.000 C 
ATOM     36  C   UNL     1       2.350   1.197   0.000  0.00  0.00    +0.000 C 
ATOM     37  C   UNL     1       3.024   1.589   0.000  0.00  0.00    +0.000 C 
ATOM     38  C   UNL     1       2.317   2.066   0.000  0.00  0.00    +0.000 C 
ATOM     39  C   UNL     1       3.705   1.197   0.000  0.00  0.00    +0.000 C 
ATOM     40  C   UNL     1       3.705   0.415   0.000  0.00  0.00    +0.000 C 
ATOM     41  C   UNL     1       4.380   0.018   0.000  0.00  0.00    +0.000 C 
ATOM     42  O   UNL     1       3.024   0.024   0.000  0.00  0.00    +0.000 OA
ATOM     43  O   UNL     1       3.626   2.181   0.000  0.00  0.00    +0.000 OA
BRANCH  39  44
ATOM     44  O   UNL     1       4.379   1.589   0.000  0.00  0.00    +0.000 OA
BRANCH  44  45
ATOM     45  C   UNL     1       5.053   1.190   0.000  0.00  0.00    +0.000 C 
ATOM     46  O   UNL     1       5.053   0.406   0.000  0.00  0.00    +0.000 OA
BRANCH  45  47
ATOM     47  C   UNL     1       5.731   1.583   0.000  0.00  0.00    +0.000 C 
BRANCH  47  48
ATOM     48  C   UNL     1       6.531   1.115   0.000  0.00  0.00    +0.000 C 
ATOM     49  C   UNL     1       7.331   1.579   0.000  0.00  0.00    +0.000 C 
ATOM     50  C   UNL     1       6.531   0.193   0.000  0.00  0.00    +0.000 C 
ENDBRANCH  47  48
ENDBRANCH  45  47
ENDBRANCH  44  45
ENDBRANCH  39  44
ENDBRANCH  34  35
ENDBRANCH  26  34
ENDBRANCH  22  23
ENDBRANCH  13  22
BRANCH  11  51
ATOM     51  O   UNL     1      -2.503  -2.952   0.000  0.00  0.00    +0.000 OA
BRANCH  51  54
ATOM     52  O   UNL     1      -1.390  -2.518   0.000  0.00  0.00    +0.000 OA
ATOM     53  C   UNL     1      -1.581  -3.879   0.000  0.00  0.00    +0.000 C 
ATOM     54  C   UNL     1      -1.858  -3.092   0.000  0.00  0.00    +0.000 C 
ENDBRANCH  51  54
ENDBRANCH  11  51
BRANCH  18  55
ATOM     55  O   UNL     1      -4.154   2.474   0.000  0.00  0.00    +0.000 OA
BRANCH  55  56
ATOM     56  C   UNL     1      -4.741   2.825   0.000  0.00  0.00    +0.000 C 
ATOM     57  O   UNL     1      -5.238   2.329   0.000  0.00  0.00    +0.000 OA
BRANCH  56  58
ATOM     58  C   UNL     1      -4.741   3.528   0.000  0.00  0.00    +0.000 C 
ATOM     59  C   UNL     1      -5.350   3.879   0.000  0.00  0.00    +0.000 C 
ENDBRANCH  56  58
ENDBRANCH  55  56
ENDBRANCH  18  55
BRANCH  14  60
ATOM     60  C   UNL     1      -1.984   0.197   0.000  0.00  0.00    +0.000 C 
BRANCH  60  61
ATOM     61  C   UNL     1      -1.984   1.028   0.000  0.00  0.00    +0.000 C 
ATOM     62  O   UNL     1      -1.271   1.504   0.000  0.00  0.00    +0.000 OA
ENDBRANCH  60  61
ENDBRANCH  14  60
TORSDOF 17
