REMARK  Name = 
REMARK  3 active torsions:
REMARK  status: ('A' for Active; 'I' for Inactive)
REMARK    1  A    between atoms: C_5  and  O_15
REMARK    2  A    between atoms: O_15  and  C_16
REMARK    3  A    between atoms: C_16  and  C_17
REMARK                            x       y       z     vdW  Elec       q    Type
REMARK                         _______ _______ _______ _____ _____    ______ ____
ROOT
ATOM      1  C   UNL     1       0.948  -1.573   0.000  0.00  0.00    +0.000 C 
ATOM      2  N   UNL     1       1.663  -1.161   0.000  0.00  0.00    +0.000 NA
ATOM      3  C   UNL     1       1.663  -0.336   0.000  0.00  0.00    +0.000 C 
ATOM      4  C   UNL     1       0.948   0.076   0.000  0.00  0.00    +0.000 C 
ATOM      5  C   UNL     1       0.234  -0.336   0.000  0.00  0.00    +0.000 C 
ATOM      6  C   UNL     1       0.234  -1.161   0.000  0.00  0.00    +0.000 C 
ATOM      7  C   UNL     1       2.377   0.076   0.000  0.00  0.00    +0.000 C 
ATOM      8  C   UNL     1       3.092  -0.336   0.000  0.00  0.00    +0.000 C 
ATOM      9  C   UNL     1       3.092  -1.161   0.000  0.00  0.00    +0.000 C 
ATOM     10  C   UNL     1       2.377  -1.573   0.000  0.00  0.00    +0.000 C 
ATOM     11  O   UNL     1       3.806  -1.573   0.000  0.00  0.00    +0.000 OA
ATOM     12  C   UNL     1       1.589  -1.926   0.000  0.00  0.00    +0.000 C 
ENDROOT
BRANCH   5  13
ATOM     13  O   UNL     1      -0.179   0.378   0.000  0.00  0.00    +0.000 OA
BRANCH  13  14
ATOM     14  C   UNL     1      -1.004   0.378   0.000  0.00  0.00    +0.000 C 
ATOM     15  O   UNL     1      -1.416  -0.336   0.000  0.00  0.00    +0.000 OA
BRANCH  14  16
ATOM     16  C   UNL     1      -1.416   1.093   0.000  0.00  0.00    +0.000 A 
ATOM     17  C   UNL     1      -1.081   1.847   0.000  0.00  0.00    +0.000 A 
ATOM     18  N   UNL     1      -1.694   2.399   0.000  0.00  0.00    +0.000 NA
ATOM     19  C   UNL     1      -2.408   1.986   0.000  0.00  0.00    +0.000 A 
ATOM     20  C   UNL     1      -2.237   1.179   0.000  0.00  0.00    +0.000 A 
ATOM     21  C   UNL     1      -3.193   2.241   0.000  0.00  0.00    +0.000 A 
ATOM     22  C   UNL     1      -3.806   1.689   0.000  0.00  0.00    +0.000 A 
ATOM     23  C   UNL     1      -3.634   0.882   0.000  0.00  0.00    +0.000 A 
ATOM     24  C   UNL     1      -2.850   0.627   0.000  0.00  0.00    +0.000 A 
ENDBRANCH  14  16
ENDBRANCH  13  14
ENDBRANCH   5  13
TORSDOF 3
