REMARK  Name = 
REMARK  3 active torsions:
REMARK  status: ('A' for Active; 'I' for Inactive)
REMARK    1  A    between atoms: C_2  and  C_4
REMARK    2  A    between atoms: C_2  and  C_26
REMARK    3  A    between atoms: C_4  and  N_5
REMARK                            x       y       z     vdW  Elec       q    Type
REMARK                         _______ _______ _______ _____ _____    ______ ____
ROOT
ATOM      1  N   UNL     1       2.317   3.167   0.000  0.00  0.00    +0.000 NA
ATOM      2  C   UNL     1       3.140   3.105   0.000  0.00  0.00    +0.000 C 
ATOM      3  C   UNL     1       3.498   2.362   0.000  0.00  0.00    +0.000 C 
ATOM      4  N   UNL     1       3.033   1.680   0.000  0.00  0.00    +0.000 N 
ATOM      5  C   UNL     1       2.211   1.742   0.000  0.00  0.00    +0.000 C 
ATOM      6  C   UNL     1       1.853   2.485   0.000  0.00  0.00    +0.000 C 
ATOM      7  C   UNL     1       3.391   0.937   0.000  0.00  0.00    +0.000 C 
ATOM      8  N   UNL     1       4.216   0.937   0.000  0.00  0.00    +0.000 NA
ATOM      9  C   UNL     1       4.731   0.292   0.000  0.00  0.00    +0.000 A 
ATOM     10  C   UNL     1       5.519   0.535   0.000  0.00  0.00    +0.000 A 
ATOM     11  C   UNL     1       6.124  -0.026   0.000  0.00  0.00    +0.000 A 
ATOM     12  C   UNL     1       5.940  -0.830   0.000  0.00  0.00    +0.000 A 
ATOM     13  C   UNL     1       5.152  -1.073   0.000  0.00  0.00    +0.000 A 
ATOM     14  C   UNL     1       4.547  -0.512   0.000  0.00  0.00    +0.000 A 
ATOM     15  O   UNL     1       3.804  -0.870   0.000  0.00  0.00    +0.000 OA
ATOM     16  C   UNL     1       3.060  -0.512   0.000  0.00  0.00    +0.000 A 
ATOM     17  C   UNL     1       2.456  -1.073   0.000  0.00  0.00    +0.000 A 
ATOM     18  C   UNL     1       1.667  -0.830   0.000  0.00  0.00    +0.000 A 
ATOM     19  C   UNL     1       1.484  -0.026   0.000  0.00  0.00    +0.000 A 
ATOM     20  C   UNL     1       2.088   0.535   0.000  0.00  0.00    +0.000 A 
ATOM     21  C   UNL     1       2.877   0.292   0.000  0.00  0.00    +0.000 A 
ENDROOT
BRANCH   1  22
ATOM     22  C   UNL     1       1.959   3.910   0.000  0.00  0.00    +0.000 C 
BRANCH  22  24
ATOM     23  C   UNL     1       3.106   4.127   0.000  0.00  0.00    +0.000 C 
ATOM     24  C   UNL     1       2.424   4.592   0.000  0.00  0.00    +0.000 C 
ATOM     25  C   UNL     1       1.742   5.057   0.000  0.00  0.00    +0.000 C 
BRANCH  24  26
ATOM     26  C   UNL     1       2.889   5.274   0.000  0.00  0.00    +0.000 C 
ATOM     27  O   UNL     1       2.531   6.017   0.000  0.00  0.00    +0.000 OA
ATOM     28  O   UNL     1       3.712   5.212   0.000  0.00  0.00    +0.000 OA
ENDBRANCH  24  26
ENDBRANCH  22  24
ENDBRANCH   1  22
TORSDOF 3
