REMARK  Name = 
REMARK  21 active torsions:
REMARK  status: ('A' for Active; 'I' for Inactive)
REMARK    1  A    between atoms: P_1  and  O_6
REMARK    2  A    between atoms: P_2  and  O_8
REMARK    3  A    between atoms: P_2  and  O_11
REMARK    4  A    between atoms: P_3  and  O_11
REMARK    5  A    between atoms: P_3  and  O_12
REMARK    6  A    between atoms: O_6  and  C_30
REMARK    7  A    between atoms: O_8  and  C_34
REMARK    8  A    between atoms: O_12  and  C_40
REMARK    9  A    between atoms: N_23  and  C_33
REMARK   10  A    between atoms: N_27  and  C_43
REMARK   11  A    between atoms: N_28  and  C_46
REMARK   12  A    between atoms: N_29  and  C_49
REMARK   13  A    between atoms: C_32  and  C_34
REMARK   14  A    between atoms: C_38  and  C_39
REMARK   15  A    between atoms: C_38  and  C_40
REMARK   16  A    between atoms: C_39  and  C_44
REMARK   17  A    between atoms: C_46  and  C_47
REMARK   18  A    between atoms: C_47  and  C_48
REMARK   19  A    between atoms: C_49  and  C_50
REMARK   20  A    between atoms: C_50  and  C_51
REMARK   21  A    between atoms: C_51  and  C_52
REMARK                            x       y       z     vdW  Elec       q    Type
REMARK                         _______ _______ _______ _____ _____    ______ ____
ROOT
ATOM      1  P   UNL     1      -3.391   1.714   0.000  0.00  0.00    +0.000 P 
ATOM      2  O   UNL     1      -2.907   1.046   0.000  0.00  0.00    +0.000 OA
ATOM      3  O   UNL     1      -3.875   2.382   0.000  0.00  0.00    +0.000 OA
ENDROOT
BRANCH   1   4
ATOM      4  O   UNL     1      -2.723   2.198   0.000  0.00  0.00    +0.000 OA
BRANCH   4   5
ATOM      5  P   UNL     1      -1.970   1.861   0.000  0.00  0.00    +0.000 P 
ATOM      6  O   UNL     1      -1.633   2.614   0.000  0.00  0.00    +0.000 OA
ATOM      7  O   UNL     1      -2.307   1.108   0.000  0.00  0.00    +0.000 OA
BRANCH   5   8
ATOM      8  O   UNL     1      -1.216   1.524   0.000  0.00  0.00    +0.000 OA
BRANCH   8   9
ATOM      9  C   UNL     1      -0.548   2.008   0.000  0.00  0.00    +0.000 C 
BRANCH   9  10
ATOM     10  C   UNL     1       0.205   1.671   0.000  0.00  0.00    +0.000 C 
ATOM     11  C   UNL     1      -0.132   0.918   0.000  0.00  0.00    +0.000 C 
ATOM     12  C   UNL     1       0.542   2.424   0.000  0.00  0.00    +0.000 C 
BRANCH  10  14
ATOM     13  O   UNL     1       1.043   0.514   0.000  0.00  0.00    +0.000 OA
ATOM     14  C   UNL     1       0.958   1.334   0.000  0.00  0.00    +0.000 C 
BRANCH  14  17
ATOM     15  O   UNL     1       1.541   2.639   0.000  0.00  0.00    +0.000 OA
ATOM     16  N   UNL     1       2.379   1.481   0.000  0.00  0.00    +0.000 N 
ATOM     17  C   UNL     1       1.626   1.818   0.000  0.00  0.00    +0.000 C 
ATOM     18  H   UNL     1       2.432   0.972   0.000  0.00  0.00    +0.000 HD
BRANCH  16  19
ATOM     19  C   UNL     1       3.047   1.965   0.000  0.00  0.00    +0.000 C 
BRANCH  19  20
ATOM     20  C   UNL     1       3.800   1.628   0.000  0.00  0.00    +0.000 C 
BRANCH  20  23
ATOM     21  O   UNL     1       4.384   2.932   0.000  0.00  0.00    +0.000 OA
ATOM     22  N   UNL     1       5.222   1.775   0.000  0.00  0.00    +0.000 N 
ATOM     23  C   UNL     1       4.469   2.112   0.000  0.00  0.00    +0.000 C 
ATOM     24  H   UNL     1       5.274   1.266   0.000  0.00  0.00    +0.000 HD
BRANCH  22  25
ATOM     25  C   UNL     1       5.890   2.259   0.000  0.00  0.00    +0.000 C 
BRANCH  25  26
ATOM     26  C   UNL     1       6.643   1.922   0.000  0.00  0.00    +0.000 C 
BRANCH  26  28
ATOM     27  F   UNL     1       7.227   3.226   0.000  0.00  0.00    +0.000 F 
ATOM     28  C   UNL     1       7.312   2.405   0.000  0.00  0.00    +0.000 C 
BRANCH  28  31
ATOM     29  O   UNL     1       8.733   2.552   0.000  0.00  0.00    +0.000 OA
ATOM     30  O   UNL     1       8.150   1.248   0.000  0.00  0.00    +0.000 OA
ATOM     31  C   UNL     1       8.065   2.069   0.000  0.00  0.00    +0.000 C 
ENDBRANCH  28  31
ENDBRANCH  26  28
ENDBRANCH  25  26
ENDBRANCH  22  25
ENDBRANCH  20  23
ENDBRANCH  19  20
ENDBRANCH  16  19
ENDBRANCH  14  17
ENDBRANCH  10  14
ENDBRANCH   9  10
ENDBRANCH   8   9
ENDBRANCH   5   8
ENDBRANCH   4   5
ENDBRANCH   1   4
BRANCH   1  32
ATOM     32  O   UNL     1      -4.059   1.230   0.000  0.00  0.00    +0.000 OA
BRANCH  32  33
ATOM     33  C   UNL     1      -4.812   1.567   0.000  0.00  0.00    +0.000 C 
BRANCH  33  38
ATOM     34  O   UNL     1      -5.482   0.258   0.000  0.00  0.00    +0.000 OA
ATOM     35  O   UNL     1      -7.576   0.674   0.000  0.00  0.00    +0.000 OA
ATOM     36  C   UNL     1      -6.265   1.340   0.000  0.00  0.00    +0.000 C 
ATOM     37  C   UNL     1      -6.751   0.673   0.000  0.00  0.00    +0.000 C 
ATOM     38  C   UNL     1      -5.481   1.083   0.000  0.00  0.00    +0.000 C 
ATOM     39  C   UNL     1      -6.267   0.005   0.000  0.00  0.00    +0.000 C 
BRANCH  39  40
ATOM     40  N   UNL     1      -6.524  -0.779   0.000  0.00  0.00    +0.000 N 
ATOM     41  N   UNL     1      -6.524  -2.107   0.000  0.00  0.00    +0.000 NA
ATOM     42  N   UNL     1      -8.019  -0.618   0.000  0.00  0.00    +0.000 NA
ATOM     43  N   UNL     1      -8.733  -1.856   0.000  0.00  0.00    +0.000 NA
ATOM     44  C   UNL     1      -7.304  -1.031   0.000  0.00  0.00    +0.000 A 
ATOM     45  C   UNL     1      -6.042  -1.443   0.000  0.00  0.00    +0.000 A 
ATOM     46  C   UNL     1      -7.304  -1.856   0.000  0.00  0.00    +0.000 A 
ATOM     47  C   UNL     1      -8.019  -2.268   0.000  0.00  0.00    +0.000 A 
ATOM     48  C   UNL     1      -8.733  -1.031   0.000  0.00  0.00    +0.000 A 
BRANCH  47  49
ATOM     49  N   UNL     1      -8.019  -3.093   0.000  0.00  0.00    +0.000 N 
ATOM     50  H   UNL     1      -8.461  -3.349   0.000  0.00  0.00    +0.000 HD
ATOM     51  H   UNL     1      -7.576  -3.349   0.000  0.00  0.00    +0.000 HD
ENDBRANCH  47  49
ENDBRANCH  39  40
BRANCH  36  52
ATOM     52  O   UNL     1      -6.518   2.125   0.000  0.00  0.00    +0.000 OA
BRANCH  52  53
ATOM     53  P   UNL     1      -5.965   2.737   0.000  0.00  0.00    +0.000 P 
ATOM     54  O   UNL     1      -6.577   3.290   0.000  0.00  0.00    +0.000 OA
ATOM     55  O   UNL     1      -5.412   3.349   0.000  0.00  0.00    +0.000 OA
ATOM     56  O   UNL     1      -5.353   2.184   0.000  0.00  0.00    +0.000 OA
ENDBRANCH  52  53
ENDBRANCH  36  52
ENDBRANCH  33  38
ENDBRANCH  32  33
ENDBRANCH   1  32
TORSDOF 21
