REMARK  Name = 
REMARK  7 active torsions:
REMARK  status: ('A' for Active; 'I' for Inactive)
REMARK    1  A    between atoms: O_2  and  C_3
REMARK    2  A    between atoms: C_6  and  C_9
REMARK    3  A    between atoms: C_9  and  C_24
REMARK    4  A    between atoms: N_12  and  C_16
REMARK    5  A    between atoms: C_16  and  C_17
REMARK    6  A    between atoms: C_17  and  N_18
REMARK    7  A    between atoms: C_27  and  O_30
REMARK                            x       y       z     vdW  Elec       q    Type
REMARK                         _______ _______ _______ _____ _____    ______ ____
ROOT
ATOM      1  C   UNL     1       1.184  -1.057   0.000  0.00  0.00    +0.000 C 
ATOM      2  C   UNL     1       1.851  -1.542   0.000  0.00  0.00    +0.000 C 
ATOM      3  O   UNL     1       2.636  -1.287   0.000  0.00  0.00    +0.000 OA
ATOM      4  N   UNL     1       1.597  -2.327   0.000  0.00  0.00    +0.000 N 
ATOM      5  C   UNL     1       0.772  -2.327   0.000  0.00  0.00    +0.000 C 
ATOM      6  O   UNL     1       0.287  -2.994   0.000  0.00  0.00    +0.000 OA
ATOM      7  N   UNL     1       0.517  -1.542   0.000  0.00  0.00    +0.000 NA
ENDROOT
BRANCH   1   8
ATOM      8  C   UNL     1       1.736  -0.444   0.000  0.00  0.00    +0.000 A 
ATOM      9  C   UNL     1       1.481   0.341   0.000  0.00  0.00    +0.000 A 
ATOM     10  C   UNL     1       2.033   0.954   0.000  0.00  0.00    +0.000 A 
ATOM     11  C   UNL     1       2.840   0.782   0.000  0.00  0.00    +0.000 A 
ATOM     12  C   UNL     1       3.095  -0.003   0.000  0.00  0.00    +0.000 A 
ATOM     13  C   UNL     1       2.543  -0.616   0.000  0.00  0.00    +0.000 A 
BRANCH  11  14
ATOM     14  O   UNL     1       3.392   1.395   0.000  0.00  0.00    +0.000 OA
ATOM     15  C   UNL     1       4.199   1.224   0.000  0.00  0.00    +0.000 C 
ENDBRANCH  11  14
ENDBRANCH   1   8
BRANCH   1  19
ATOM     16  C   UNL     1      -0.472   0.782   0.000  0.00  0.00    +0.000 A 
ATOM     17  C   UNL     1       0.335   0.954   0.000  0.00  0.00    +0.000 A 
ATOM     18  C   UNL     1       0.887   0.341   0.000  0.00  0.00    +0.000 A 
ATOM     19  C   UNL     1       0.632  -0.444   0.000  0.00  0.00    +0.000 A 
ATOM     20  C   UNL     1      -0.175  -0.616   0.000  0.00  0.00    +0.000 A 
ATOM     21  C   UNL     1      -0.727  -0.003   0.000  0.00  0.00    +0.000 A 
BRANCH  16  23
ATOM     22  C   UNL     1      -1.831   1.224   0.000  0.00  0.00    +0.000 C 
ATOM     23  O   UNL     1      -1.024   1.395   0.000  0.00  0.00    +0.000 OA
ENDBRANCH  16  23
ENDBRANCH   1  19
BRANCH   4  24
ATOM     24  C   UNL     1       2.082  -2.994   0.000  0.00  0.00    +0.000 C 
BRANCH  24  25
ATOM     25  C   UNL     1       2.902  -2.908   0.000  0.00  0.00    +0.000 C 
BRANCH  25  26
ATOM     26  N   UNL     1       3.387  -3.575   0.000  0.00  0.00    +0.000 NA
ATOM     27  C   UNL     1       4.207  -3.489   0.000  0.00  0.00    +0.000 C 
ATOM     28  C   UNL     1       4.692  -4.157   0.000  0.00  0.00    +0.000 C 
ATOM     29  C   UNL     1       4.357  -4.910   0.000  0.00  0.00    +0.000 C 
ATOM     30  C   UNL     1       3.536  -4.997   0.000  0.00  0.00    +0.000 C 
ATOM     31  C   UNL     1       3.051  -4.329   0.000  0.00  0.00    +0.000 C 
ENDBRANCH  25  26
ENDBRANCH  24  25
ENDBRANCH   4  24
TORSDOF 7
