REMARK  Name = 
REMARK  7 active torsions:
REMARK  status: ('A' for Active; 'I' for Inactive)
REMARK    1  A    between atoms: C_2  and  C_3
REMARK    2  A    between atoms: C_3  and  C_4
REMARK    3  A    between atoms: C_4  and  C_5
REMARK    4  A    between atoms: C_5  and  C_6
REMARK    5  A    between atoms: C_6  and  C_7
REMARK    6  A    between atoms: C_7  and  C_10
REMARK    7  A    between atoms: C_21  and  C_24
REMARK                            x       y       z     vdW  Elec       q    Type
REMARK                         _______ _______ _______ _____ _____    ______ ____
ROOT
ATOM      1  C   UNL     1       4.014   0.412   0.000  0.00  0.00    +0.000 A 
ATOM      2  C   UNL     1       3.602  -0.302   0.000  0.00  0.00    +0.000 A 
ATOM      3  C   UNL     1       2.777  -0.302   0.000  0.00  0.00    +0.000 A 
ATOM      4  C   UNL     1       2.365   0.412   0.000  0.00  0.00    +0.000 A 
ATOM      5  C   UNL     1       2.777   1.127   0.000  0.00  0.00    +0.000 A 
ATOM      6  C   UNL     1       3.602   1.127   0.000  0.00  0.00    +0.000 A 
ATOM      7  O   UNL     1       2.365   1.841   0.000  0.00  0.00    +0.000 OA
ATOM      8  C   UNL     1       1.540   1.841   0.000  0.00  0.00    +0.000 C 
ATOM      9  C   UNL     1       1.127   1.127   0.000  0.00  0.00    +0.000 C 
ATOM     10  C   UNL     1       1.540   0.412   0.000  0.00  0.00    +0.000 C 
ATOM     11  C   UNL     1       1.127  -0.302   0.000  0.00  0.00    +0.000 C 
ATOM     12  C   UNL     1       0.302  -0.302   0.000  0.00  0.00    +0.000 C 
ATOM     13  C   UNL     1      -0.111   0.412   0.000  0.00  0.00    +0.000 C 
ATOM     14  C   UNL     1       0.302   1.127   0.000  0.00  0.00    +0.000 C 
ATOM     15  C   UNL     1       1.511   2.666   0.000  0.00  0.00    +0.000 C 
ATOM     16  C   UNL     1       0.840   2.279   0.000  0.00  0.00    +0.000 C 
ATOM     17  O   UNL     1       2.365  -1.016   0.000  0.00  0.00    +0.000 OA
ENDROOT
BRANCH   1  18
ATOM     18  C   UNL     1       4.840   0.412   0.000  0.00  0.00    +0.000 C 
ATOM     19  C   UNL     1       4.840   1.238   0.000  0.00  0.00    +0.000 C 
ATOM     20  C   UNL     1       4.840  -0.412   0.000  0.00  0.00    +0.000 C 
BRANCH  18  21
ATOM     21  C   UNL     1       5.665   0.412   0.000  0.00  0.00    +0.000 C 
BRANCH  21  22
ATOM     22  C   UNL     1       6.077   1.127   0.000  0.00  0.00    +0.000 C 
BRANCH  22  23
ATOM     23  C   UNL     1       6.902   1.127   0.000  0.00  0.00    +0.000 C 
BRANCH  23  24
ATOM     24  C   UNL     1       7.314   1.841   0.000  0.00  0.00    +0.000 C 
BRANCH  24  26
ATOM     25  C   UNL     1       8.552   2.556   0.000  0.00  0.00    +0.000 C 
ATOM     26  C   UNL     1       8.139   1.841   0.000  0.00  0.00    +0.000 C 
ENDBRANCH  24  26
ENDBRANCH  23  24
ENDBRANCH  22  23
ENDBRANCH  21  22
ENDBRANCH  18  21
ENDBRANCH   1  18
BRANCH  12  27
ATOM     27  C   UNL     1      -0.111  -1.016   0.000  0.00  0.00    +0.000 C 
ATOM     28  O   UNL     1       0.302  -1.731   0.000  0.00  0.00    +0.000 OA
ENDBRANCH  12  27
TORSDOF 7
