REMARK  Name = 
REMARK  2 active torsions:
REMARK  status: ('A' for Active; 'I' for Inactive)
REMARK    1  A    between atoms: O_1  and  C_6
REMARK    2  A    between atoms: O_1  and  C_13
REMARK                            x       y       z     vdW  Elec       q    Type
REMARK                         _______ _______ _______ _____ _____    ______ ____
ROOT
ATOM      1  C   UNL     1      -0.712   0.155   0.000  0.00  0.00    +0.000 C 
ATOM      2  C   UNL     1      -0.861   1.089   0.000  0.00  0.00    +0.000 C 
ATOM      3  C   UNL     1      -0.963  -0.283   0.000  0.00  0.00    +0.000 C 
ATOM      4  C   UNL     1       0.247  -0.411   0.000  0.00  0.00    +0.000 C 
ATOM      5  C   UNL     1       0.004  -0.811   0.000  0.00  0.00    +0.000 C 
ATOM      6  C   UNL     1      -1.841  -0.283   0.000  0.00  0.00    +0.000 C 
ATOM      7  C   UNL     1      -2.130  -0.748   0.000  0.00  0.00    +0.000 C 
ATOM      8  C   UNL     1      -0.256   0.535   0.000  0.00  0.00    +0.000 C 
ATOM      9  C   UNL     1      -1.602   1.451   0.000  0.00  0.00    +0.000 C 
ATOM     10  C   UNL     1      -0.170   1.540   0.000  0.00  0.00    +0.000 C 
ENDROOT
BRANCH   4  11
ATOM     11  O   UNL     1       0.950  -0.411   0.000  0.00  0.00    +0.000 OA
BRANCH  11  13
ATOM     12  O   UNL     1       1.576  -1.540   0.000  0.00  0.00    +0.000 OA
ATOM     13  C   UNL     1       1.576  -0.837   0.000  0.00  0.00    +0.000 C 
ATOM     14  C   UNL     1       2.130  -0.398   0.000  0.00  0.00    +0.000 C 
ENDBRANCH  11  13
ENDBRANCH   4  11
TORSDOF 2
