REMARK  Name = 
REMARK  4 active torsions:
REMARK  status: ('A' for Active; 'I' for Inactive)
REMARK    1  A    between atoms: C_5  and  C_9
REMARK    2  A    between atoms: C_5  and  O_16
REMARK    3  A    between atoms: C_6  and  C_10
REMARK    4  A    between atoms: C_7  and  O_16
REMARK                            x       y       z     vdW  Elec       q    Type
REMARK                         _______ _______ _______ _____ _____    ______ ____
ROOT
ATOM      1  C   UNL     1       0.714  -1.238   0.000  0.00  0.00    +0.000 C 
ATOM      2  C   UNL     1       1.429  -0.825   0.000  0.00  0.00    +0.000 C 
ATOM      3  C   UNL     1       0.000  -0.825   0.000  0.00  0.00    +0.000 C 
ATOM      4  C   UNL     1       1.429   0.000   0.000  0.00  0.00    +0.000 C 
ATOM      5  C   UNL     1       0.000   0.000   0.000  0.00  0.00    +0.000 C 
ATOM      6  C   UNL     1       0.714   0.412   0.000  0.00  0.00    +0.000 C 
ATOM      7  O   UNL     1       0.714   1.238   0.000  0.00  0.00    +0.000 OA
ENDROOT
BRANCH   4   8
ATOM      8  C   UNL     1       2.143   0.412   0.000  0.00  0.00    +0.000 C 
ATOM      9  O   UNL     1       2.143   1.238   0.000  0.00  0.00    +0.000 OA
ATOM     10  O   UNL     1       2.858   0.000   0.000  0.00  0.00    +0.000 OA
ENDBRANCH   4   8
BRANCH   5  11
ATOM     11  O   UNL     1      -0.714   0.412   0.000  0.00  0.00    +0.000 OA
BRANCH  11  13
ATOM     12  C   UNL     1      -1.429  -0.825   0.000  0.00  0.00    +0.000 C 
ATOM     13  C   UNL     1      -1.429   0.000   0.000  0.00  0.00    +0.000 C 
BRANCH  13  14
ATOM     14  C   UNL     1      -2.143   0.412   0.000  0.00  0.00    +0.000 C 
ATOM     15  O   UNL     1      -2.858   0.000   0.000  0.00  0.00    +0.000 OA
ATOM     16  O   UNL     1      -2.143   1.238   0.000  0.00  0.00    +0.000 OA
ENDBRANCH  13  14
ENDBRANCH  11  13
ENDBRANCH   5  11
TORSDOF 4
