REMARK  Name = 
REMARK  4 active torsions:
REMARK  status: ('A' for Active; 'I' for Inactive)
REMARK    1  A    between atoms: C_4  and  C_9
REMARK    2  A    between atoms: N_11  and  C_12
REMARK    3  A    between atoms: C_19  and  C_20
REMARK    4  A    between atoms: C_20  and  C_21
REMARK                            x       y       z     vdW  Elec       q    Type
REMARK                         _______ _______ _______ _____ _____    ______ ____
ROOT
ATOM      1  C   UNL     1       0.096   0.658   0.000  0.00  0.00    +0.000 C 
ATOM      2  C   UNL     1       0.811   1.071   0.000  0.00  0.00    +0.000 C 
ATOM      3  C   UNL     1       1.525   0.658   0.000  0.00  0.00    +0.000 C 
ATOM      4  C   UNL     1       1.525  -0.167   0.000  0.00  0.00    +0.000 C 
ATOM      5  N   UNL     1       0.811  -0.579   0.000  0.00  0.00    +0.000 NA
ATOM      6  C   UNL     1       0.948  -0.029   0.000  0.00  0.00    +0.000 C 
ATOM      7  C   UNL     1       0.948   0.521   0.000  0.00  0.00    +0.000 C 
ATOM      8  C   UNL     1       0.096  -0.167   0.000  0.00  0.00    +0.000 C 
ENDROOT
BRANCH   1  11
ATOM      9  C   UNL     1      -0.618   1.896   0.000  0.00  0.00    +0.000 C 
ATOM     10  O   UNL     1       0.096   2.308   0.000  0.00  0.00    +0.000 OA
ATOM     11  N   UNL     1      -0.618   1.071   0.000  0.00  0.00    +0.000 NA
BRANCH   9  15
ATOM     12  F   UNL     1      -2.047   4.371   0.000  0.00  0.00    +0.000 F 
ATOM     13  C   UNL     1      -2.047   3.546   0.000  0.00  0.00    +0.000 A 
ATOM     14  C   UNL     1      -1.333   3.133   0.000  0.00  0.00    +0.000 A 
ATOM     15  C   UNL     1      -1.333   2.308   0.000  0.00  0.00    +0.000 A 
ATOM     16  C   UNL     1      -2.047   1.896   0.000  0.00  0.00    +0.000 A 
ATOM     17  C   UNL     1      -2.762   2.308   0.000  0.00  0.00    +0.000 A 
ATOM     18  F   UNL     1      -3.476   1.896   0.000  0.00  0.00    +0.000 F 
ATOM     19  C   UNL     1      -2.762   3.133   0.000  0.00  0.00    +0.000 A 
ENDBRANCH   9  15
ENDBRANCH   1  11
BRANCH   8  20
ATOM     20  C   UNL     1      -0.618  -0.579   0.000  0.00  0.00    +0.000 C 
BRANCH  20  21
ATOM     21  C   UNL     1      -1.333  -0.167   0.000  0.00  0.00    +0.000 A 
ATOM     22  C   UNL     1      -2.047  -0.579   0.000  0.00  0.00    +0.000 A 
ATOM     23  N   UNL     1      -2.762  -0.167   0.000  0.00  0.00    +0.000 NA
ATOM     24  C   UNL     1      -2.762   0.658   0.000  0.00  0.00    +0.000 A 
ATOM     25  C   UNL     1      -2.047   1.071   0.000  0.00  0.00    +0.000 A 
ATOM     26  C   UNL     1      -1.333   0.658   0.000  0.00  0.00    +0.000 A 
ENDBRANCH  20  21
ENDBRANCH   8  20
TORSDOF 4
