REMARK  Name = 
REMARK  3 active torsions:
REMARK  status: ('A' for Active; 'I' for Inactive)
REMARK    1  A    between atoms: C_1  and  C_13
REMARK    2  A    between atoms: C_8  and  C_10
REMARK    3  A    between atoms: N_9  and  C_10
REMARK                            x       y       z     vdW  Elec       q    Type
REMARK                         _______ _______ _______ _____ _____    ______ ____
ROOT
ATOM      1  N   UNL     1      -0.373   0.130   0.000  0.00  0.00    +0.000 NA
ATOM      2  C   UNL     1       0.112   0.798   0.000  0.00  0.00    +0.000 C 
ATOM      3  S   UNL     1      -0.143   1.582   0.000  0.00  0.00    +0.000 S 
ATOM      4  C   UNL     1       0.525   2.067   0.000  0.00  0.00    +0.000 C 
ATOM      5  C   UNL     1       1.192   1.582   0.000  0.00  0.00    +0.000 C 
ATOM      6  N   UNL     1       0.937   0.798   0.000  0.00  0.00    +0.000 NA
ATOM      7  O   UNL     1       1.977   1.837   0.000  0.00  0.00    +0.000 OA
ATOM      8  C   UNL     1       1.077   2.680   0.000  0.00  0.00    +0.000 C 
ENDROOT
BRANCH   4   9
ATOM      9  C   UNL     1      -0.027   2.680   0.000  0.00  0.00    +0.000 C 
ATOM     10  C   UNL     1      -0.640   2.128   0.000  0.00  0.00    +0.000 C 
ATOM     11  O   UNL     1       0.586   3.232   0.000  0.00  0.00    +0.000 OA
ATOM     12  C   UNL     1      -0.579   3.293   0.000  0.00  0.00    +0.000 C 
ENDBRANCH   4   9
BRANCH   1  13
ATOM     13  C   UNL     1      -0.037  -0.624   0.000  0.00  0.00    +0.000 C 
ATOM     14  C   UNL     1       0.783  -0.710   0.000  0.00  0.00    +0.000 C 
BRANCH  13  20
ATOM     15  C   UNL     1      -0.186  -2.045   0.000  0.00  0.00    +0.000 A 
ATOM     16  C   UNL     1      -0.671  -2.712   0.000  0.00  0.00    +0.000 A 
ATOM     17  C   UNL     1      -1.492  -2.626   0.000  0.00  0.00    +0.000 A 
ATOM     18  C   UNL     1      -1.827  -1.872   0.000  0.00  0.00    +0.000 A 
ATOM     19  C   UNL     1      -1.343  -1.205   0.000  0.00  0.00    +0.000 A 
ATOM     20  C   UNL     1      -0.522  -1.291   0.000  0.00  0.00    +0.000 A 
ATOM     21  F   UNL     1      -1.977  -3.293   0.000  0.00  0.00    +0.000 F 
ENDBRANCH  13  20
ENDBRANCH   1  13
TORSDOF 3
