REMARK  Name = 
REMARK  9 active torsions:
REMARK  status: ('A' for Active; 'I' for Inactive)
REMARK    1  A    between atoms: C_2  and  C_5
REMARK    2  A    between atoms: C_5  and  O_7
REMARK    3  A    between atoms: O_7  and  C_8
REMARK    4  A    between atoms: C_11  and  S_14
REMARK    5  A    between atoms: S_14  and  N_17
REMARK    6  A    between atoms: N_17  and  C_18
REMARK    7  A    between atoms: C_23  and  C_24
REMARK    8  A    between atoms: N_26  and  C_27
REMARK    9  A    between atoms: C_27  and  C_28
REMARK                            x       y       z     vdW  Elec       q    Type
REMARK                         _______ _______ _______ _____ _____    ______ ____
ROOT
ATOM      1  S   UNL     1       0.000   1.650   0.000  0.00  0.00    +0.000 S 
ATOM      2  O   UNL     1      -0.412   0.935   0.000  0.00  0.00    +0.000 OA
ATOM      3  O   UNL     1       0.412   2.365   0.000  0.00  0.00    +0.000 OA
ENDROOT
BRANCH   1   7
ATOM      4  C   UNL     1      -2.143   2.888   0.000  0.00  0.00    +0.000 A 
ATOM      5  C   UNL     1      -1.429   3.300   0.000  0.00  0.00    +0.000 A 
ATOM      6  C   UNL     1      -0.715   2.888   0.000  0.00  0.00    +0.000 A 
ATOM      7  C   UNL     1      -0.715   2.062   0.000  0.00  0.00    +0.000 A 
ATOM      8  C   UNL     1      -1.429   1.650   0.000  0.00  0.00    +0.000 A 
ATOM      9  C   UNL     1      -2.143   2.062   0.000  0.00  0.00    +0.000 A 
BRANCH   4  10
ATOM     10  O   UNL     1      -2.858   3.300   0.000  0.00  0.00    +0.000 OA
BRANCH  10  11
ATOM     11  C   UNL     1      -3.572   2.888   0.000  0.00  0.00    +0.000 C 
ATOM     12  O   UNL     1      -3.572   2.062   0.000  0.00  0.00    +0.000 OA
BRANCH  11  14
ATOM     13  C   UNL     1      -5.001   3.712   0.000  0.00  0.00    +0.000 C 
ATOM     14  C   UNL     1      -4.287   3.300   0.000  0.00  0.00    +0.000 C 
ATOM     15  C   UNL     1      -4.699   2.586   0.000  0.00  0.00    +0.000 C 
ATOM     16  C   UNL     1      -3.874   4.014   0.000  0.00  0.00    +0.000 C 
ENDBRANCH  11  14
ENDBRANCH  10  11
ENDBRANCH   4  10
ENDBRANCH   1   7
BRANCH   1  17
ATOM     17  N   UNL     1       0.715   1.238   0.000  0.00  0.00    +0.000 NA
BRANCH  17  18
ATOM     18  C   UNL     1       1.429   1.650   0.000  0.00  0.00    +0.000 A 
ATOM     19  C   UNL     1       1.429   2.475   0.000  0.00  0.00    +0.000 A 
ATOM     20  C   UNL     1       2.143   2.888   0.000  0.00  0.00    +0.000 A 
ATOM     21  C   UNL     1       2.858   2.475   0.000  0.00  0.00    +0.000 A 
ATOM     22  C   UNL     1       2.858   1.650   0.000  0.00  0.00    +0.000 A 
ATOM     23  C   UNL     1       2.143   1.238   0.000  0.00  0.00    +0.000 A 
BRANCH  23  24
ATOM     24  C   UNL     1       2.143   0.412   0.000  0.00  0.00    +0.000 C 
ATOM     25  O   UNL     1       1.429   0.000   0.000  0.00  0.00    +0.000 OA
ATOM     26  N   UNL     1       2.858   0.000   0.000  0.00  0.00    +0.000 NA
BRANCH  26  27
ATOM     27  C   UNL     1       3.572   0.412   0.000  0.00  0.00    +0.000 C 
BRANCH  27  28
ATOM     28  C   UNL     1       4.287   0.000   0.000  0.00  0.00    +0.000 C 
ATOM     29  O   UNL     1       5.001   0.412   0.000  0.00  0.00    +0.000 OA
ATOM     30  O   UNL     1       4.287  -0.825   0.000  0.00  0.00    +0.000 OA
ENDBRANCH  27  28
ENDBRANCH  26  27
ENDBRANCH  23  24
ENDBRANCH  17  18
ENDBRANCH   1  17
TORSDOF 9
