REMARK  Name = 
REMARK  11 active torsions:
REMARK  status: ('A' for Active; 'I' for Inactive)
REMARK    1  A    between atoms: P_1  and  O_7
REMARK    2  A    between atoms: P_1  and  O_12
REMARK    3  A    between atoms: P_2  and  O_12
REMARK    4  A    between atoms: P_2  and  O_17
REMARK    5  A    between atoms: P_3  and  O_17
REMARK    6  A    between atoms: O_7  and  C_36
REMARK    7  A    between atoms: N_23  and  C_34
REMARK    8  A    between atoms: N_24  and  C_37
REMARK    9  A    between atoms: N_25  and  C_38
REMARK   10  A    between atoms: N_30  and  C_45
REMARK   11  A    between atoms: C_33  and  C_36
REMARK                            x       y       z     vdW  Elec       q    Type
REMARK                         _______ _______ _______ _____ _____    ______ ____
ROOT
ATOM      1  O   UNL     1       0.129  -1.212   0.000  0.00  0.00    +0.000 OA
ATOM      2  O   UNL     1      -1.206  -1.212   0.000  0.00  0.00    +0.000 OA
ATOM      3  O   UNL     1      -0.539   0.835   0.000  0.00  0.00    +0.000 OA
ATOM      4  O   UNL     1       0.176  -4.584   0.000  0.00  0.00    +0.000 OA
ATOM      5  O   UNL     1      -1.253  -4.584   0.000  0.00  0.00    +0.000 OA
ATOM      6  N   UNL     1      -0.539  -4.172   0.000  0.00  0.00    +0.000 N 
ATOM      7  C   UNL     1      -0.126  -0.427   0.000  0.00  0.00    +0.000 C 
ATOM      8  C   UNL     1      -0.951  -0.427   0.000  0.00  0.00    +0.000 C 
ATOM      9  C   UNL     1       0.125   0.353   0.000  0.00  0.00    +0.000 C 
ATOM     10  C   UNL     1      -1.203   0.353   0.000  0.00  0.00    +0.000 C 
ATOM     11  C   UNL     1      -0.539  -1.697   0.000  0.00  0.00    +0.000 C 
ATOM     12  C   UNL     1      -1.253  -2.109   0.000  0.00  0.00    +0.000 C 
ATOM     13  C   UNL     1       0.176  -2.109   0.000  0.00  0.00    +0.000 C 
ATOM     14  C   UNL     1      -1.253  -2.934   0.000  0.00  0.00    +0.000 C 
ATOM     15  C   UNL     1       0.176  -2.934   0.000  0.00  0.00    +0.000 C 
ATOM     16  C   UNL     1      -0.539  -3.347   0.000  0.00  0.00    +0.000 C 
ENDROOT
BRANCH  10  17
ATOM     17  N   UNL     1      -1.987   0.610   0.000  0.00  0.00    +0.000 N 
ATOM     18  N   UNL     1      -3.315   0.610   0.000  0.00  0.00    +0.000 NA
ATOM     19  N   UNL     1      -1.826   2.105   0.000  0.00  0.00    +0.000 NA
ATOM     20  N   UNL     1      -3.063   2.819   0.000  0.00  0.00    +0.000 NA
ATOM     21  C   UNL     1      -2.238   1.390   0.000  0.00  0.00    +0.000 A 
ATOM     22  C   UNL     1      -2.651   0.128   0.000  0.00  0.00    +0.000 A 
ATOM     23  C   UNL     1      -3.063   1.390   0.000  0.00  0.00    +0.000 A 
ATOM     24  C   UNL     1      -3.476   2.105   0.000  0.00  0.00    +0.000 A 
ATOM     25  C   UNL     1      -2.238   2.819   0.000  0.00  0.00    +0.000 A 
BRANCH  24  26
ATOM     26  N   UNL     1      -4.301   2.105   0.000  0.00  0.00    +0.000 N 
ATOM     27  H   UNL     1      -4.556   2.548   0.000  0.00  0.00    +0.000 HD
ATOM     28  H   UNL     1      -4.556   1.662   0.000  0.00  0.00    +0.000 HD
ENDBRANCH  24  26
ENDBRANCH  10  17
BRANCH  12  31
ATOM     29  O   UNL     1      -2.682  -2.109   0.000  0.00  0.00    +0.000 OA
ATOM     30  O   UNL     1      -1.968  -0.872   0.000  0.00  0.00    +0.000 OA
ATOM     31  N   UNL     1      -1.968  -1.697   0.000  0.00  0.00    +0.000 N 
ENDBRANCH  12  31
BRANCH  13  34
ATOM     32  O   UNL     1       1.605  -2.109   0.000  0.00  0.00    +0.000 OA
ATOM     33  O   UNL     1       0.890  -0.872   0.000  0.00  0.00    +0.000 OA
ATOM     34  N   UNL     1       0.890  -1.697   0.000  0.00  0.00    +0.000 N 
ENDBRANCH  13  34
BRANCH   9  35
ATOM     35  C   UNL     1       0.909   0.610   0.000  0.00  0.00    +0.000 C 
BRANCH  35  36
ATOM     36  O   UNL     1       1.079   1.417   0.000  0.00  0.00    +0.000 OA
BRANCH  36  37
ATOM     37  P   UNL     1       1.864   1.673   0.000  0.00  0.00    +0.000 P 
ATOM     38  O   UNL     1       1.607   2.457   0.000  0.00  0.00    +0.000 OA
ATOM     39  O   UNL     1       2.120   0.889   0.000  0.00  0.00    +0.000 OA
BRANCH  37  40
ATOM     40  O   UNL     1       2.648   1.929   0.000  0.00  0.00    +0.000 OA
BRANCH  40  41
ATOM     41  P   UNL     1       2.818   2.737   0.000  0.00  0.00    +0.000 P 
ATOM     42  O   UNL     1       3.625   2.567   0.000  0.00  0.00    +0.000 OA
ATOM     43  O   UNL     1       2.011   2.907   0.000  0.00  0.00    +0.000 OA
BRANCH  41  44
ATOM     44  O   UNL     1       2.988   3.544   0.000  0.00  0.00    +0.000 OA
BRANCH  44  45
ATOM     45  P   UNL     1       3.772   3.800   0.000  0.00  0.00    +0.000 P 
ATOM     46  O   UNL     1       4.556   4.056   0.000  0.00  0.00    +0.000 OA
ATOM     47  O   UNL     1       3.516   4.584   0.000  0.00  0.00    +0.000 OA
ATOM     48  O   UNL     1       4.029   3.016   0.000  0.00  0.00    +0.000 OA
ENDBRANCH  44  45
ENDBRANCH  41  44
ENDBRANCH  40  41
ENDBRANCH  37  40
ENDBRANCH  36  37
ENDBRANCH  35  36
ENDBRANCH   9  35
TORSDOF 11
