REMARK  Name = 
REMARK  3 active torsions:
REMARK  status: ('A' for Active; 'I' for Inactive)
REMARK    1  A    between atoms: CA_2  and  C_3
REMARK    2  A    between atoms: CA_2  and  C_9
REMARK    3  A    between atoms: C_3  and  C_4
REMARK                            x       y       z     vdW  Elec       q    Type
REMARK                         _______ _______ _______ _____ _____    ______ ____
ROOT
ATOM      1  C   UNL     1      -0.080   0.726   0.000  0.00  0.00    +0.000 C 
ENDROOT
BRANCH   1   2
ATOM      2  C   UNL     1      -0.794   0.314   0.000  0.00  0.00    +0.000 A 
ATOM      3  C   UNL     1      -0.794  -0.511   0.000  0.00  0.00    +0.000 A 
ATOM      4  C   UNL     1      -2.064  -0.099   0.000  0.00  0.00    +0.000 A 
ATOM      5  N   UNL     1      -1.579   0.568   0.000  0.00  0.00    +0.000 NA
ATOM      6  N   UNL     1      -1.579  -0.766   0.000  0.00  0.00    +0.000 N 
ATOM      7  C   UNL     1      -1.834  -1.551   0.000  0.00  0.00    +0.000 C 
ENDBRANCH   1   2
BRANCH   1   9
ATOM      8  N   UNL     1       0.635  -0.511   0.000  0.00  0.00    +0.000 NA
ATOM      9  CA  UNL     1       0.635   0.314   0.000  0.00  0.00    +0.000 C 
BRANCH   9  11
ATOM     10  O   UNL     1       2.064   0.314   0.000  0.00  0.00    +0.000 OA
ATOM     11  C   UNL     1       1.349   0.726   0.000  0.00  0.00    +0.000 C 
ATOM     12  OXT UNL     1       1.349   1.551   0.000  0.00  0.00    +0.000 OA
ENDBRANCH   9  11
ENDBRANCH   1   9
TORSDOF 3
