REMARK  Name = 
REMARK  4 active torsions:
REMARK  status: ('A' for Active; 'I' for Inactive)
REMARK    1  A    between atoms: N_17  and  C_20
REMARK    2  A    between atoms: C_20  and  N_22
REMARK    3  A    between atoms: N_22  and  C_23
REMARK    4  A    between atoms: C_23  and  C_24
REMARK                            x       y       z     vdW  Elec       q    Type
REMARK                         _______ _______ _______ _____ _____    ______ ____
ROOT
ATOM      1  C   UNL     1       0.692  -2.641   0.000  0.00  0.00    +0.000 A 
ATOM      2  C   UNL     1      -0.128  -2.727   0.000  0.00  0.00    +0.000 A 
ATOM      3  C   UNL     1      -0.613  -2.059   0.000  0.00  0.00    +0.000 A 
ATOM      4  C   UNL     1      -0.278  -1.306   0.000  0.00  0.00    +0.000 A 
ATOM      5  C   UNL     1       0.543  -1.220   0.000  0.00  0.00    +0.000 A 
ATOM      6  C   UNL     1       1.028  -1.887   0.000  0.00  0.00    +0.000 A 
ATOM      7  C   UNL     1       0.715  -0.412   0.000  0.00  0.00    +0.000 A 
ATOM      8  C   UNL     1       0.000   0.000   0.000  0.00  0.00    +0.000 A 
ATOM      9  O   UNL     1      -0.613  -0.552   0.000  0.00  0.00    +0.000 OA
ATOM     10  C   UNL     1       0.000   0.825   0.000  0.00  0.00    +0.000 A 
ATOM     11  N   UNL     1       0.715   1.238   0.000  0.00  0.00    +0.000 NA
ATOM     12  C   UNL     1       1.429   0.825   0.000  0.00  0.00    +0.000 A 
ATOM     13  N   UNL     1       1.429   0.000   0.000  0.00  0.00    +0.000 NA
ATOM     14  N   UNL     1      -0.715   1.238   0.000  0.00  0.00    +0.000 N 
ATOM     15  C   UNL     1      -1.429   0.825   0.000  0.00  0.00    +0.000 C 
ATOM     16  C   UNL     1      -2.143   1.238   0.000  0.00  0.00    +0.000 C 
ATOM     17  N   UNL     1      -2.143   2.062   0.000  0.00  0.00    +0.000 N 
ATOM     18  C   UNL     1      -1.429   2.475   0.000  0.00  0.00    +0.000 C 
ATOM     19  C   UNL     1      -0.715   2.062   0.000  0.00  0.00    +0.000 C 
ENDROOT
BRANCH  17  20
ATOM     20  C   UNL     1      -2.858   2.475   0.000  0.00  0.00    +0.000 C 
ATOM     21  S   UNL     1      -2.858   3.300   0.000  0.00  0.00    +0.000 S 
BRANCH  20  22
ATOM     22  N   UNL     1      -3.572   2.062   0.000  0.00  0.00    +0.000 NA
BRANCH  22  23
ATOM     23  C   UNL     1      -4.287   2.475   0.000  0.00  0.00    +0.000 C 
BRANCH  23  24
ATOM     24  C   UNL     1      -5.001   2.062   0.000  0.00  0.00    +0.000 A 
ATOM     25  C   UNL     1      -5.001   1.238   0.000  0.00  0.00    +0.000 A 
ATOM     26  C   UNL     1      -5.716   0.825   0.000  0.00  0.00    +0.000 A 
ATOM     27  C   UNL     1      -6.430   1.238   0.000  0.00  0.00    +0.000 A 
ATOM     28  C   UNL     1      -6.430   2.062   0.000  0.00  0.00    +0.000 A 
ATOM     29  C   UNL     1      -5.716   2.475   0.000  0.00  0.00    +0.000 A 
ATOM     30  O   UNL     1      -7.215   2.317   0.000  0.00  0.00    +0.000 OA
ATOM     31  C   UNL     1      -7.700   1.650   0.000  0.00  0.00    +0.000 C 
ATOM     32  O   UNL     1      -7.215   0.983   0.000  0.00  0.00    +0.000 OA
ENDBRANCH  23  24
ENDBRANCH  22  23
ENDBRANCH  20  22
ENDBRANCH  17  20
TORSDOF 4
