REMARK  Name = 
REMARK  11 active torsions:
REMARK  status: ('A' for Active; 'I' for Inactive)
REMARK    1  A    between atoms: C_2  and  C_3
REMARK    2  A    between atoms: C_3  and  C_4
REMARK    3  A    between atoms: C_4  and  O_5
REMARK    4  A    between atoms: C_4  and  C_23
REMARK    5  A    between atoms: O_5  and  C_6
REMARK    6  A    between atoms: C_10  and  N_11
REMARK    7  A    between atoms: C_13  and  C_16
REMARK    8  A    between atoms: C_26  and  C_29
REMARK    9  A    between atoms: N_31  and  C_32
REMARK   10  A    between atoms: C_32  and  C_33
REMARK   11  A    between atoms: C_33  and  C_34
REMARK                            x       y       z     vdW  Elec       q    Type
REMARK                         _______ _______ _______ _____ _____    ______ ____
ROOT
ATOM      1  C   UNL     1      -2.143   3.712   0.000  0.00  0.00    +0.000 C 
ENDROOT
BRANCH   1   2
ATOM      2  C   UNL     1      -1.429   3.300   0.000  0.00  0.00    +0.000 A 
ATOM      3  C   UNL     1      -0.715   3.712   0.000  0.00  0.00    +0.000 A 
ATOM      4  C   UNL     1       0.000   3.300   0.000  0.00  0.00    +0.000 A 
ATOM      5  C   UNL     1       0.000   2.475   0.000  0.00  0.00    +0.000 A 
ATOM      6  C   UNL     1      -0.715   2.062   0.000  0.00  0.00    +0.000 A 
ATOM      7  C   UNL     1      -1.429   2.475   0.000  0.00  0.00    +0.000 A 
BRANCH   5   8
ATOM      8  C   UNL     1       0.715   2.062   0.000  0.00  0.00    +0.000 C 
ATOM      9  O   UNL     1       0.715   1.238   0.000  0.00  0.00    +0.000 OA
ATOM     10  N   UNL     1       1.429   2.475   0.000  0.00  0.00    +0.000 NA
BRANCH  10  11
ATOM     11  C   UNL     1       2.143   2.062   0.000  0.00  0.00    +0.000 C 
BRANCH  11  12
ATOM     12  C   UNL     1       2.858   2.475   0.000  0.00  0.00    +0.000 C 
BRANCH  12  13
ATOM     13  C   UNL     1       3.572   2.062   0.000  0.00  0.00    +0.000 C 
ATOM     14  O   UNL     1       4.287   2.475   0.000  0.00  0.00    +0.000 OA
ATOM     15  O   UNL     1       3.572   1.238   0.000  0.00  0.00    +0.000 OA
ENDBRANCH  12  13
ENDBRANCH  11  12
ENDBRANCH  10  11
ENDBRANCH   5   8
ENDBRANCH   1   2
BRANCH   1  16
ATOM     16  C   UNL     1      -2.143   4.537   0.000  0.00  0.00    +0.000 C 
BRANCH  16  18
ATOM     17  C   UNL     1      -2.858   5.775   0.000  0.00  0.00    +0.000 C 
ATOM     18  C   UNL     1      -2.858   4.950   0.000  0.00  0.00    +0.000 C 
ENDBRANCH  16  18
ENDBRANCH   1  16
BRANCH   1  19
ATOM     19  O   UNL     1      -2.858   3.300   0.000  0.00  0.00    +0.000 OA
BRANCH  19  20
ATOM     20  C   UNL     1      -3.572   3.712   0.000  0.00  0.00    +0.000 A 
ATOM     21  C   UNL     1      -4.287   3.300   0.000  0.00  0.00    +0.000 A 
ATOM     22  C   UNL     1      -5.001   3.712   0.000  0.00  0.00    +0.000 A 
ATOM     23  C   UNL     1      -5.716   3.300   0.000  0.00  0.00    +0.000 C 
ATOM     24  C   UNL     1      -5.001   4.537   0.000  0.00  0.00    +0.000 A 
ATOM     25  C   UNL     1      -4.287   4.950   0.000  0.00  0.00    +0.000 A 
ATOM     26  C   UNL     1      -4.287   5.775   0.000  0.00  0.00    +0.000 C 
ATOM     27  C   UNL     1      -3.572   4.537   0.000  0.00  0.00    +0.000 A 
BRANCH  24  28
ATOM     28  N   UNL     1      -5.716   4.950   0.000  0.00  0.00    +0.000 N 
ATOM     29  C   UNL     1      -6.469   4.614   0.000  0.00  0.00    +0.000 A 
ATOM     30  C   UNL     1      -7.021   5.228   0.000  0.00  0.00    +0.000 A 
ATOM     31  C   UNL     1      -6.609   5.942   0.000  0.00  0.00    +0.000 A 
ATOM     32  N   UNL     1      -5.802   5.771   0.000  0.00  0.00    +0.000 NA
BRANCH  30  33
ATOM     33  C   UNL     1      -7.842   5.141   0.000  0.00  0.00    +0.000 C 
ATOM     34  F   UNL     1      -8.662   5.055   0.000  0.00  0.00    +0.000 F 
ATOM     35  F   UNL     1      -7.756   4.321   0.000  0.00  0.00    +0.000 F 
ATOM     36  F   UNL     1      -7.928   5.962   0.000  0.00  0.00    +0.000 F 
ENDBRANCH  30  33
ENDBRANCH  24  28
ENDBRANCH  19  20
ENDBRANCH   1  19
TORSDOF 11
