REMARK  Name = 
REMARK  0 active torsions:
REMARK  status: ('A' for Active; 'I' for Inactive)
REMARK                            x       y       z     vdW  Elec       q    Type
REMARK                         _______ _______ _______ _____ _____    ______ ____
ROOT
ATOM      1  C   UNL     1      -0.165   0.730   0.000  0.00  0.00    +0.000 A 
ATOM      2  C   UNL     1       0.550   0.317   0.000  0.00  0.00    +0.000 A 
ATOM      3  C   UNL     1       0.550  -0.508   0.000  0.00  0.00    +0.000 A 
ATOM      4  C   UNL     1      -0.165  -0.920   0.000  0.00  0.00    +0.000 A 
ATOM      5  C   UNL     1      -0.879  -0.508   0.000  0.00  0.00    +0.000 A 
ATOM      6  C   UNL     1      -0.879   0.317   0.000  0.00  0.00    +0.000 A 
ATOM      7 BR   UNL     1      -1.594   0.730   0.000  0.00  0.00    +0.000 Br
ATOM      8 BR   UNL     1      -1.594  -0.920   0.000  0.00  0.00    +0.000 Br
ATOM      9 BR   UNL     1      -0.165  -1.745   0.000  0.00  0.00    +0.000 Br
ATOM     10 BR   UNL     1       1.264  -0.920   0.000  0.00  0.00    +0.000 Br
ATOM     11  O   UNL     1       1.264   0.730   0.000  0.00  0.00    +0.000 OA
ATOM     12  O   UNL     1      -0.165   1.555   0.000  0.00  0.00    +0.000 OA
ENDROOT
TORSDOF 0
REMARK  Name = 
REMARK  0 active torsions:
REMARK  status: ('A' for Active; 'I' for Inactive)
REMARK                            x       y       z     vdW  Elec       q    Type
REMARK                         _______ _______ _______ _____ _____    ______ ____
ROOT
ATOM      1  O   HOH     1       4.336   0.000   0.000  0.00  0.00    +0.000 OA
ENDROOT
TORSDOF 0
REMARK  Name = 
REMARK  0 active torsions:
REMARK  status: ('A' for Active; 'I' for Inactive)
REMARK                            x       y       z     vdW  Elec       q    Type
REMARK                         _______ _______ _______ _____ _____    ______ ____
ROOT
ATOM      1 BI   UNL     1       1.978   1.142   0.000  0.00  0.00    +0.000 Bi
ENDROOT
TORSDOF 0
