REMARK  Name = 
REMARK  4 active torsions:
REMARK  status: ('A' for Active; 'I' for Inactive)
REMARK    1  A    between atoms: C_1  and  C_21
REMARK    2  A    between atoms: C_6  and  C_22
REMARK    3  A    between atoms: N_14  and  C_21
REMARK    4  A    between atoms: C_22  and  N_23
REMARK                            x       y       z     vdW  Elec       q    Type
REMARK                         _______ _______ _______ _____ _____    ______ ____
ROOT
ATOM      1  C   UNL     1      -1.700  -1.382   0.000  0.00  0.00    +0.000 C 
ATOM      2  C   UNL     1      -2.442  -0.969   0.000  0.00  0.00    +0.000 C 
ATOM      3  C   UNL     1      -3.143  -1.423   0.000  0.00  0.00    +0.000 C 
ATOM      4  C   UNL     1      -3.143  -2.248   0.000  0.00  0.00    +0.000 C 
ATOM      5  C   UNL     1      -2.401  -2.619   0.000  0.00  0.00    +0.000 C 
ATOM      6  C   UNL     1      -1.700  -2.207   0.000  0.00  0.00    +0.000 C 
ENDROOT
BRANCH   1   7
ATOM      7  C   UNL     1      -0.999  -0.928   0.000  0.00  0.00    +0.000 C 
BRANCH   7  15
ATOM      8  C   UNL     1      -1.452   2.619   0.000  0.00  0.00    +0.000 C 
ATOM      9  C   UNL     1      -0.627   2.619   0.000  0.00  0.00    +0.000 C 
ATOM     10  C   UNL     1      -0.215   1.877   0.000  0.00  0.00    +0.000 C 
ATOM     11  C   UNL     1      -0.627   1.134   0.000  0.00  0.00    +0.000 C 
ATOM     12  C   UNL     1      -1.452   1.134   0.000  0.00  0.00    +0.000 C 
ATOM     13  C   UNL     1      -1.865   1.835   0.000  0.00  0.00    +0.000 C 
ATOM     14  C   UNL     1      -0.380   0.392   0.000  0.00  0.00    +0.000 C 
ATOM     15  N   UNL     1      -0.999  -0.144   0.000  0.00  0.00    +0.000 N 
ATOM     16  C   UNL     1      -1.700   0.351   0.000  0.00  0.00    +0.000 C 
ATOM     17  O   UNL     1      -2.483   0.144   0.000  0.00  0.00    +0.000 OA
ATOM     18  O   UNL     1       0.404   0.144   0.000  0.00  0.00    +0.000 OA
ATOM     19  C   UNL     1      -1.081   1.629   0.000  0.00  0.00    +0.000 C 
ENDBRANCH   7  15
ENDBRANCH   1   7
BRANCH   6  20
ATOM     20  C   UNL     1      -1.016  -2.610   0.000  0.00  0.00    +0.000 C 
BRANCH  20  21
ATOM     21  N   UNL     1      -0.314  -2.178   0.000  0.00  0.00    +0.000 NA
ATOM     22  C   UNL     1      -0.329  -1.365   0.000  0.00  0.00    +0.000 C 
ATOM     23  C   UNL     1       0.373  -0.933   0.000  0.00  0.00    +0.000 C 
ATOM     24  N   UNL     1       1.114  -1.350   0.000  0.00  0.00    +0.000 N 
ATOM     25  C   UNL     1       1.094  -2.184   0.000  0.00  0.00    +0.000 C 
ATOM     26  C   UNL     1       0.391  -2.616   0.000  0.00  0.00    +0.000 C 
ATOM     27  C   UNL     1       1.817  -0.918   0.000  0.00  0.00    +0.000 A 
ATOM     28  C   UNL     1       1.893  -0.097   0.000  0.00  0.00    +0.000 A 
ATOM     29  C   UNL     1       2.712   0.068   0.000  0.00  0.00    +0.000 A 
ATOM     30  S   UNL     1       3.143  -0.635   0.000  0.00  0.00    +0.000 S 
ATOM     31  N   UNL     1       2.570  -1.278   0.000  0.00  0.00    +0.000 NA
ATOM     32  C   UNL     1       1.320   0.520   0.000  0.00  0.00    +0.000 A 
ATOM     33  C   UNL     1       1.567   1.301   0.000  0.00  0.00    +0.000 A 
ATOM     34  C   UNL     1       2.386   1.465   0.000  0.00  0.00    +0.000 A 
ATOM     35  C   UNL     1       2.958   0.848   0.000  0.00  0.00    +0.000 A 
ENDBRANCH  20  21
ENDBRANCH   6  20
TORSDOF 4
