REMARK  Name = 
REMARK  2 active torsions:
REMARK  status: ('A' for Active; 'I' for Inactive)
REMARK    1  A    between atoms: C_11  and  N_23
REMARK    2  A    between atoms: C_12  and  C_17
REMARK                            x       y       z     vdW  Elec       q    Type
REMARK                         _______ _______ _______ _____ _____    ______ ____
ROOT
ATOM      1  C   UNL     1      -1.344  -2.424   0.000  0.00  0.00    +0.000 C 
ATOM      2  C   UNL     1       0.739  -1.772   0.000  0.00  0.00    +0.000 A 
ATOM      3  C   UNL     1      -0.081  -1.681   0.000  0.00  0.00    +0.000 A 
ATOM      4  C   UNL     1       0.896  -0.352   0.000  0.00  0.00    +0.000 A 
ATOM      5  C   UNL     1      -1.624   0.477   0.000  0.00  0.00    +0.000 C 
ATOM      6  C   UNL     1      -1.664  -1.664   0.000  0.00  0.00    +0.000 A 
ATOM      7  C   UNL     1       1.228  -1.108   0.000  0.00  0.00    +0.000 A 
ATOM      8  C   UNL     1       0.076  -0.261   0.000  0.00  0.00    +0.000 A 
ATOM      9  C   UNL     1      -0.412  -0.926   0.000  0.00  0.00    +0.000 A 
ATOM     10  C   UNL     1      -1.776  -0.333   0.000  0.00  0.00    +0.000 A 
ATOM     11  C   UNL     1      -0.138   0.535   0.000  0.00  0.00    +0.000 C 
ATOM     12  N   UNL     1      -0.895   0.864   0.000  0.00  0.00    +0.000 NA
ATOM     13  N   UNL     1      -2.467  -1.475   0.000  0.00  0.00    +0.000 NA
ATOM     14  N   UNL     1      -2.536  -0.653   0.000  0.00  0.00    +0.000 NA
ATOM     15  N   UNL     1      -1.237  -0.958   0.000  0.00  0.00    +0.000 N 
ENDROOT
BRANCH  11  20
ATOM     16  C   UNL     1       1.890   1.343   0.000  0.00  0.00    +0.000 A 
ATOM     17  C   UNL     1       1.735   2.153   0.000  0.00  0.00    +0.000 A 
ATOM     18  C   UNL     1       1.265   0.803   0.000  0.00  0.00    +0.000 A 
ATOM     19  C   UNL     1       0.956   2.424   0.000  0.00  0.00    +0.000 A 
ATOM     20  C   UNL     1       0.486   1.075   0.000  0.00  0.00    +0.000 A 
ATOM     21  C   UNL     1       0.331   1.885   0.000  0.00  0.00    +0.000 A 
ATOM     22 CL   UNL     1      -0.448   2.156   0.000  0.00  0.00    +0.000 Cl
ENDBRANCH  11  20
BRANCH   7  23
ATOM     23  N   UNL     1       2.047  -1.199   0.000  0.00  0.00    +0.000 N 
ATOM     24  O   UNL     1       2.536  -0.534   0.000  0.00  0.00    +0.000 OA
ATOM     25  O   UNL     1       2.379  -1.954   0.000  0.00  0.00    +0.000 OA
ENDBRANCH   7  23
TORSDOF 2
