REMARK  Name = 
REMARK  7 active torsions:
REMARK  status: ('A' for Active; 'I' for Inactive)
REMARK    1  A    between atoms: C_2  and  C_3
REMARK    2  A    between atoms: C_3  and  C_4
REMARK    3  A    between atoms: C_4  and  C_5
REMARK    4  A    between atoms: C_5  and  C_6
REMARK    5  A    between atoms: C_6  and  O_7
REMARK    6  A    between atoms: O_7  and  C_8
REMARK    7  A    between atoms: C_12  and  C_13
REMARK                            x       y       z     vdW  Elec       q    Type
REMARK                         _______ _______ _______ _____ _____    ______ ____
ROOT
ATOM      1  C   UNL     1       8.534  -1.649   0.000  0.00  0.00    +0.000 A 
ATOM      2  N   UNL     1       8.621  -0.829   0.000  0.00  0.00    +0.000 NA
ATOM      3  S   UNL     1       9.428  -0.657   0.000  0.00  0.00    +0.000 S 
ATOM      4  N   UNL     1       9.840  -1.372   0.000  0.00  0.00    +0.000 NA
ATOM      5  C   UNL     1       9.288  -1.985   0.000  0.00  0.00    +0.000 A 
ENDROOT
BRANCH   5   6
ATOM      6  C   UNL     1       9.460  -2.792   0.000  0.00  0.00    +0.000 C 
ATOM      7  C   UNL     1      10.244  -3.047   0.000  0.00  0.00    +0.000 C 
ATOM      8  C   UNL     1      10.416  -3.854   0.000  0.00  0.00    +0.000 C 
ATOM      9  C   UNL     1       9.803  -4.406   0.000  0.00  0.00    +0.000 C 
ATOM     10  N   UNL     1       9.018  -4.151   0.000  0.00  0.00    +0.000 NA
ATOM     11  C   UNL     1       8.405  -4.703   0.000  0.00  0.00    +0.000 C 
ATOM     12  C   UNL     1       8.846  -3.344   0.000  0.00  0.00    +0.000 C 
ENDBRANCH   5   6
BRANCH   1  13
ATOM     13  O   UNL     1       7.820  -2.062   0.000  0.00  0.00    +0.000 OA
BRANCH  13  14
ATOM     14  C   UNL     1       7.105  -1.649   0.000  0.00  0.00    +0.000 C 
BRANCH  14  15
ATOM     15  C   UNL     1       6.391  -2.062   0.000  0.00  0.00    +0.000 C 
BRANCH  15  16
ATOM     16  C   UNL     1       5.676  -1.649   0.000  0.00  0.00    +0.000 C 
BRANCH  16  17
ATOM     17  C   UNL     1       4.962  -2.062   0.000  0.00  0.00    +0.000 C 
BRANCH  17  19
ATOM     18  C   UNL     1       3.533  -2.062   0.000  0.00  0.00    +0.000 C 
ATOM     19  C   UNL     1       4.247  -1.649   0.000  0.00  0.00    +0.000 C 
ENDBRANCH  17  19
ENDBRANCH  16  17
ENDBRANCH  15  16
ENDBRANCH  14  15
ENDBRANCH  13  14
ENDBRANCH   1  13
TORSDOF 7
