REMARK  Name = 
REMARK  11 active torsions:
REMARK  status: ('A' for Active; 'I' for Inactive)
REMARK    1  A    between atoms: C_2  and  S_7
REMARK    2  A    between atoms: C_5  and  C_11
REMARK    3  A    between atoms: C_14  and  C_17
REMARK    4  A    between atoms: C_17  and  N_18
REMARK    5  A    between atoms: C_17  and  C_28
REMARK    6  A    between atoms: N_18  and  C_19
REMARK    7  A    between atoms: C_19  and  C_20
REMARK    8  A    between atoms: C_19  and  C_29
REMARK    9  A    between atoms: N_21  and  C_23
REMARK   10  A    between atoms: C_23  and  C_26
REMARK   11  A    between atoms: C_29  and  C_33
REMARK                            x       y       z     vdW  Elec       q    Type
REMARK                         _______ _______ _______ _____ _____    ______ ____
ROOT
ATOM      1  C   UNL     1       0.355   0.768   0.000  0.00  0.00    +0.000 C 
ENDROOT
BRANCH   1   5
ATOM      2  C   UNL     1      -1.782  -0.479   0.000  0.00  0.00    +0.000 A 
ATOM      3  C   UNL     1      -1.065  -0.890   0.000  0.00  0.00    +0.000 A 
ATOM      4  C   UNL     1      -0.353  -0.474   0.000  0.00  0.00    +0.000 A 
ATOM      5  C   UNL     1      -0.357   0.351   0.000  0.00  0.00    +0.000 A 
ATOM      6  C   UNL     1      -1.079   0.760   0.000  0.00  0.00    +0.000 A 
ATOM      7  C   UNL     1      -1.788   0.343   0.000  0.00  0.00    +0.000 A 
BRANCH   2  12
ATOM      8  C   UNL     1      -3.919  -0.896   0.000  0.00  0.00    +0.000 A 
ATOM      9  C   UNL     1      -3.920  -1.724   0.000  0.00  0.00    +0.000 A 
ATOM     10  C   UNL     1      -3.207  -2.137   0.000  0.00  0.00    +0.000 A 
ATOM     11  C   UNL     1      -2.488  -1.723   0.000  0.00  0.00    +0.000 A 
ATOM     12  C   UNL     1      -2.491  -0.892   0.000  0.00  0.00    +0.000 A 
ATOM     13  C   UNL     1      -3.209  -0.483   0.000  0.00  0.00    +0.000 A 
BRANCH   9  14
ATOM     14  S   UNL     1      -4.635  -2.135   0.000  0.00  0.00    +0.000 S 
ATOM     15  C   UNL     1      -5.349  -1.722   0.000  0.00  0.00    +0.000 C 
ATOM     16  O   UNL     1      -5.054  -2.844   0.000  0.00  0.00    +0.000 OA
ATOM     17  O   UNL     1      -4.229  -2.844   0.000  0.00  0.00    +0.000 OA
ENDBRANCH   9  14
ENDBRANCH   2  12
ENDBRANCH   1   5
BRANCH   1  18
ATOM     18  C   UNL     1       0.350   1.593   0.000  0.00  0.00    +0.000 C 
ATOM     19  F   UNL     1       1.061   2.010   0.000  0.00  0.00    +0.000 F 
ATOM     20  F   UNL     1      -0.367   2.001   0.000  0.00  0.00    +0.000 F 
ATOM     21  F   UNL     1       0.345   2.422   0.000  0.00  0.00    +0.000 F 
ENDBRANCH   1  18
BRANCH   1  22
ATOM     22  N   UNL     1       1.072   0.360   0.000  0.00  0.00    +0.000 NA
BRANCH  22  23
ATOM     23  C   UNL     1       1.784   0.777   0.000  0.00  0.00    +0.000 C 
BRANCH  23  24
ATOM     24  C   UNL     1       2.501   0.369   0.000  0.00  0.00    +0.000 C 
ATOM     25  N   UNL     1       3.212   0.786   0.000  0.00  0.00    +0.000 NA
ATOM     26  O   UNL     1       2.506  -0.456   0.000  0.00  0.00    +0.000 OA
BRANCH  25  27
ATOM     27  C   UNL     1       3.930   0.378   0.000  0.00  0.00    +0.000 C 
ATOM     28  C   UNL     1       3.532  -0.344   0.000  0.00  0.00    +0.000 C 
ATOM     29  C   UNL     1       4.357  -0.328   0.000  0.00  0.00    +0.000 C 
BRANCH  27  30
ATOM     30  C   UNL     1       4.639   0.799   0.000  0.00  0.00    +0.000 C 
ATOM     31  N   UNL     1       5.349   1.220   0.000  0.00  0.00    +0.000 NA
ENDBRANCH  27  30
ENDBRANCH  25  27
ENDBRANCH  23  24
BRANCH  23  32
ATOM     32  C   UNL     1       1.778   1.602   0.000  0.00  0.00    +0.000 C 
BRANCH  32  33
ATOM     33  C   UNL     1       2.490   2.019   0.000  0.00  0.00    +0.000 C 
ATOM     34  C   UNL     1       2.485   2.844   0.000  0.00  0.00    +0.000 C 
ATOM     35  C   UNL     1       3.207   1.611   0.000  0.00  0.00    +0.000 C 
ATOM     36  F   UNL     1       3.200   2.440   0.000  0.00  0.00    +0.000 F 
ENDBRANCH  32  33
ENDBRANCH  23  32
ENDBRANCH  22  23
ENDBRANCH   1  22
TORSDOF 11
