REMARK  Name = 
REMARK  8 active torsions:
REMARK  status: ('A' for Active; 'I' for Inactive)
REMARK    1  A    between atoms: C_6  and  C_11
REMARK    2  A    between atoms: C_6  and  C_15
REMARK    3  A    between atoms: C_11  and  C_18
REMARK    4  A    between atoms: C_14  and  C_18
REMARK    5  A    between atoms: C_14  and  O_25
REMARK    6  A    between atoms: C_16  and  C_20
REMARK    7  A    between atoms: C_17  and  C_21
REMARK    8  A    between atoms: C_19  and  O_25
REMARK                            x       y       z     vdW  Elec       q    Type
REMARK                         _______ _______ _______ _____ _____    ______ ____
ROOT
ATOM      1  C   UNL     1       6.430  -0.412   0.000  0.00  0.00    +0.000 C 
ATOM      2  O   UNL     1       6.430   0.412   0.000  0.00  0.00    +0.000 OA
ENDROOT
BRANCH   1   3
ATOM      3  C   UNL     1       7.145  -0.825   0.000  0.00  0.00    +0.000 C 
BRANCH   3   4
ATOM      4  O   UNL     1       7.859  -0.412   0.000  0.00  0.00    +0.000 OA
BRANCH   4  10
ATOM      5  C   UNL     1      10.003  -0.825   0.000  0.00  0.00    +0.000 A 
ATOM      6  C   UNL     1       9.288  -2.062   0.000  0.00  0.00    +0.000 A 
ATOM      7  C   UNL     1       9.288  -0.412   0.000  0.00  0.00    +0.000 A 
ATOM      8  C   UNL     1       8.574  -1.650   0.000  0.00  0.00    +0.000 A 
ATOM      9  C   UNL     1      10.003  -1.650   0.000  0.00  0.00    +0.000 A 
ATOM     10  C   UNL     1       8.574  -0.825   0.000  0.00  0.00    +0.000 A 
BRANCH   9  11
ATOM     11  C   UNL     1      10.717  -2.062   0.000  0.00  0.00    +0.000 C 
ATOM     12  O   UNL     1      11.431  -1.650   0.000  0.00  0.00    +0.000 OA
ATOM     13  O   UNL     1      10.717  -2.888   0.000  0.00  0.00    +0.000 OA
ENDBRANCH   9  11
ENDBRANCH   4  10
ENDBRANCH   3   4
ENDBRANCH   1   3
BRANCH   1  14
ATOM     14  C   UNL     1       5.716  -0.825   0.000  0.00  0.00    +0.000 C 
BRANCH  14  15
ATOM     15  C   UNL     1       5.001  -0.412   0.000  0.00  0.00    +0.000 C 
BRANCH  15  20
ATOM     16  C   UNL     1       3.572  -0.412   0.000  0.00  0.00    +0.000 A 
ATOM     17  C   UNL     1       4.287  -1.650   0.000  0.00  0.00    +0.000 A 
ATOM     18  C   UNL     1       2.858  -0.825   0.000  0.00  0.00    +0.000 A 
ATOM     19  C   UNL     1       3.572  -2.062   0.000  0.00  0.00    +0.000 A 
ATOM     20  C   UNL     1       4.287  -0.825   0.000  0.00  0.00    +0.000 A 
ATOM     21  C   UNL     1       2.858  -1.650   0.000  0.00  0.00    +0.000 A 
BRANCH  21  25
ATOM     22  C   UNL     1       1.429  -2.475   0.000  0.00  0.00    +0.000 C 
ATOM     23  C   UNL     1       2.556  -2.777   0.000  0.00  0.00    +0.000 C 
ATOM     24  C   UNL     1       1.731  -1.348   0.000  0.00  0.00    +0.000 C 
ATOM     25  C   UNL     1       2.143  -2.062   0.000  0.00  0.00    +0.000 C 
ENDBRANCH  21  25
ENDBRANCH  15  20
ENDBRANCH  14  15
ENDBRANCH   1  14
TORSDOF 8
