REMARK  Name = 
REMARK  1 active torsions:
REMARK  status: ('A' for Active; 'I' for Inactive)
REMARK    1  A    between atoms: C_2  and  C_4
REMARK                            x       y       z     vdW  Elec       q    Type
REMARK                         _______ _______ _______ _____ _____    ______ ____
ROOT
ATOM      1  C   UNL     1      -0.002   0.002   0.000  0.00  0.00    +0.000 C 
ATOM      2  C   UNL     1      -0.720   0.414   0.000  0.00  0.00    +0.000 C 
ATOM      3  N   UNL     1      -1.429   0.002   0.000  0.00  0.00    +0.000 NA
ATOM      4  C   UNL     1      -1.429  -0.823   0.000  0.00  0.00    +0.000 C 
ATOM      5  C   UNL     1      -0.720  -1.236   0.000  0.00  0.00    +0.000 C 
ATOM      6  C   UNL     1      -0.002  -0.823   0.000  0.00  0.00    +0.000 C 
ENDROOT
BRANCH   1   8
ATOM      7  O   UNL     1       1.429   0.002   0.000  0.00  0.00    +0.000 OA
ATOM      8  C   UNL     1       0.712   0.415   0.000  0.00  0.00    +0.000 C 
ATOM      9  O   UNL     1       0.712   1.236   0.000  0.00  0.00    +0.000 OA
ENDBRANCH   1   8
TORSDOF 1
