REMARK  Name = 
REMARK  31 active torsions:
REMARK  status: ('A' for Active; 'I' for Inactive)
REMARK    1  A    between atoms: C_3  and  C_8
REMARK    2  A    between atoms: C_5  and  C_6
REMARK    3  A    between atoms: C_6  and  C_25
REMARK    4  A    between atoms: N_9  and  C_10
REMARK    5  A    between atoms: C_10  and  C_11
REMARK    6  A    between atoms: C_10  and  C_35
REMARK    7  A    between atoms: N_12  and  C_13
REMARK    8  A    between atoms: C_13  and  C_14
REMARK    9  A    between atoms: C_13  and  C_39
REMARK   10  A    between atoms: N_15  and  C_16
REMARK   11  A    between atoms: C_16  and  C_17
REMARK   12  A    between atoms: C_16  and  C_44
REMARK   13  A    between atoms: N_18  and  C_19
REMARK   14  A    between atoms: C_22  and  C_49
REMARK   15  A    between atoms: C_25  and  C_27
REMARK   16  A    between atoms: C_35  and  C_36
REMARK   17  A    between atoms: C_39  and  C_40
REMARK   18  A    between atoms: C_40  and  C_41
REMARK   19  A    between atoms: C_44  and  C_45
REMARK   20  A    between atoms: C_49  and  C_67
REMARK   21  A    between atoms: C_50  and  C_70
REMARK   22  A    between atoms: C_54  and  C_74
REMARK   23  A    between atoms: C_58  and  C_81
REMARK   24  A    between atoms: C_62  and  C_96
REMARK   25  A    between atoms: C_67  and  C_68
REMARK   26  A    between atoms: C_70  and  C_72
REMARK   27  A    between atoms: C_74  and  C_75
REMARK   28  A    between atoms: C_81  and  C_82
REMARK   29  A    between atoms: C_87  and  C_91
REMARK   30  A    between atoms: C_91  and  C_92
REMARK   31  A    between atoms: C_96  and  C_98
REMARK                            x       y       z     vdW  Elec       q    Type
REMARK                         _______ _______ _______ _____ _____    ______ ____
ROOT
ATOM      1  C   UNL     1       1.742   1.877   0.000  0.00  0.00    +0.000 C 
ATOM      2  C   UNL     1       2.443   2.289   0.000  0.00  0.00    +0.000 C 
ATOM      3  N   UNL     1       3.144   1.877   0.000  0.00  0.00    +0.000 NA
ATOM      4  C   UNL     1       3.887   2.289   0.000  0.00  0.00    +0.000 C 
ATOM      5  C   UNL     1       4.588   1.877   0.000  0.00  0.00    +0.000 C 
ATOM      6  N   UNL     1       5.289   2.289   0.000  0.00  0.00    +0.000 NA
ATOM      7  O   UNL     1       2.443   3.115   0.000  0.00  0.00    +0.000 OA
ATOM      8  O   UNL     1       4.588   1.052   0.000  0.00  0.00    +0.000 OA
ATOM      9  C   UNL     1       1.742   1.052   0.000  0.00  0.00    +0.000 C 
ATOM     10  C   UNL     1       5.991   1.877   0.000  0.00  0.00    +0.000 C 
ATOM     11  C   UNL     1       5.991   0.639   0.000  0.00  0.00    +0.000 C 
ATOM     12  O   UNL     1       5.289   0.227   0.000  0.00  0.00    +0.000 OA
ATOM     13  N   UNL     1       6.733   0.227   0.000  0.00  0.00    +0.000 NA
ATOM     14  C   UNL     1       6.733  -0.887   0.000  0.00  0.00    +0.000 C 
ATOM     15  C   UNL     1       5.991  -1.299   0.000  0.00  0.00    +0.000 C 
ATOM     16  N   UNL     1       5.991  -2.124   0.000  0.00  0.00    +0.000 NA
ATOM     17  O   UNL     1       5.289  -0.887   0.000  0.00  0.00    +0.000 OA
ATOM     18  C   UNL     1       5.289  -2.537   0.000  0.00  0.00    +0.000 C 
ATOM     19  C   UNL     1       4.588  -2.124   0.000  0.00  0.00    +0.000 C 
ATOM     20  N   UNL     1       3.845  -2.537   0.000  0.00  0.00    +0.000 NA
ATOM     21  O   UNL     1       4.588  -1.299   0.000  0.00  0.00    +0.000 OA
ATOM     22  C   UNL     1       3.131  -2.124   0.000  0.00  0.00    +0.000 C 
ATOM     23  C   UNL     1       2.417  -2.537   0.000  0.00  0.00    +0.000 C 
ATOM     24  N   UNL     1       1.702  -2.124   0.000  0.00  0.00    +0.000 NA
ATOM     25  O   UNL     1       2.417  -3.362   0.000  0.00  0.00    +0.000 OA
ATOM     26  C   UNL     1       1.027   0.639   0.000  0.00  0.00    +0.000 C 
ATOM     27  C   UNL     1       0.988  -2.537   0.000  0.00  0.00    +0.000 C 
ATOM     28  C   UNL     1       0.273  -2.124   0.000  0.00  0.00    +0.000 C 
ATOM     29  N   UNL     1       0.273  -1.299   0.000  0.00  0.00    +0.000 NA
ATOM     30  O   UNL     1      -0.441  -2.537   0.000  0.00  0.00    +0.000 OA
ATOM     31  C   UNL     1       1.027  -0.185   0.000  0.00  0.00    +0.000 C 
ATOM     32  C   UNL     1       0.313  -0.598   0.000  0.00  0.00    +0.000 C 
ENDROOT
BRANCH   1  34
ATOM     33  C   UNL     1       0.298   1.877   0.000  0.00  0.00    +0.000 C 
ATOM     34  N   UNL     1       1.040   2.289   0.000  0.00  0.00    +0.000 NA
ATOM     35  O   UNL     1       0.298   1.052   0.000  0.00  0.00    +0.000 OA
BRANCH  33  36
ATOM     36  C   UNL     1      -0.403   2.289   0.000  0.00  0.00    +0.000 C 
BRANCH  36  38
ATOM     37  C   UNL     1      -1.847   2.289   0.000  0.00  0.00    +0.000 C 
ATOM     38  N   UNL     1      -1.105   1.877   0.000  0.00  0.00    +0.000 NA
ATOM     39  O   UNL     1      -1.847   3.115   0.000  0.00  0.00    +0.000 OA
BRANCH  37  40
ATOM     40  C   UNL     1      -2.548   1.877   0.000  0.00  0.00    +0.000 C 
BRANCH  40  42
ATOM     41  C   UNL     1      -3.992   1.877   0.000  0.00  0.00    +0.000 C 
ATOM     42  N   UNL     1      -3.249   2.289   0.000  0.00  0.00    +0.000 NA
ATOM     43  O   UNL     1      -3.992   1.052   0.000  0.00  0.00    +0.000 OA
BRANCH  41  44
ATOM     44  C   UNL     1      -4.693   2.289   0.000  0.00  0.00    +0.000 C 
BRANCH  44  46
ATOM     45  C   UNL     1      -6.137   2.289   0.000  0.00  0.00    +0.000 C 
ATOM     46  N   UNL     1      -5.395   1.877   0.000  0.00  0.00    +0.000 NA
ATOM     47  O   UNL     1      -6.137   3.115   0.000  0.00  0.00    +0.000 OA
BRANCH  45  50
ATOM     48  S   UNL     1      -7.911   1.093   0.000  0.00  0.00    +0.000 S 
ATOM     49  C   UNL     1      -7.086   1.093   0.000  0.00  0.00    +0.000 C 
ATOM     50  C   UNL     1      -6.838   1.877   0.000  0.00  0.00    +0.000 C 
ATOM     51  N   UNL     1      -7.498   2.372   0.000  0.00  0.00    +0.000 NA
ATOM     52  C   UNL     1      -8.158   1.877   0.000  0.00  0.00    +0.000 C 
BRANCH  52  53
ATOM     53  C   UNL     1      -8.860   2.289   0.000  0.00  0.00    +0.000 C 
ATOM     54  N   UNL     1      -9.602   1.877   0.000  0.00  0.00    +0.000 NA
BRANCH  53  55
ATOM     55  C   UNL     1      -8.860   3.115   0.000  0.00  0.00    +0.000 C 
ATOM     56  C   UNL     1      -8.158   3.527   0.000  0.00  0.00    +0.000 C 
BRANCH  55  57
ATOM     57  C   UNL     1      -9.561   3.527   0.000  0.00  0.00    +0.000 C 
ATOM     58  C   UNL     1      -9.561   4.352   0.000  0.00  0.00    +0.000 C 
ENDBRANCH  55  57
ENDBRANCH  53  55
ENDBRANCH  52  53
ENDBRANCH  45  50
ENDBRANCH  44  46
BRANCH  44  59
ATOM     59  C   UNL     1      -4.776   3.445   0.000  0.00  0.00    +0.000 C 
BRANCH  59  60
ATOM     60  C   UNL     1      -4.075   3.857   0.000  0.00  0.00    +0.000 C 
ATOM     61  C   UNL     1      -3.373   3.445   0.000  0.00  0.00    +0.000 C 
ATOM     62  C   UNL     1      -4.075   4.682   0.000  0.00  0.00    +0.000 C 
ENDBRANCH  59  60
ENDBRANCH  44  59
ENDBRANCH  41  44
ENDBRANCH  40  42
BRANCH  40  63
ATOM     63  C   UNL     1      -2.548   1.052   0.000  0.00  0.00    +0.000 C 
BRANCH  63  64
ATOM     64  C   UNL     1      -3.249   0.639   0.000  0.00  0.00    +0.000 C 
BRANCH  64  65
ATOM     65  C   UNL     1      -3.249  -0.185   0.000  0.00  0.00    +0.000 C 
ATOM     66  O   UNL     1      -3.992  -0.598   0.000  0.00  0.00    +0.000 OA
ATOM     67  O   UNL     1      -2.548  -0.598   0.000  0.00  0.00    +0.000 OA
ENDBRANCH  64  65
ENDBRANCH  63  64
ENDBRANCH  40  63
ENDBRANCH  37  40
ENDBRANCH  36  38
BRANCH  36  68
ATOM     68  C   UNL     1      -0.403   3.115   0.000  0.00  0.00    +0.000 C 
ATOM     69  C   UNL     1       0.298   3.527   0.000  0.00  0.00    +0.000 C 
BRANCH  68  70
ATOM     70  C   UNL     1      -1.105   3.527   0.000  0.00  0.00    +0.000 C 
ATOM     71  C   UNL     1      -1.105   4.352   0.000  0.00  0.00    +0.000 C 
ENDBRANCH  68  70
ENDBRANCH  36  68
ENDBRANCH  33  36
ENDBRANCH   1  34
BRANCH  10  72
ATOM     72  C   UNL     1       6.705   2.289   0.000  0.00  0.00    +0.000 C 
ATOM     73  C   UNL     1       7.410   1.883   0.000  0.00  0.00    +0.000 C 
BRANCH  72  74
ATOM     74  C   UNL     1       6.705   3.114   0.000  0.00  0.00    +0.000 C 
ATOM     75  C   UNL     1       7.420   3.527   0.000  0.00  0.00    +0.000 C 
ENDBRANCH  72  74
ENDBRANCH  10  72
BRANCH   4  76
ATOM     76  C   UNL     1       3.887   3.115   0.000  0.00  0.00    +0.000 C 
BRANCH  76  77
ATOM     77  C   UNL     1       4.601   3.527   0.000  0.00  0.00    +0.000 C 
BRANCH  77  78
ATOM     78  C   UNL     1       4.601   4.352   0.000  0.00  0.00    +0.000 C 
ATOM     79  N   UNL     1       3.887   4.764   0.000  0.00  0.00    +0.000 NA
ENDBRANCH  77  78
ENDBRANCH  76  77
ENDBRANCH   4  76
BRANCH  14  80
ATOM     80  C   UNL     1       7.448  -1.299   0.000  0.00  0.00    +0.000 C 
BRANCH  80  81
ATOM     81  C   UNL     1       8.162  -0.887   0.000  0.00  0.00    +0.000 A 
ATOM     82  C   UNL     1       8.888  -1.306   0.000  0.00  0.00    +0.000 A 
ATOM     83  C   UNL     1       9.602  -0.893   0.000  0.00  0.00    +0.000 A 
ATOM     84  C   UNL     1       9.602  -0.068   0.000  0.00  0.00    +0.000 A 
ATOM     85  C   UNL     1       8.877   0.350   0.000  0.00  0.00    +0.000 A 
ATOM     86  C   UNL     1       8.162  -0.062   0.000  0.00  0.00    +0.000 A 
ENDBRANCH  80  81
ENDBRANCH  14  80
BRANCH  18  87
ATOM     87  C   UNL     1       5.289  -3.362   0.000  0.00  0.00    +0.000 C 
BRANCH  87  88
ATOM     88  C   UNL     1       6.004  -3.774   0.000  0.00  0.00    +0.000 A 
ATOM     89  N   UNL     1       6.090  -4.593   0.000  0.00  0.00    +0.000 NA
ATOM     90  C   UNL     1       6.895  -4.765   0.000  0.00  0.00    +0.000 A 
ATOM     91  N   UNL     1       7.307  -4.051   0.000  0.00  0.00    +0.000 NA
ATOM     92  C   UNL     1       6.756  -3.439   0.000  0.00  0.00    +0.000 A 
ENDBRANCH  87  88
ENDBRANCH  18  87
BRANCH  27  93
ATOM     93  C   UNL     1       0.988  -3.362   0.000  0.00  0.00    +0.000 C 
BRANCH  93  94
ATOM     94  C   UNL     1       0.273  -3.774   0.000  0.00  0.00    +0.000 C 
ATOM     95  O   UNL     1       0.273  -4.599   0.000  0.00  0.00    +0.000 OA
ATOM     96  N   UNL     1      -0.441  -3.362   0.000  0.00  0.00    +0.000 NA
ENDBRANCH  93  94
ENDBRANCH  27  93
BRANCH  22  97
ATOM     97  C   UNL     1       3.131  -0.969   0.000  0.00  0.00    +0.000 C 
BRANCH  97  98
ATOM     98  C   UNL     1       2.417  -0.557   0.000  0.00  0.00    +0.000 C 
ATOM     99  O   UNL     1       1.702  -0.969   0.000  0.00  0.00    +0.000 OA
ATOM    100  O   UNL     1       2.417   0.268   0.000  0.00  0.00    +0.000 OA
ENDBRANCH  97  98
ENDBRANCH  22  97
TORSDOF 31
