REMARK  Name = 
REMARK  4 active torsions:
REMARK  status: ('A' for Active; 'I' for Inactive)
REMARK    1  A    between atoms: O_2  and  C_3
REMARK    2  A    between atoms: C_7  and  N_8
REMARK    3  A    between atoms: N_8  and  S_9
REMARK    4  A    between atoms: S_9  and  C_12
REMARK                            x       y       z     vdW  Elec       q    Type
REMARK                         _______ _______ _______ _____ _____    ______ ____
ROOT
ATOM      1  S   UNL     1       1.429  -4.950   0.000  0.00  0.00    +0.000 S 
ATOM      2  O   UNL     1       1.016  -4.236   0.000  0.00  0.00    +0.000 OA
ATOM      3  O   UNL     1       1.841  -5.665   0.000  0.00  0.00    +0.000 OA
ENDROOT
BRANCH   1   4
ATOM      4  C   UNL     1       0.715  -5.362   0.000  0.00  0.00    +0.000 A 
ATOM      5  C   UNL     1       0.715  -6.188   0.000  0.00  0.00    +0.000 A 
ATOM      6  F   UNL     1       1.429  -6.600   0.000  0.00  0.00    +0.000 F 
ATOM      7  C   UNL     1       0.000  -6.600   0.000  0.00  0.00    +0.000 A 
ATOM      8  F   UNL     1       0.000  -7.425   0.000  0.00  0.00    +0.000 F 
ATOM      9  C   UNL     1      -0.715  -6.188   0.000  0.00  0.00    +0.000 A 
ATOM     10  F   UNL     1      -1.429  -6.600   0.000  0.00  0.00    +0.000 F 
ATOM     11  C   UNL     1      -0.715  -5.362   0.000  0.00  0.00    +0.000 A 
ATOM     12  F   UNL     1      -1.429  -4.950   0.000  0.00  0.00    +0.000 F 
ATOM     13  C   UNL     1       0.000  -4.950   0.000  0.00  0.00    +0.000 A 
ATOM     14  F   UNL     1       0.000  -4.125   0.000  0.00  0.00    +0.000 F 
ENDBRANCH   1   4
BRANCH   1  15
ATOM     15  N   UNL     1       2.143  -4.537   0.000  0.00  0.00    +0.000 NA
BRANCH  15  20
ATOM     16  C   UNL     1       2.143  -2.062   0.000  0.00  0.00    +0.000 A 
ATOM     17  C   UNL     1       2.858  -2.475   0.000  0.00  0.00    +0.000 A 
ATOM     18  F   UNL     1       3.572  -2.062   0.000  0.00  0.00    +0.000 F 
ATOM     19  C   UNL     1       2.858  -3.300   0.000  0.00  0.00    +0.000 A 
ATOM     20  C   UNL     1       2.143  -3.712   0.000  0.00  0.00    +0.000 A 
ATOM     21  C   UNL     1       1.429  -3.300   0.000  0.00  0.00    +0.000 A 
ATOM     22  C   UNL     1       1.429  -2.475   0.000  0.00  0.00    +0.000 A 
BRANCH  16  24
ATOM     23  C   UNL     1       1.429  -0.825   0.000  0.00  0.00    +0.000 C 
ATOM     24  O   UNL     1       2.143  -1.238   0.000  0.00  0.00    +0.000 OA
ENDBRANCH  16  24
ENDBRANCH  15  20
ENDBRANCH   1  15
TORSDOF 4
