REMARK  Name = 
REMARK  7 active torsions:
REMARK  status: ('A' for Active; 'I' for Inactive)
REMARK    1  A    between atoms: N_6  and  C_16
REMARK    2  A    between atoms: N_7  and  C_13
REMARK    3  A    between atoms: N_10  and  CA_22
REMARK    4  A    between atoms: N_12  and  C_24
REMARK    5  A    between atoms: C_15  and  C_17
REMARK    6  A    between atoms: C_19  and  CA_22
REMARK    7  A    between atoms: CA_22  and  C_23
REMARK                            x       y       z     vdW  Elec       q    Type
REMARK                         _______ _______ _______ _____ _____    ______ ____
ROOT
ATOM      1  O   UNL     1      -0.981   0.351   0.000  0.00  0.00    +0.000 OA
ATOM      2  O   UNL     1       0.955  -0.549   0.000  0.00  0.00    +0.000 OA
ATOM      3  C   UNL     1       0.290   0.762   0.000  0.00  0.00    +0.000 C 
ATOM      4  C   UNL     1       0.288  -0.063   0.000  0.00  0.00    +0.000 C 
ATOM      5  C   UNL     1      -0.494   1.018   0.000  0.00  0.00    +0.000 C 
ATOM      6  C   UNL     1      -0.497  -0.317   0.000  0.00  0.00    +0.000 C 
ENDROOT
BRANCH   6   7
ATOM      7  N   UNL     1      -0.753  -1.101   0.000  0.00  0.00    +0.000 N 
ATOM      8  N   UNL     1      -0.753  -2.429   0.000  0.00  0.00    +0.000 NA
ATOM      9  N   UNL     1      -2.248  -0.940   0.000  0.00  0.00    +0.000 NA
ATOM     10  N   UNL     1      -2.963  -2.177   0.000  0.00  0.00    +0.000 NA
ATOM     11  C   UNL     1      -1.534  -1.352   0.000  0.00  0.00    +0.000 A 
ATOM     12  C   UNL     1      -0.272  -1.765   0.000  0.00  0.00    +0.000 A 
ATOM     13  C   UNL     1      -1.534  -2.177   0.000  0.00  0.00    +0.000 A 
ATOM     14  C   UNL     1      -2.248  -2.590   0.000  0.00  0.00    +0.000 A 
ATOM     15  C   UNL     1      -2.963  -1.352   0.000  0.00  0.00    +0.000 A 
BRANCH  14  16
ATOM     16  N   UNL     1      -2.248  -3.415   0.000  0.00  0.00    +0.000 N 
ATOM     17  H   UNL     1      -2.691  -3.671   0.000  0.00  0.00    +0.000 HD
ATOM     18  H   UNL     1      -1.805  -3.671   0.000  0.00  0.00    +0.000 HD
ENDBRANCH  14  16
ENDBRANCH   6   7
BRANCH   3  20
ATOM     19  O   UNL     1       0.120   2.403   0.000  0.00  0.00    +0.000 OA
ATOM     20  N   UNL     1       0.958   1.246   0.000  0.00  0.00    +0.000 N 
ATOM     21  C   UNL     1       0.873   2.066   0.000  0.00  0.00    +0.000 C 
ATOM     22  H   UNL     1       1.425   1.037   0.000  0.00  0.00    +0.000 HD
BRANCH  21  23
ATOM     23  CA  UNL     1       1.541   2.550   0.000  0.00  0.00    +0.000 C 
BRANCH  23  24
ATOM     24  N   UNL     1       1.456   3.370   0.000  0.00  0.00    +0.000 NA
ATOM     25  H1  UNL     1       1.871   3.671   0.000  0.00  0.00    +0.000 HD
ATOM     26  H2  UNL     1       0.990   3.579   0.000  0.00  0.00    +0.000 HD
ENDBRANCH  23  24
BRANCH  23  28
ATOM     27  O   UNL     1       2.963   2.697   0.000  0.00  0.00    +0.000 OA
ATOM     28  C   UNL     1       2.294   2.213   0.000  0.00  0.00    +0.000 C 
ENDBRANCH  23  28
ENDBRANCH  21  23
ENDBRANCH   3  20
BRANCH   5  30
ATOM     29  O   UNL     1      -1.555   1.976   0.000  0.00  0.00    +0.000 OA
ATOM     30  C   UNL     1      -0.748   1.803   0.000  0.00  0.00    +0.000 C 
ENDBRANCH   5  30
TORSDOF 7
