REMARK  Name = 
REMARK  7 active torsions:
REMARK  status: ('A' for Active; 'I' for Inactive)
REMARK    1  A    between atoms: N_7  and  C_10
REMARK    2  A    between atoms: C_13  and  N_18
REMARK    3  A    between atoms: C_14  and  O_16
REMARK    4  A    between atoms: C_22  and  C_37
REMARK    5  A    between atoms: N_25  and  C_26
REMARK    6  A    between atoms: C_30  and  N_32
REMARK    7  A    between atoms: C_33  and  C_35
REMARK                            x       y       z     vdW  Elec       q    Type
REMARK                         _______ _______ _______ _____ _____    ______ ____
ROOT
ATOM      1  N   UNL     1      -5.716  -7.425   0.000  0.00  0.00    +0.000 NA
ATOM      2  C   UNL     1      -6.430  -7.838   0.000  0.00  0.00    +0.000 A 
ATOM      3  N   UNL     1      -7.145  -7.425   0.000  0.00  0.00    +0.000 NA
ATOM      4  C   UNL     1      -7.859  -7.838   0.000  0.00  0.00    +0.000 A 
ATOM      5  C   UNL     1      -7.859  -8.662   0.000  0.00  0.00    +0.000 A 
ATOM      6  C   UNL     1      -7.145  -9.075   0.000  0.00  0.00    +0.000 A 
ATOM      7  N   UNL     1      -6.430  -8.662   0.000  0.00  0.00    +0.000 NA
ATOM      8  N   UNL     1      -7.145  -9.900   0.000  0.00  0.00    +0.000 NA
ENDROOT
BRANCH   8   9
ATOM      9  C   UNL     1      -6.430 -10.312   0.000  0.00  0.00    +0.000 A 
ATOM     10  C   UNL     1      -5.716  -9.900   0.000  0.00  0.00    +0.000 A 
ATOM     11  C   UNL     1      -5.001 -10.312   0.000  0.00  0.00    +0.000 A 
ATOM     12  C   UNL     1      -5.001 -11.137   0.000  0.00  0.00    +0.000 A 
ATOM     13  C   UNL     1      -5.716 -11.550   0.000  0.00  0.00    +0.000 A 
ATOM     14  C   UNL     1      -6.430 -11.137   0.000  0.00  0.00    +0.000 A 
BRANCH  13  15
ATOM     15  N   UNL     1      -5.716 -12.375   0.000  0.00  0.00    +0.000 NA
ATOM     16  C   UNL     1      -5.001 -12.787   0.000  0.00  0.00    +0.000 C 
ATOM     17  O   UNL     1      -4.287 -12.375   0.000  0.00  0.00    +0.000 OA
BRANCH  16  18
ATOM     18  C   UNL     1      -5.001 -13.613   0.000  0.00  0.00    +0.000 C 
ATOM     19  C   UNL     1      -4.287 -14.025   0.000  0.00  0.00    +0.000 C 
ENDBRANCH  16  18
ENDBRANCH  13  15
ENDBRANCH   8   9
BRANCH   1  23
ATOM     20  C   UNL     1      -5.716  -4.950   0.000  0.00  0.00    +0.000 A 
ATOM     21  C   UNL     1      -5.001  -5.362   0.000  0.00  0.00    +0.000 A 
ATOM     22  C   UNL     1      -5.001  -6.188   0.000  0.00  0.00    +0.000 A 
ATOM     23  C   UNL     1      -5.716  -6.600   0.000  0.00  0.00    +0.000 A 
ATOM     24  C   UNL     1      -6.430  -6.188   0.000  0.00  0.00    +0.000 A 
ATOM     25  C   UNL     1      -6.430  -5.362   0.000  0.00  0.00    +0.000 A 
BRANCH  20  32
ATOM     26  C   UNL     1      -6.430  -1.238   0.000  0.00  0.00    +0.000 C 
ATOM     27  C   UNL     1      -5.716  -1.650   0.000  0.00  0.00    +0.000 C 
ATOM     28  O   UNL     1      -5.001  -1.238   0.000  0.00  0.00    +0.000 OA
ATOM     29  N   UNL     1      -5.716  -2.475   0.000  0.00  0.00    +0.000 N 
ATOM     30  C   UNL     1      -5.001  -2.888   0.000  0.00  0.00    +0.000 C 
ATOM     31  C   UNL     1      -5.001  -3.712   0.000  0.00  0.00    +0.000 C 
ATOM     32  N   UNL     1      -5.716  -4.125   0.000  0.00  0.00    +0.000 N 
ATOM     33  C   UNL     1      -6.430  -3.712   0.000  0.00  0.00    +0.000 C 
ATOM     34  C   UNL     1      -6.430  -2.888   0.000  0.00  0.00    +0.000 C 
ENDBRANCH  20  32
BRANCH  24  35
ATOM     35  O   UNL     1      -7.145  -6.600   0.000  0.00  0.00    +0.000 OA
ATOM     36  C   UNL     1      -7.859  -6.188   0.000  0.00  0.00    +0.000 C 
ENDBRANCH  24  35
ENDBRANCH   1  23
BRANCH   5  37
ATOM     37  C   UNL     1      -8.574  -9.075   0.000  0.00  0.00    +0.000 C 
ATOM     38  F   UNL     1      -9.288  -9.488   0.000  0.00  0.00    +0.000 F 
ATOM     39  F   UNL     1      -8.161  -9.790   0.000  0.00  0.00    +0.000 F 
ATOM     40  F   UNL     1      -8.986  -8.361   0.000  0.00  0.00    +0.000 F 
ENDBRANCH   5  37
TORSDOF 7
