REMARK  Name = 
REMARK  5 active torsions:
REMARK  status: ('A' for Active; 'I' for Inactive)
REMARK    1  A    between atoms: CA_3  and  C_8
REMARK    2  A    between atoms: CA_5  and  N_10
REMARK    3  A    between atoms: C_7  and  C_12
REMARK    4  A    between atoms: C_15  and  CA_17
REMARK    5  A    between atoms: CA_17  and  C_22
REMARK                            x       y       z     vdW  Elec       q    Type
REMARK                         _______ _______ _______ _____ _____    ______ ____
ROOT
ATOM      1  N   UNL     1       1.127  -0.206   0.000  0.00  0.00    +0.000 N 
ATOM      2  C   UNL     1       1.127   0.619   0.000  0.00  0.00    +0.000 C 
ATOM      3  CA  UNL     1       1.841  -0.619   0.000  0.00  0.00    +0.000 C 
ATOM      4  C   UNL     1       0.302  -0.206   0.000  0.00  0.00    +0.000 C 
ATOM      5  CA  UNL     1       0.302   0.619   0.000  0.00  0.00    +0.000 C 
ATOM      6  S   UNL     1       1.841   1.031   0.000  0.00  0.00    +0.000 S 
ATOM      7  C   UNL     1       2.556  -0.206   0.000  0.00  0.00    +0.000 C 
ATOM      8  O   UNL     1      -0.412  -0.619   0.000  0.00  0.00    +0.000 OA
ATOM      9  C   UNL     1       2.556   0.619   0.000  0.00  0.00    +0.000 C 
ENDROOT
BRANCH   3  10
ATOM     10  C   UNL     1       1.841  -1.444   0.000  0.00  0.00    +0.000 C 
ATOM     11  O   UNL     1       2.556  -1.856   0.000  0.00  0.00    +0.000 OA
ATOM     12  OXT UNL     1       1.127  -1.856   0.000  0.00  0.00    +0.000 OA
ENDBRANCH   3  10
BRANCH   5  13
ATOM     13  N   UNL     1      -0.412   1.031   0.000  0.00  0.00    +0.000 NA
ATOM     14  C   UNL     1      -1.127   0.619   0.000  0.00  0.00    +0.000 C 
ATOM     15  O   UNL     1      -1.127  -0.206   0.000  0.00  0.00    +0.000 OA
BRANCH  14  16
ATOM     16  CA  UNL     1      -1.841   1.031   0.000  0.00  0.00    +0.000 C 
ATOM     17  N   UNL     1      -1.841   1.856   0.000  0.00  0.00    +0.000 NA
BRANCH  16  18
ATOM     18  C   UNL     1      -2.556   0.619   0.000  0.00  0.00    +0.000 A 
ATOM     19  C   UNL     1      -3.270   1.031   0.000  0.00  0.00    +0.000 A 
ATOM     20  C   UNL     1      -2.556  -0.206   0.000  0.00  0.00    +0.000 A 
ATOM     21  C   UNL     1      -3.985   0.619   0.000  0.00  0.00    +0.000 A 
ATOM     22  C   UNL     1      -3.270  -0.619   0.000  0.00  0.00    +0.000 A 
ATOM     23  C   UNL     1      -3.985  -0.206   0.000  0.00  0.00    +0.000 A 
ATOM     24  O   UNL     1      -4.699  -0.619   0.000  0.00  0.00    +0.000 OA
ENDBRANCH  16  18
ENDBRANCH  14  16
ENDBRANCH   5  13
BRANCH   7  25
ATOM     25  C   UNL     1       3.270  -0.619   0.000  0.00  0.00    +0.000 C 
ATOM     26  C   UNL     1       3.985  -0.206   0.000  0.00  0.00    +0.000 C 
ATOM     27  C   UNL     1       4.699  -0.619   0.000  0.00  0.00    +0.000 C 
ENDBRANCH   7  25
TORSDOF 5
