REMARK  Name = 
REMARK  4 active torsions:
REMARK  status: ('A' for Active; 'I' for Inactive)
REMARK    1  A    between atoms: P_1  and  O_5
REMARK    2  A    between atoms: O_5  and  C_19
REMARK    3  A    between atoms: N_11  and  C_15
REMARK    4  A    between atoms: C_18  and  C_19
REMARK                            x       y       z     vdW  Elec       q    Type
REMARK                         _______ _______ _______ _____ _____    ______ ____
ROOT
ATOM      1  O   UNL     1       0.370   0.553   0.000  0.00  0.00    +0.000 OA
ATOM      2  O   UNL     1      -1.724   0.969   0.000  0.00  0.00    +0.000 OA
ATOM      3  O   UNL     1      -0.667   2.419   0.000  0.00  0.00    +0.000 OA
ATOM      4  C   UNL     1      -0.415   0.299   0.000  0.00  0.00    +0.000 C 
ATOM      5  C   UNL     1      -0.899   0.968   0.000  0.00  0.00    +0.000 C 
ATOM      6  C   UNL     1      -0.413   1.634   0.000  0.00  0.00    +0.000 C 
ATOM      7  C   UNL     1       0.371   1.378   0.000  0.00  0.00    +0.000 C 
ENDROOT
BRANCH   4  10
ATOM      8  O   UNL     1      -2.167  -2.799   0.000  0.00  0.00    +0.000 OA
ATOM      9  O   UNL     1      -3.596  -0.324   0.000  0.00  0.00    +0.000 OA
ATOM     10  N   UNL     1      -0.672  -0.485   0.000  0.00  0.00    +0.000 N 
ATOM     11  N   UNL     1      -0.672  -1.813   0.000  0.00  0.00    +0.000 NA
ATOM     12  N   UNL     1      -2.167  -0.324   0.000  0.00  0.00    +0.000 NA
ATOM     13  N   UNL     1      -2.881  -1.561   0.000  0.00  0.00    +0.000 NA
ATOM     14  C   UNL     1      -1.452  -0.736   0.000  0.00  0.00    +0.000 A 
ATOM     15  C   UNL     1      -0.190  -1.149   0.000  0.00  0.00    +0.000 A 
ATOM     16  C   UNL     1      -1.452  -1.561   0.000  0.00  0.00    +0.000 A 
ATOM     17  C   UNL     1      -2.167  -1.974   0.000  0.00  0.00    +0.000 A 
ATOM     18  C   UNL     1      -2.881  -0.736   0.000  0.00  0.00    +0.000 A 
ENDBRANCH   4  10
BRANCH   7  19
ATOM     19  C   UNL     1       1.039   1.862   0.000  0.00  0.00    +0.000 C 
BRANCH  19  20
ATOM     20  O   UNL     1       1.792   1.525   0.000  0.00  0.00    +0.000 OA
BRANCH  20  21
ATOM     21  P   UNL     1       2.461   2.009   0.000  0.00  0.00    +0.000 P 
ATOM     22  O   UNL     1       3.129   2.492   0.000  0.00  0.00    +0.000 OA
ATOM     23  O   UNL     1       2.944   1.340   0.000  0.00  0.00    +0.000 OA
ATOM     24  O   UNL     1       1.977   2.677   0.000  0.00  0.00    +0.000 OA
ENDBRANCH  20  21
ENDBRANCH  19  20
ENDBRANCH   7  19
TORSDOF 4
