REMARK  Name = 
REMARK  7 active torsions:
REMARK  status: ('A' for Active; 'I' for Inactive)
REMARK    1  A    between atoms: C_2  and  C_4
REMARK    2  A    between atoms: C_6  and  C_7
REMARK    3  A    between atoms: C_7  and  C_8
REMARK    4  A    between atoms: C_12  and  O_13
REMARK    5  A    between atoms: O_13  and  C_14
REMARK    6  A    between atoms: C_14  and  P_15
REMARK    7  A    between atoms: C_20  and  C_22
REMARK                            x       y       z     vdW  Elec       q    Type
REMARK                         _______ _______ _______ _____ _____    ______ ____
ROOT
ATOM      1  C   UNL     1       6.706  -8.431   0.000  0.00  0.00    +0.000 A 
ATOM      2  C   UNL     1       7.421  -8.844   0.000  0.00  0.00    +0.000 A 
ATOM      3  C   UNL     1       8.135  -8.431   0.000  0.00  0.00    +0.000 C 
ATOM      4  C   UNL     1       7.421  -9.668   0.000  0.00  0.00    +0.000 A 
ATOM      5  C   UNL     1       6.706 -10.081   0.000  0.00  0.00    +0.000 A 
ATOM      6  C   UNL     1       5.992  -9.668   0.000  0.00  0.00    +0.000 A 
ATOM      7  C   UNL     1       5.992  -8.844   0.000  0.00  0.00    +0.000 A 
ATOM      8  C   UNL     1       5.277  -8.431   0.000  0.00  0.00    +0.000 C 
ENDROOT
BRANCH   1   9
ATOM      9  C   UNL     1       6.706  -7.606   0.000  0.00  0.00    +0.000 C 
BRANCH   9  12
ATOM     10  C   UNL     1       5.277  -5.956   0.000  0.00  0.00    +0.000 A 
ATOM     11  C   UNL     1       5.992  -6.369   0.000  0.00  0.00    +0.000 A 
ATOM     12  C   UNL     1       5.992  -7.194   0.000  0.00  0.00    +0.000 A 
ATOM     13  C   UNL     1       5.277  -7.606   0.000  0.00  0.00    +0.000 A 
ATOM     14  C   UNL     1       4.563  -7.194   0.000  0.00  0.00    +0.000 A 
ATOM     15  C   UNL     1       4.563  -6.369   0.000  0.00  0.00    +0.000 A 
ATOM     16  O   UNL     1       3.848  -5.956   0.000  0.00  0.00    +0.000 OA
BRANCH  10  18
ATOM     17  C   UNL     1       4.563  -4.718   0.000  0.00  0.00    +0.000 C 
ATOM     18  C   UNL     1       5.277  -5.131   0.000  0.00  0.00    +0.000 C 
ATOM     19  C   UNL     1       5.992  -4.718   0.000  0.00  0.00    +0.000 C 
ENDBRANCH  10  18
ENDBRANCH   9  12
ENDBRANCH   1   9
BRANCH   5  20
ATOM     20  O   UNL     1       6.706 -10.906   0.000  0.00  0.00    +0.000 OA
BRANCH  20  21
ATOM     21  C   UNL     1       7.421 -11.319   0.000  0.00  0.00    +0.000 C 
BRANCH  21  22
ATOM     22  P   UNL     1       7.421 -12.143   0.000  0.00  0.00    +0.000 P 
ATOM     23  O   UNL     1       6.608 -12.000   0.000  0.00  0.00    +0.000 OA
ATOM     24  O   UNL     1       8.233 -12.000   0.000  0.00  0.00    +0.000 OA
ATOM     25  C   UNL     1       8.763 -12.632   0.000  0.00  0.00    +0.000 C 
ATOM     26  C   UNL     1       8.481 -13.408   0.000  0.00  0.00    +0.000 C 
ATOM     27  C   UNL     1       7.669 -13.551   0.000  0.00  0.00    +0.000 C 
ATOM     28  O   UNL     1       7.138 -12.919   0.000  0.00  0.00    +0.000 OA
BRANCH  27  29
ATOM     29  C   UNL     1       7.387 -14.326   0.000  0.00  0.00    +0.000 A 
ATOM     30  C   UNL     1       7.917 -14.958   0.000  0.00  0.00    +0.000 A 
ATOM     31  C   UNL     1       7.635 -15.733   0.000  0.00  0.00    +0.000 A 
ATOM     32  C   UNL     1       6.822 -15.877   0.000  0.00  0.00    +0.000 A 
ATOM     33  C   UNL     1       6.292 -15.245   0.000  0.00  0.00    +0.000 A 
ATOM     34 CL   UNL     1       5.479 -15.388   0.000  0.00  0.00    +0.000 Cl
ATOM     35  C   UNL     1       6.574 -14.469   0.000  0.00  0.00    +0.000 A 
ENDBRANCH  27  29
ENDBRANCH  21  22
ENDBRANCH  20  21
ENDBRANCH   5  20
TORSDOF 7
