REMARK  Name = 
REMARK  10 active torsions:
REMARK  status: ('A' for Active; 'I' for Inactive)
REMARK    1  A    between atoms: C_2  and  C_3
REMARK    2  A    between atoms: C_6  and  N_9
REMARK    3  A    between atoms: N_9  and  C_10
REMARK    4  A    between atoms: N_9  and  S_14
REMARK    5  A    between atoms: C_10  and  C_11
REMARK    6  A    between atoms: S_14  and  C_17
REMARK    7  A    between atoms: C_19  and  C_20
REMARK    8  A    between atoms: C_22  and  O_23
REMARK    9  A    between atoms: O_23  and  C_24
REMARK   10  A    between atoms: C_24  and  C_25
REMARK                            x       y       z     vdW  Elec       q    Type
REMARK                         _______ _______ _______ _____ _____    ______ ____
ROOT
ATOM      1  S   UNL     1       2.143  -8.662   0.000  0.00  0.00    +0.000 S 
ATOM      2  O   UNL     1       1.731  -7.948   0.000  0.00  0.00    +0.000 OA
ATOM      3  O   UNL     1       2.556  -9.377   0.000  0.00  0.00    +0.000 OA
ENDROOT
BRANCH   1   4
ATOM      4  C   UNL     1       1.429  -9.075   0.000  0.00  0.00    +0.000 A 
ATOM      5  C   UNL     1       1.429  -9.900   0.000  0.00  0.00    +0.000 A 
ATOM      6  C   UNL     1       0.715 -10.312   0.000  0.00  0.00    +0.000 A 
ATOM      7  C   UNL     1       0.000  -9.900   0.000  0.00  0.00    +0.000 A 
ATOM      8  C   UNL     1       0.000  -9.075   0.000  0.00  0.00    +0.000 A 
ATOM      9  C   UNL     1       0.715  -8.662   0.000  0.00  0.00    +0.000 A 
BRANCH   6  10
ATOM     10  C   UNL     1       0.715 -11.137   0.000  0.00  0.00    +0.000 C 
ATOM     11  O   UNL     1       0.000 -11.550   0.000  0.00  0.00    +0.000 OA
ENDBRANCH   6  10
BRANCH   7  12
ATOM     12  O   UNL     1      -0.715 -10.312   0.000  0.00  0.00    +0.000 OA
BRANCH  12  13
ATOM     13  C   UNL     1      -0.715 -11.137   0.000  0.00  0.00    +0.000 C 
BRANCH  13  14
ATOM     14  C   UNL     1      -1.429 -11.550   0.000  0.00  0.00    +0.000 C 
ATOM     15  C   UNL     1      -1.429 -12.375   0.000  0.00  0.00    +0.000 C 
ATOM     16  C   UNL     1      -2.143 -12.787   0.000  0.00  0.00    +0.000 C 
ATOM     17  O   UNL     1      -2.858 -12.375   0.000  0.00  0.00    +0.000 OA
ATOM     18  C   UNL     1      -2.858 -11.550   0.000  0.00  0.00    +0.000 C 
ATOM     19  C   UNL     1      -2.143 -11.137   0.000  0.00  0.00    +0.000 C 
ENDBRANCH  13  14
ENDBRANCH  12  13
ENDBRANCH   7  12
ENDBRANCH   1   4
BRANCH   1  20
ATOM     20  N   UNL     1       2.858  -8.250   0.000  0.00  0.00    +0.000 N 
BRANCH  20  24
ATOM     21  C   UNL     1       2.858  -5.775   0.000  0.00  0.00    +0.000 A 
ATOM     22  C   UNL     1       3.572  -6.188   0.000  0.00  0.00    +0.000 A 
ATOM     23  C   UNL     1       3.572  -7.013   0.000  0.00  0.00    +0.000 A 
ATOM     24  C   UNL     1       2.858  -7.425   0.000  0.00  0.00    +0.000 A 
ATOM     25  C   UNL     1       2.143  -7.013   0.000  0.00  0.00    +0.000 A 
ATOM     26  C   UNL     1       2.143  -6.188   0.000  0.00  0.00    +0.000 A 
BRANCH  21  28
ATOM     27  C   UNL     1       2.143  -4.537   0.000  0.00  0.00    +0.000 C 
ATOM     28  C   UNL     1       2.858  -4.950   0.000  0.00  0.00    +0.000 C 
ENDBRANCH  21  28
ENDBRANCH  20  24
BRANCH  20  29
ATOM     29  C   UNL     1       3.572  -8.662   0.000  0.00  0.00    +0.000 C 
BRANCH  29  30
ATOM     30  C   UNL     1       3.572  -9.488   0.000  0.00  0.00    +0.000 C 
ATOM     31  C   UNL     1       2.858  -9.900   0.000  0.00  0.00    +0.000 C 
ATOM     32  C   UNL     1       4.287  -9.900   0.000  0.00  0.00    +0.000 C 
ENDBRANCH  29  30
ENDBRANCH  20  29
ENDBRANCH   1  20
TORSDOF 10
