REMARK  Name = 
REMARK  6 active torsions:
REMARK  status: ('A' for Active; 'I' for Inactive)
REMARK    1  A    between atoms: C_2  and  C_3
REMARK    2  A    between atoms: C_2  and  C_14
REMARK    3  A    between atoms: C_3  and  O_4
REMARK    4  A    between atoms: O_4  and  N_5
REMARK    5  A    between atoms: C_6  and  C_8
REMARK    6  A    between atoms: C_14  and  N_15
REMARK                            x       y       z     vdW  Elec       q    Type
REMARK                         _______ _______ _______ _____ _____    ______ ____
ROOT
ATOM      1  C   UNL     1       3.572  -3.712   0.000  0.00  0.00    +0.000 C 
ENDROOT
BRANCH   1   3
ATOM      2  O   UNL     1       4.287  -4.950   0.000  0.00  0.00    +0.000 OA
ATOM      3  C   UNL     1       4.287  -4.125   0.000  0.00  0.00    +0.000 C 
BRANCH   3   4
ATOM      4  C   UNL     1       5.001  -3.712   0.000  0.00  0.00    +0.000 C 
BRANCH   4   5
ATOM      5  N   UNL     1       5.716  -4.125   0.000  0.00  0.00    +0.000 NA
ATOM      6  C   UNL     1       6.430  -3.712   0.000  0.00  0.00    +0.000 C 
ATOM      7  C   UNL     1       7.145  -4.125   0.000  0.00  0.00    +0.000 C 
ATOM      8  C   UNL     1       7.145  -4.950   0.000  0.00  0.00    +0.000 C 
ATOM      9  C   UNL     1       6.430  -5.362   0.000  0.00  0.00    +0.000 C 
ATOM     10  C   UNL     1       5.716  -4.950   0.000  0.00  0.00    +0.000 C 
ENDBRANCH   4   5
ENDBRANCH   3   4
ENDBRANCH   1   3
BRANCH   1  11
ATOM     11  O   UNL     1       2.858  -4.125   0.000  0.00  0.00    +0.000 OA
BRANCH  11  12
ATOM     12  N   UNL     1       2.143  -3.712   0.000  0.00  0.00    +0.000 NA
ATOM     13  C   UNL     1       1.429  -4.125   0.000  0.00  0.00    +0.000 C 
ATOM     14  N   UNL     1       1.429  -4.950   0.000  0.00  0.00    +0.000 NA
BRANCH  13  15
ATOM     15  C   UNL     1       0.715  -3.712   0.000  0.00  0.00    +0.000 A 
ATOM     16  C   UNL     1       0.000  -4.125   0.000  0.00  0.00    +0.000 A 
ATOM     17  C   UNL     1      -0.715  -3.712   0.000  0.00  0.00    +0.000 A 
ATOM     18  C   UNL     1      -0.715  -2.888   0.000  0.00  0.00    +0.000 A 
ATOM     19  N   UNL     1       0.000  -2.475   0.000  0.00  0.00    +0.000 NA
ATOM     20  C   UNL     1       0.715  -2.888   0.000  0.00  0.00    +0.000 A 
ENDBRANCH  13  15
ENDBRANCH  11  12
ENDBRANCH   1  11
TORSDOF 6
