REMARK  Name = 
REMARK  5 active torsions:
REMARK  status: ('A' for Active; 'I' for Inactive)
REMARK    1  A    between atoms: O_1  and  C_2
REMARK    2  A    between atoms: O_1  and  C_14
REMARK    3  A    between atoms: C_4  and  C_5
REMARK    4  A    between atoms: C_10  and  C_12
REMARK    5  A    between atoms: C_16  and  C_17
REMARK                            x       y       z     vdW  Elec       q    Type
REMARK                         _______ _______ _______ _____ _____    ______ ____
ROOT
ATOM      1  C   UNL     1      -0.623   0.143   0.000  0.00  0.00    +0.000 A 
ATOM      2  C   UNL     1      -1.337  -0.269   0.000  0.00  0.00    +0.000 A 
ATOM      3  C   UNL     1      -2.052   0.143   0.000  0.00  0.00    +0.000 A 
ATOM      4  C   UNL     1      -2.052   0.969   0.000  0.00  0.00    +0.000 A 
ATOM      5  C   UNL     1      -1.337   1.381   0.000  0.00  0.00    +0.000 A 
ATOM      6  C   UNL     1      -0.623   0.969   0.000  0.00  0.00    +0.000 A 
ENDROOT
BRANCH   3   7
ATOM      7  C   UNL     1      -2.766  -0.269   0.000  0.00  0.00    +0.000 C 
ATOM      8  O   UNL     1      -3.481   0.143   0.000  0.00  0.00    +0.000 OA
ATOM      9  N   UNL     1      -2.766  -1.094   0.000  0.00  0.00    +0.000 N 
ATOM     10  C   UNL     1      -2.099  -1.579   0.000  0.00  0.00    +0.000 C 
ATOM     11  C   UNL     1      -2.354  -2.364   0.000  0.00  0.00    +0.000 C 
ATOM     12  C   UNL     1      -3.179  -2.364   0.000  0.00  0.00    +0.000 C 
ATOM     13  C   UNL     1      -3.434  -1.579   0.000  0.00  0.00    +0.000 C 
ATOM     14  O   UNL     1      -3.664  -3.031   0.000  0.00  0.00    +0.000 OA
ATOM     15  F   UNL     1      -1.869  -3.031   0.000  0.00  0.00    +0.000 F 
ENDBRANCH   3   7
BRANCH   1  16
ATOM     16  O   UNL     1       0.091  -0.269   0.000  0.00  0.00    +0.000 OA
BRANCH  16  17
ATOM     17  C   UNL     1       0.806   0.143   0.000  0.00  0.00    +0.000 A 
ATOM     18  N   UNL     1       0.806   0.969   0.000  0.00  0.00    +0.000 NA
ATOM     19  C   UNL     1       1.520   1.381   0.000  0.00  0.00    +0.000 A 
ATOM     20  C   UNL     1       2.235   0.969   0.000  0.00  0.00    +0.000 A 
ATOM     21  C   UNL     1       2.235   0.143   0.000  0.00  0.00    +0.000 A 
ATOM     22  C   UNL     1       1.520  -0.269   0.000  0.00  0.00    +0.000 A 
BRANCH  19  23
ATOM     23  C   UNL     1       1.520   2.206   0.000  0.00  0.00    +0.000 C 
ATOM     24  F   UNL     1       2.235   2.619   0.000  0.00  0.00    +0.000 F 
ATOM     25  F   UNL     1       1.520   3.031   0.000  0.00  0.00    +0.000 F 
ATOM     26  F   UNL     1       0.806   2.619   0.000  0.00  0.00    +0.000 F 
ENDBRANCH  19  23
BRANCH  21  27
ATOM     27  C   UNL     1       2.949  -0.269   0.000  0.00  0.00    +0.000 C 
ATOM     28  N   UNL     1       3.664   0.143   0.000  0.00  0.00    +0.000 NA
ENDBRANCH  21  27
ENDBRANCH  16  17
ENDBRANCH   1  16
TORSDOF 5
