REMARK  Name = 
REMARK  25 active torsions:
REMARK  status: ('A' for Active; 'I' for Inactive)
REMARK    1  A    between atoms: C_3  and  C_13
REMARK    2  A    between atoms: C_13  and  N_14
REMARK    3  A    between atoms: N_14  and  C_15
REMARK    4  A    between atoms: C_18  and  C_21
REMARK    5  A    between atoms: N_22  and  CA_23
REMARK    6  A    between atoms: CA_23  and  C_24
REMARK    7  A    between atoms: CA_23  and  C_88
REMARK    8  A    between atoms: C_24  and  C_25
REMARK    9  A    between atoms: C_28  and  O_31
REMARK   10  A    between atoms: O_31  and  C_32
REMARK   11  A    between atoms: C_37  and  C_38
REMARK   12  A    between atoms: C_39  and  C_40
REMARK   13  A    between atoms: N_44  and  C_45
REMARK   14  A    between atoms: C_45  and  C_46
REMARK   15  A    between atoms: C_46  and  C_47
REMARK   16  A    between atoms: C_47  and  C_48
REMARK   17  A    between atoms: C_48  and  S_49
REMARK   18  A    between atoms: C_55  and  S_57
REMARK   19  A    between atoms: C_63  and  C_64
REMARK   20  A    between atoms: N_69  and  C_70
REMARK   21  A    between atoms: C_70  and  C_71
REMARK   22  A    between atoms: C_71  and  C_72
REMARK   23  A    between atoms: C_72  and  C_73
REMARK   24  A    between atoms: C_73  and  S_74
REMARK   25  A    between atoms: C_80  and  S_82
REMARK                            x       y       z     vdW  Elec       q    Type
REMARK                         _______ _______ _______ _____ _____    ______ ____
ROOT
ATOM      1  C   UNL     1       3.734  -0.463   0.000  0.00  0.00    +0.000 C 
ATOM      2  C   UNL     1       4.451  -0.053   0.000  0.00  0.00    +0.000 C 
ATOM      3  C   UNL     1       5.167  -0.463   0.000  0.00  0.00    +0.000 C 
ATOM      4  C   UNL     1       5.167  -1.286   0.000  0.00  0.00    +0.000 C 
ATOM      5  C   UNL     1       4.451  -1.700   0.000  0.00  0.00    +0.000 C 
ATOM      6  C   UNL     1       3.734  -1.286   0.000  0.00  0.00    +0.000 C 
ATOM      7  C   UNL     1       4.451   0.770   0.000  0.00  0.00    +0.000 C 
ENDROOT
BRANCH   7   8
ATOM      8  C   UNL     1       5.167   1.184   0.000  0.00  0.00    +0.000 C 
ATOM      9  C   UNL     1       5.167   2.013   0.000  0.00  0.00    +0.000 C 
ATOM     10  C   UNL     1       4.451   2.422   0.000  0.00  0.00    +0.000 C 
ATOM     11  C   UNL     1       4.636   3.244   0.000  0.00  0.00    +0.000 A 
ATOM     12  C   UNL     1       5.435   3.327   0.000  0.00  0.00    +0.000 A 
ATOM     13  N   UNL     1       5.767   2.562   0.000  0.00  0.00    +0.000 N 
ATOM     14  C   UNL     1       5.767   4.062   0.000  0.00  0.00    +0.000 A 
ATOM     15  C   UNL     1       5.291   4.717   0.000  0.00  0.00    +0.000 A 
ATOM     16  C   UNL     1       4.498   4.632   0.000  0.00  0.00    +0.000 A 
ATOM     17  C   UNL     1       4.169   3.897   0.000  0.00  0.00    +0.000 A 
ATOM     18  C   UNL     1       3.734   2.013   0.000  0.00  0.00    +0.000 C 
ATOM     19  C   UNL     1       3.787   2.912   0.000  0.00  0.00    +0.000 C 
BRANCH  16  20
ATOM     20  S   UNL     1       4.084   5.344   0.000  0.00  0.00    +0.000 S 
ATOM     21  O   UNL     1       4.497   6.066   0.000  0.00  0.00    +0.000 OA
ATOM     22  O   UNL     1       3.367   5.763   0.000  0.00  0.00    +0.000 OA
ATOM     23  O   UNL     1       3.670   4.632   0.000  0.00  0.00    +0.000 OA
ENDBRANCH  16  20
BRANCH  13  24
ATOM     24  C   UNL     1       6.569   2.355   0.000  0.00  0.00    +0.000 C 
BRANCH  24  25
ATOM     25  C   UNL     1       6.776   1.558   0.000  0.00  0.00    +0.000 C 
BRANCH  25  26
ATOM     26  C   UNL     1       7.573   1.341   0.000  0.00  0.00    +0.000 C 
BRANCH  26  27
ATOM     27  C   UNL     1       7.790   0.549   0.000  0.00  0.00    +0.000 C 
BRANCH  27  28
ATOM     28  S   UNL     1       8.893   0.444   0.000  0.00  0.00    +0.000 S 
ATOM     29  O   UNL     1       9.176  -0.405   0.000  0.00  0.00    +0.000 OA
ATOM     30  O   UNL     1       8.656   1.432   0.000  0.00  0.00    +0.000 OA
ATOM     31  O   UNL     1       9.842   0.921   0.000  0.00  0.00    +0.000 OA
ENDBRANCH  27  28
ENDBRANCH  26  27
ENDBRANCH  25  26
ENDBRANCH  24  25
ENDBRANCH  13  24
ENDBRANCH   7   8
BRANCH   6  32
ATOM     32  C   UNL     1       3.018  -1.700   0.000  0.00  0.00    +0.000 C 
ATOM     33  C   UNL     1       3.018  -2.529   0.000  0.00  0.00    +0.000 C 
BRANCH  33  34
ATOM     34  C   UNL     1       2.301  -2.930   0.000  0.00  0.00    +0.000 C 
ATOM     35  C   UNL     1       1.539  -2.604   0.000  0.00  0.00    +0.000 C 
ATOM     36  C   UNL     1       1.003  -3.214   0.000  0.00  0.00    +0.000 A 
ATOM     37  C   UNL     1       1.420  -3.930   0.000  0.00  0.00    +0.000 A 
ATOM     38  N   UNL     1       2.215  -3.751   0.000  0.00  0.00    +0.000 N 
ATOM     39  C   UNL     1       1.015  -4.646   0.000  0.00  0.00    +0.000 A 
ATOM     40  C   UNL     1       0.191  -4.646   0.000  0.00  0.00    +0.000 A 
ATOM     41  C   UNL     1      -0.225  -3.907   0.000  0.00  0.00    +0.000 A 
ATOM     42  C   UNL     1       0.174  -3.214   0.000  0.00  0.00    +0.000 A 
ATOM     43  C   UNL     1       1.327  -1.806   0.000  0.00  0.00    +0.000 C 
ATOM     44  C   UNL     1       2.166  -2.064   0.000  0.00  0.00    +0.000 C 
BRANCH  41  45
ATOM     45  S   UNL     1      -0.839  -3.907   0.000  0.00  0.00    +0.000 S 
ATOM     46  O   UNL     1      -1.496  -3.793   0.000  0.00  0.00    +0.000 OA
ATOM     47  O   UNL     1      -0.770  -3.151   0.000  0.00  0.00    +0.000 OA
ATOM     48  O   UNL     1      -0.742  -4.798   0.000  0.00  0.00    +0.000 OA
ENDBRANCH  41  45
BRANCH  38  49
ATOM     49  C   UNL     1       2.801  -4.332   0.000  0.00  0.00    +0.000 C 
BRANCH  49  50
ATOM     50  C   UNL     1       3.598  -4.120   0.000  0.00  0.00    +0.000 C 
BRANCH  50  51
ATOM     51  C   UNL     1       4.183  -4.701   0.000  0.00  0.00    +0.000 C 
BRANCH  51  52
ATOM     52  C   UNL     1       4.976  -4.489   0.000  0.00  0.00    +0.000 C 
BRANCH  52  53
ATOM     53  S   UNL     1       5.902  -5.415   0.000  0.00  0.00    +0.000 S 
ATOM     54  O   UNL     1       6.680  -4.867   0.000  0.00  0.00    +0.000 OA
ATOM     55  O   UNL     1       5.114  -5.883   0.000  0.00  0.00    +0.000 OA
ATOM     56  O   UNL     1       6.448  -6.066   0.000  0.00  0.00    +0.000 OA
ENDBRANCH  52  53
ENDBRANCH  51  52
ENDBRANCH  50  51
ENDBRANCH  49  50
ENDBRANCH  38  49
ENDBRANCH  33  34
ENDBRANCH   6  32
BRANCH   1  57
ATOM     57  O   UNL     1       3.018  -0.053   0.000  0.00  0.00    +0.000 OA
BRANCH  57  61
ATOM     58  C   UNL     1       0.880  -1.288   0.000  0.00  0.00    +0.000 A 
ATOM     59  C   UNL     1       0.880  -0.459   0.000  0.00  0.00    +0.000 A 
ATOM     60  C   UNL     1       1.590  -0.053   0.000  0.00  0.00    +0.000 A 
ATOM     61  C   UNL     1       2.306  -0.463   0.000  0.00  0.00    +0.000 A 
ATOM     62  C   UNL     1       2.306  -1.284   0.000  0.00  0.00    +0.000 A 
ATOM     63  C   UNL     1       1.593  -1.700   0.000  0.00  0.00    +0.000 A 
BRANCH  58  64
ATOM     64  C   UNL     1       0.160  -1.697   0.000  0.00  0.00    +0.000 C 
BRANCH  64  65
ATOM     65  CA  UNL     1      -0.552  -1.288   0.000  0.00  0.00    +0.000 C 
BRANCH  65  66
ATOM     66  C   UNL     1      -0.552  -0.459   0.000  0.00  0.00    +0.000 C 
ATOM     67  O   UNL     1      -1.268  -0.050   0.000  0.00  0.00    +0.000 OA
ATOM     68  OXT UNL     1       0.160  -0.050   0.000  0.00  0.00    +0.000 OA
ENDBRANCH  65  66
BRANCH  65  70
ATOM     69  C   UNL     1      -1.980  -1.288   0.000  0.00  0.00    +0.000 C 
ATOM     70  N   UNL     1      -1.268  -1.697   0.000  0.00  0.00    +0.000 NA
ATOM     71  O   UNL     1      -1.980  -0.459   0.000  0.00  0.00    +0.000 OA
BRANCH  69  75
ATOM     72  C   UNL     1      -4.122  -2.527   0.000  0.00  0.00    +0.000 A 
ATOM     73  C   UNL     1      -4.122  -1.698   0.000  0.00  0.00    +0.000 A 
ATOM     74  C   UNL     1      -3.408  -1.288   0.000  0.00  0.00    +0.000 A 
ATOM     75  C   UNL     1      -2.692  -1.697   0.000  0.00  0.00    +0.000 A 
ATOM     76  C   UNL     1      -2.692  -2.523   0.000  0.00  0.00    +0.000 A 
ATOM     77  C   UNL     1      -3.405  -2.939   0.000  0.00  0.00    +0.000 A 
BRANCH  72  78
ATOM     78  N   UNL     1      -4.838  -2.936   0.000  0.00  0.00    +0.000 NA
BRANCH  78  79
ATOM     79  C   UNL     1      -5.550  -2.527   0.000  0.00  0.00    +0.000 C 
BRANCH  79  82
ATOM     80  C   UNL     1      -7.695  -2.937   0.000  0.00  0.00    +0.000 A 
ATOM     81  N   UNL     1      -6.978  -2.528   0.000  0.00  0.00    +0.000 NA
ATOM     82  C   UNL     1      -6.266  -2.936   0.000  0.00  0.00    +0.000 A 
ATOM     83  C   UNL     1      -6.266  -3.760   0.000  0.00  0.00    +0.000 A 
ATOM     84  N   UNL     1      -6.976  -4.173   0.000  0.00  0.00    +0.000 NA
ATOM     85  C   UNL     1      -7.695  -3.766   0.000  0.00  0.00    +0.000 A 
ATOM     86  N   UNL     1      -8.409  -4.176   0.000  0.00  0.00    +0.000 NA
ATOM     87  C   UNL     1      -9.125  -3.763   0.000  0.00  0.00    +0.000 A 
ATOM     88  N   UNL     1      -9.125  -2.941   0.000  0.00  0.00    +0.000 NA
ATOM     89  C   UNL     1      -8.412  -2.522   0.000  0.00  0.00    +0.000 A 
ATOM     90  O   UNL     1      -8.412  -1.694   0.000  0.00  0.00    +0.000 OA
ATOM     91  N   UNL     1      -9.842  -4.178   0.000  0.00  0.00    +0.000 NA
ENDBRANCH  79  82
ENDBRANCH  78  79
ENDBRANCH  72  78
ENDBRANCH  69  75
ENDBRANCH  65  70
ENDBRANCH  64  65
ENDBRANCH  58  64
ENDBRANCH  57  61
ENDBRANCH   1  57
TORSDOF 25
