REMARK  Name = 
REMARK  13 active torsions:
REMARK  status: ('A' for Active; 'I' for Inactive)
REMARK    1  A    between atoms: C_2  and  C_3
REMARK    2  A    between atoms: C_6  and  C_51
REMARK    3  A    between atoms: C_18  and  C_23
REMARK    4  A    between atoms: C_22  and  C_28
REMARK    5  A    between atoms: C_25  and  C_34
REMARK    6  A    between atoms: C_39  and  C_41
REMARK    7  A    between atoms: C_41  and  N_42
REMARK    8  A    between atoms: C_41  and  C_47
REMARK    9  A    between atoms: C_43  and  O_45
REMARK   10  A    between atoms: C_56  and  C_57
REMARK   11  A    between atoms: C_57  and  C_59
REMARK   12  A    between atoms: C_57  and  N_62
REMARK   13  A    between atoms: C_63  and  O_65
REMARK                            x       y       z     vdW  Elec       q    Type
REMARK                         _______ _______ _______ _____ _____    ______ ____
ROOT
ATOM      1  C   UNL     1      -2.354   0.546   0.000  0.00  0.00    +0.000 A 
ATOM      2  C   UNL     1      -2.441   1.372   0.000  0.00  0.00    +0.000 A 
ATOM      3  C   UNL     1      -1.772   1.853   0.000  0.00  0.00    +0.000 A 
ATOM      4  C   UNL     1      -1.022   1.516   0.000  0.00  0.00    +0.000 A 
ATOM      5  C   UNL     1      -0.936   0.695   0.000  0.00  0.00    +0.000 A 
ATOM      6  C   UNL     1      -1.602   0.213   0.000  0.00  0.00    +0.000 A 
ATOM      7  N   UNL     1      -0.127   0.525   0.000  0.00  0.00    +0.000 N 
ATOM      8  C   UNL     1       0.283   1.240   0.000  0.00  0.00    +0.000 A 
ATOM      9  C   UNL     1      -0.267   1.849   0.000  0.00  0.00    +0.000 A 
ATOM     10  C   UNL     1       1.111   1.240   0.000  0.00  0.00    +0.000 A 
ATOM     11  C   UNL     1       1.525   1.951   0.000  0.00  0.00    +0.000 A 
ATOM     12  C   UNL     1       2.347   1.951   0.000  0.00  0.00    +0.000 A 
ATOM     13  C   UNL     1       2.763   1.244   0.000  0.00  0.00    +0.000 A 
ATOM     14  C   UNL     1       2.350   0.525   0.000  0.00  0.00    +0.000 A 
ATOM     15  C   UNL     1       1.522   0.525   0.000  0.00  0.00    +0.000 A 
ATOM     16  O   UNL     1       1.111  -0.190   0.000  0.00  0.00    +0.000 OA
ATOM     17  C   UNL     1       0.284  -0.190   0.000  0.00  0.00    +0.000 C 
ENDROOT
BRANCH  17  18
ATOM     18  C   UNL     1      -0.129  -0.904   0.000  0.00  0.00    +0.000 A 
ATOM     19  C   UNL     1       0.283  -1.619   0.000  0.00  0.00    +0.000 A 
ATOM     20  C   UNL     1      -0.954  -0.903   0.000  0.00  0.00    +0.000 A 
ATOM     21  C   UNL     1      -0.130  -2.333   0.000  0.00  0.00    +0.000 A 
ATOM     22  C   UNL     1      -1.367  -1.618   0.000  0.00  0.00    +0.000 A 
ATOM     23  C   UNL     1      -0.955  -2.333   0.000  0.00  0.00    +0.000 A 
ENDBRANCH  17  18
BRANCH  13  24
ATOM     24  C   UNL     1       3.579   1.330   0.000  0.00  0.00    +0.000 A 
ATOM     25  N   UNL     1       4.134   0.713   0.000  0.00  0.00    +0.000 NA
ATOM     26  C   UNL     1       4.884   1.050   0.000  0.00  0.00    +0.000 A 
ATOM     27  N   UNL     1       4.798   1.870   0.000  0.00  0.00    +0.000 NA
ATOM     28  C   UNL     1       3.994   2.040   0.000  0.00  0.00    +0.000 A 
BRANCH  26  29
ATOM     29  C   UNL     1       5.599   0.639   0.000  0.00  0.00    +0.000 C 
ATOM     30  C   UNL     1       6.352   0.976   0.000  0.00  0.00    +0.000 C 
ATOM     31  N   UNL     1       5.687  -0.181   0.000  0.00  0.00    +0.000 N 
ATOM     32  C   UNL     1       6.906   0.364   0.000  0.00  0.00    +0.000 C 
ATOM     33  C   UNL     1       6.495  -0.351   0.000  0.00  0.00    +0.000 C 
ATOM     34  C   UNL     1       5.075  -0.734   0.000  0.00  0.00    +0.000 C 
ATOM     35  O   UNL     1       4.291  -0.481   0.000  0.00  0.00    +0.000 OA
BRANCH  34  36
ATOM     36  C   UNL     1       5.248  -1.540   0.000  0.00  0.00    +0.000 C 
BRANCH  36  37
ATOM     37  N   UNL     1       4.637  -2.093   0.000  0.00  0.00    +0.000 NA
ATOM     38  C   UNL     1       3.852  -1.840   0.000  0.00  0.00    +0.000 C 
ATOM     39  O   UNL     1       3.679  -1.033   0.000  0.00  0.00    +0.000 OA
BRANCH  38  40
ATOM     40  O   UNL     1       3.240  -2.393   0.000  0.00  0.00    +0.000 OA
ATOM     41  C   UNL     1       2.454  -2.140   0.000  0.00  0.00    +0.000 C 
ENDBRANCH  38  40
ENDBRANCH  36  37
BRANCH  36  42
ATOM     42  C   UNL     1       6.033  -1.793   0.000  0.00  0.00    +0.000 C 
ATOM     43  C   UNL     1       6.206  -2.599   0.000  0.00  0.00    +0.000 C 
ATOM     44  C   UNL     1       6.645  -1.240   0.000  0.00  0.00    +0.000 C 
ENDBRANCH  36  42
ENDBRANCH  34  36
ENDBRANCH  26  29
ENDBRANCH  13  24
BRANCH   2  45
ATOM     45  C   UNL     1      -3.193   1.706   0.000  0.00  0.00    +0.000 A 
ATOM     46  C   UNL     1      -3.365   2.514   0.000  0.00  0.00    +0.000 A 
ATOM     47  N   UNL     1      -4.187   2.599   0.000  0.00  0.00    +0.000 NA
ATOM     48  C   UNL     1      -4.525   1.848   0.000  0.00  0.00    +0.000 A 
ATOM     49  N   UNL     1      -3.907   1.295   0.000  0.00  0.00    +0.000 NA
BRANCH  48  50
ATOM     50  C   UNL     1      -5.332   1.677   0.000  0.00  0.00    +0.000 C 
ATOM     51  N   UNL     1      -5.668   0.923   0.000  0.00  0.00    +0.000 N 
ATOM     52  C   UNL     1      -5.945   2.229   0.000  0.00  0.00    +0.000 C 
ATOM     53  C   UNL     1      -6.488   1.010   0.000  0.00  0.00    +0.000 C 
ATOM     54  C   UNL     1      -6.659   1.817   0.000  0.00  0.00    +0.000 C 
ATOM     55  C   UNL     1      -5.256   0.209   0.000  0.00  0.00    +0.000 C 
ATOM     56  O   UNL     1      -4.431   0.209   0.000  0.00  0.00    +0.000 OA
BRANCH  55  57
ATOM     57  C   UNL     1      -5.668  -0.505   0.000  0.00  0.00    +0.000 C 
BRANCH  57  58
ATOM     58  C   UNL     1      -6.493  -0.504   0.000  0.00  0.00    +0.000 C 
ATOM     59  C   UNL     1      -6.905   0.210   0.000  0.00  0.00    +0.000 C 
ATOM     60  C   UNL     1      -6.906  -1.218   0.000  0.00  0.00    +0.000 C 
ENDBRANCH  57  58
BRANCH  57  61
ATOM     61  N   UNL     1      -5.257  -1.219   0.000  0.00  0.00    +0.000 NA
ATOM     62  C   UNL     1      -4.432  -1.219   0.000  0.00  0.00    +0.000 C 
ATOM     63  O   UNL     1      -4.019  -0.505   0.000  0.00  0.00    +0.000 OA
BRANCH  62  64
ATOM     64  O   UNL     1      -4.019  -1.934   0.000  0.00  0.00    +0.000 OA
ATOM     65  C   UNL     1      -3.194  -1.935   0.000  0.00  0.00    +0.000 C 
ENDBRANCH  62  64
ENDBRANCH  57  61
ENDBRANCH  55  57
ENDBRANCH  48  50
ENDBRANCH   2  45
TORSDOF 13
