REMARK  Name = 
REMARK  4 active torsions:
REMARK  status: ('A' for Active; 'I' for Inactive)
REMARK    1  A    between atoms: C_9  and  C_13
REMARK    2  A    between atoms: C_10  and  C_14
REMARK    3  A    between atoms: C_11  and  N_19
REMARK    4  A    between atoms: C_12  and  N_19
REMARK                            x       y       z     vdW  Elec       q    Type
REMARK                         _______ _______ _______ _____ _____    ______ ____
ROOT
ATOM      1  C   UNL     1       0.715   3.712   0.000  0.00  0.00    +0.000 C 
ATOM      2  C   UNL     1       2.858   2.475   0.000  0.00  0.00    +0.000 A 
ATOM      3  C   UNL     1       2.858   3.300   0.000  0.00  0.00    +0.000 A 
ATOM      4  C   UNL     1       2.143   2.062   0.000  0.00  0.00    +0.000 A 
ATOM      5  C   UNL     1       1.429   3.300   0.000  0.00  0.00    +0.000 A 
ATOM      6  C   UNL     1       2.143   3.712   0.000  0.00  0.00    +0.000 A 
ATOM      7  C   UNL     1       1.429   2.475   0.000  0.00  0.00    +0.000 A 
ENDROOT
BRANCH   6   8
ATOM      8  C   UNL     1       2.143   4.537   0.000  0.00  0.00    +0.000 C 
ATOM      9  F   UNL     1       2.143   5.362   0.000  0.00  0.00    +0.000 F 
ATOM     10  F   UNL     1       2.968   4.537   0.000  0.00  0.00    +0.000 F 
ATOM     11  F   UNL     1       1.318   4.537   0.000  0.00  0.00    +0.000 F 
ENDBRANCH   6   8
BRANCH   7  12
ATOM     12  N   UNL     1       0.715   2.062   0.000  0.00  0.00    +0.000 NA
BRANCH  12  17
ATOM     13  C   UNL     1      -1.429   3.300   0.000  0.00  0.00    +0.000 A 
ATOM     14  C   UNL     1      -1.429   2.475   0.000  0.00  0.00    +0.000 A 
ATOM     15  C   UNL     1      -0.715   3.712   0.000  0.00  0.00    +0.000 A 
ATOM     16  C   UNL     1      -0.715   2.062   0.000  0.00  0.00    +0.000 A 
ATOM     17  C   UNL     1       0.000   2.475   0.000  0.00  0.00    +0.000 A 
ATOM     18  N   UNL     1       0.000   3.300   0.000  0.00  0.00    +0.000 NA
BRANCH  16  19
ATOM     19  C   UNL     1      -0.715   1.238   0.000  0.00  0.00    +0.000 C 
ATOM     20  O   UNL     1      -1.429   0.825   0.000  0.00  0.00    +0.000 OA
ATOM     21  O   UNL     1       0.000   0.825   0.000  0.00  0.00    +0.000 OA
ENDBRANCH  16  19
ENDBRANCH  12  17
ENDBRANCH   7  12
TORSDOF 4
