REMARK  Name = 
REMARK  3 active torsions:
REMARK  status: ('A' for Active; 'I' for Inactive)
REMARK    1  A    between atoms: C_9  and  O_22
REMARK    2  A    between atoms: C_18  and  C_19
REMARK    3  A    between atoms: O_22  and  C_23
REMARK                            x       y       z     vdW  Elec       q    Type
REMARK                         _______ _______ _______ _____ _____    ______ ____
ROOT
ATOM      1  C   UNL     1       1.389  -1.850   0.000  0.00  0.00    +0.000 C 
ATOM      2  C   UNL     1       1.749  -2.592   0.000  0.00  0.00    +0.000 C 
ATOM      3  C   UNL     1       2.281  -1.961   0.000  0.00  0.00    +0.000 C 
ATOM      4  C   UNL     1       3.093  -2.107   0.000  0.00  0.00    +0.000 C 
ATOM      5  C   UNL     1       3.374  -2.882   0.000  0.00  0.00    +0.000 C 
ATOM      6  C   UNL     1       4.186  -3.028   0.000  0.00  0.00    +0.000 C 
ATOM      7  C   UNL     1       4.718  -2.397   0.000  0.00  0.00    +0.000 C 
ATOM      8  C   UNL     1       5.530  -2.542   0.000  0.00  0.00    +0.000 C 
ATOM      9  C   UNL     1       5.810  -3.318   0.000  0.00  0.00    +0.000 C 
ATOM     10  C   UNL     1       5.278  -3.949   0.000  0.00  0.00    +0.000 C 
ATOM     11  C   UNL     1       4.466  -3.804   0.000  0.00  0.00    +0.000 C 
ATOM     12  C   UNL     1       3.934  -4.434   0.000  0.00  0.00    +0.000 C 
ATOM     13  C   UNL     1       3.122  -4.289   0.000  0.00  0.00    +0.000 C 
ATOM     14  C   UNL     1       2.842  -3.513   0.000  0.00  0.00    +0.000 C 
ATOM     15  C   UNL     1       2.030  -3.368   0.000  0.00  0.00    +0.000 C 
ATOM     16  C   UNL     1       1.378  -3.874   0.000  0.00  0.00    +0.000 C 
ATOM     17  C   UNL     1       0.696  -3.411   0.000  0.00  0.00    +0.000 C 
ATOM     18  C   UNL     1       0.925  -2.619   0.000  0.00  0.00    +0.000 C 
ATOM     19  O   UNL     1       0.803  -1.803   0.000  0.00  0.00    +0.000 OA
ENDROOT
BRANCH  18  20
ATOM     20  C   UNL     1       0.164  -2.300   0.000  0.00  0.00    +0.000 C 
ATOM     21  C   UNL     1      -0.597  -1.981   0.000  0.00  0.00    +0.000 C 
ENDBRANCH  18  20
BRANCH   9  22
ATOM     22  O   UNL     1       6.622  -3.463   0.000  0.00  0.00    +0.000 OA
BRANCH  22  23
ATOM     23  C   UNL     1       6.902  -4.239   0.000  0.00  0.00    +0.000 C 
ATOM     24  C   UNL     1       7.695  -4.469   0.000  0.00  0.00    +0.000 C 
ATOM     25  C   UNL     1       7.722  -5.293   0.000  0.00  0.00    +0.000 C 
ATOM     26  C   UNL     1       6.946  -5.574   0.000  0.00  0.00    +0.000 C 
ATOM     27  C   UNL     1       6.439  -4.922   0.000  0.00  0.00    +0.000 C 
ENDBRANCH  22  23
ENDBRANCH   9  22
TORSDOF 3
