REMARK  Name = 
REMARK  8 active torsions:
REMARK  status: ('A' for Active; 'I' for Inactive)
REMARK    1  A    between atoms: C_21  and  C_25
REMARK    2  A    between atoms: C_21  and  N_32
REMARK    3  A    between atoms: C_22  and  C_25
REMARK    4  A    between atoms: C_22  and  O_36
REMARK    5  A    between atoms: C_23  and  C_29
REMARK    6  A    between atoms: C_24  and  C_29
REMARK    7  A    between atoms: C_28  and  O_36
REMARK    8  A    between atoms: C_29  and  C_30
REMARK                            x       y       z     vdW  Elec       q    Type
REMARK                         _______ _______ _______ _____ _____    ______ ____
ROOT
ATOM      1  C   UNL     1       0.357   0.206   0.000  0.00  0.00    +0.000 C 
ATOM      2  C   UNL     1      -1.072   0.206   0.000  0.00  0.00    +0.000 C 
ATOM      3  C   UNL     1       0.357   1.031   0.000  0.00  0.00    +0.000 C 
ATOM      4  C   UNL     1      -1.072   1.031   0.000  0.00  0.00    +0.000 C 
ATOM      5  C   UNL     1      -0.357   2.269   0.000  0.00  0.00    +0.000 C 
ATOM      6  N   UNL     1      -0.357  -0.206   0.000  0.00  0.00    +0.000 NA
ATOM      7  N   UNL     1      -0.357   1.444   0.000  0.00  0.00    +0.000 N 
ATOM      8  O   UNL     1       0.357   2.681   0.000  0.00  0.00    +0.000 OA
ENDROOT
BRANCH   6   9
ATOM      9  C   UNL     1      -0.357  -1.031   0.000  0.00  0.00    +0.000 C 
BRANCH   9  10
ATOM     10  C   UNL     1       0.357  -1.444   0.000  0.00  0.00    +0.000 C 
ATOM     11  O   UNL     1       1.072  -1.031   0.000  0.00  0.00    +0.000 OA
BRANCH  10  12
ATOM     12  C   UNL     1       0.357  -2.269   0.000  0.00  0.00    +0.000 C 
BRANCH  12  13
ATOM     13  O   UNL     1       1.072  -2.681   0.000  0.00  0.00    +0.000 OA
BRANCH  13  22
ATOM     14  C   UNL     1       0.357  -4.744   0.000  0.00  0.00    +0.000 A 
ATOM     15  C   UNL     1       3.215  -3.919   0.000  0.00  0.00    +0.000 A 
ATOM     16  C   UNL     1       2.501  -3.506   0.000  0.00  0.00    +0.000 A 
ATOM     17  C   UNL     1       1.072  -5.156   0.000  0.00  0.00    +0.000 A 
ATOM     18  C   UNL     1       0.357  -3.919   0.000  0.00  0.00    +0.000 A 
ATOM     19  C   UNL     1       3.215  -4.744   0.000  0.00  0.00    +0.000 A 
ATOM     20  C   UNL     1       1.786  -3.919   0.000  0.00  0.00    +0.000 A 
ATOM     21  C   UNL     1       1.786  -4.744   0.000  0.00  0.00    +0.000 A 
ATOM     22  C   UNL     1       1.072  -3.506   0.000  0.00  0.00    +0.000 A 
ATOM     23  N   UNL     1       2.501  -5.156   0.000  0.00  0.00    +0.000 NA
ENDBRANCH  13  22
ENDBRANCH  12  13
ENDBRANCH  10  12
ENDBRANCH   9  10
ENDBRANCH   6   9
BRANCH   5  24
ATOM     24  C   UNL     1      -1.072   2.681   0.000  0.00  0.00    +0.000 C 
BRANCH  24  30
ATOM     25  C   UNL     1      -1.072   5.156   0.000  0.00  0.00    +0.000 A 
ATOM     26  C   UNL     1      -1.786   4.744   0.000  0.00  0.00    +0.000 A 
ATOM     27  C   UNL     1      -0.357   4.744   0.000  0.00  0.00    +0.000 A 
ATOM     28  C   UNL     1      -1.786   3.919   0.000  0.00  0.00    +0.000 A 
ATOM     29  C   UNL     1      -0.357   3.919   0.000  0.00  0.00    +0.000 A 
ATOM     30  C   UNL     1      -1.072   3.506   0.000  0.00  0.00    +0.000 A 
ENDBRANCH  24  30
BRANCH  24  36
ATOM     31  C   UNL     1      -3.215   1.444   0.000  0.00  0.00    +0.000 A 
ATOM     32  C   UNL     1      -2.501   1.031   0.000  0.00  0.00    +0.000 A 
ATOM     33  C   UNL     1      -3.215   2.269   0.000  0.00  0.00    +0.000 A 
ATOM     34  C   UNL     1      -1.786   1.444   0.000  0.00  0.00    +0.000 A 
ATOM     35  C   UNL     1      -2.501   2.681   0.000  0.00  0.00    +0.000 A 
ATOM     36  C   UNL     1      -1.786   2.269   0.000  0.00  0.00    +0.000 A 
ENDBRANCH  24  36
ENDBRANCH   5  24
TORSDOF 8
