REMARK  Name = 
REMARK  7 active torsions:
REMARK  status: ('A' for Active; 'I' for Inactive)
REMARK    1  A    between atoms: C_2  and  S_3
REMARK    2  A    between atoms: S_3  and  C_4
REMARK    3  A    between atoms: C_11  and  C_12
REMARK    4  A    between atoms: C_11  and  C_14
REMARK    5  A    between atoms: C_14  and  C_15
REMARK    6  A    between atoms: C_17  and  S_19
REMARK    7  A    between atoms: S_19  and  C_20
REMARK                            x       y       z     vdW  Elec       q    Type
REMARK                         _______ _______ _______ _____ _____    ______ ____
ROOT
ATOM      1  N   UNL     1       1.429  -4.125   0.000  0.00  0.00    +0.000 NA
ATOM      2  C   UNL     1       2.143  -3.712   0.000  0.00  0.00    +0.000 C 
ATOM      3  C   UNL     1       2.143  -2.888   0.000  0.00  0.00    +0.000 C 
ENDROOT
BRANCH   3   4
ATOM      4  C   UNL     1       1.429  -2.475   0.000  0.00  0.00    +0.000 C 
ATOM      5  C   UNL     1       1.429  -1.650   0.000  0.00  0.00    +0.000 C 
ATOM      6  N   UNL     1       2.143  -1.238   0.000  0.00  0.00    +0.000 NA
BRANCH   4   7
ATOM      7  C   UNL     1       0.715  -2.888   0.000  0.00  0.00    +0.000 C 
ATOM      8  N   UNL     1       0.000  -3.300   0.000  0.00  0.00    +0.000 NA
ENDBRANCH   4   7
BRANCH   5   9
ATOM      9  S   UNL     1       0.715  -1.238   0.000  0.00  0.00    +0.000 S 
BRANCH   9  10
ATOM     10  C   UNL     1       0.715  -0.412   0.000  0.00  0.00    +0.000 A 
ATOM     11  C   UNL     1       0.000   0.000   0.000  0.00  0.00    +0.000 A 
ATOM     12  N   UNL     1      -0.715  -0.412   0.000  0.00  0.00    +0.000 NA
ATOM     13  C   UNL     1       0.000   0.825   0.000  0.00  0.00    +0.000 A 
ATOM     14  C   UNL     1       0.715   1.238   0.000  0.00  0.00    +0.000 A 
ATOM     15  C   UNL     1       1.429   0.825   0.000  0.00  0.00    +0.000 A 
ATOM     16  C   UNL     1       1.429   0.000   0.000  0.00  0.00    +0.000 A 
ENDBRANCH   9  10
ENDBRANCH   5   9
ENDBRANCH   3   4
BRANCH   3  17
ATOM     17  C   UNL     1       2.858  -2.475   0.000  0.00  0.00    +0.000 C 
ATOM     18  N   UNL     1       3.572  -2.062   0.000  0.00  0.00    +0.000 NA
ENDBRANCH   3  17
BRANCH   2  19
ATOM     19  S   UNL     1       2.858  -4.125   0.000  0.00  0.00    +0.000 S 
BRANCH  19  20
ATOM     20  C   UNL     1       2.858  -4.950   0.000  0.00  0.00    +0.000 A 
ATOM     21  C   UNL     1       3.572  -5.362   0.000  0.00  0.00    +0.000 A 
ATOM     22  C   UNL     1       3.572  -6.188   0.000  0.00  0.00    +0.000 A 
ATOM     23  C   UNL     1       2.858  -6.600   0.000  0.00  0.00    +0.000 A 
ATOM     24  C   UNL     1       2.143  -6.188   0.000  0.00  0.00    +0.000 A 
ATOM     25  C   UNL     1       2.143  -5.362   0.000  0.00  0.00    +0.000 A 
ATOM     26  N   UNL     1       1.429  -4.950   0.000  0.00  0.00    +0.000 NA
ENDBRANCH  19  20
ENDBRANCH   2  19
TORSDOF 7
