REMARK  Name = 
REMARK  5 active torsions:
REMARK  status: ('A' for Active; 'I' for Inactive)
REMARK    1  A    between atoms: N_2  and  C_8
REMARK    2  A    between atoms: C_8  and  C_9
REMARK    3  A    between atoms: C_9  and  C_10
REMARK    4  A    between atoms: C_10  and  C_11
REMARK    5  A    between atoms: C_10  and  C_17
REMARK                            x       y       z     vdW  Elec       q    Type
REMARK                         _______ _______ _______ _____ _____    ______ ____
ROOT
ATOM      1  C   UNL     1       0.466   0.677   0.000  0.00  0.00    +0.000 C 
ATOM      2  O   UNL     1       0.466   1.502   0.000  0.00  0.00    +0.000 OA
ENDROOT
BRANCH   1   3
ATOM      3  C   UNL     1       1.291   0.677   0.000  0.00  0.00    +0.000 A 
ATOM      4  C   UNL     1       1.703   1.391   0.000  0.00  0.00    +0.000 A 
ATOM      5  C   UNL     1       2.528   1.391   0.000  0.00  0.00    +0.000 A 
ATOM      6  C   UNL     1       2.941   0.677   0.000  0.00  0.00    +0.000 A 
ATOM      7  C   UNL     1       2.528  -0.037   0.000  0.00  0.00    +0.000 A 
ATOM      8  C   UNL     1       1.703  -0.037   0.000  0.00  0.00    +0.000 A 
ENDBRANCH   1   3
BRANCH   1   9
ATOM      9  C   UNL     1       0.466  -0.148   0.000  0.00  0.00    +0.000 A 
ATOM     10  C   UNL     1       1.133  -0.633   0.000  0.00  0.00    +0.000 A 
ATOM     11  C   UNL     1       0.878  -1.417   0.000  0.00  0.00    +0.000 A 
ATOM     12  C   UNL     1       0.053  -1.417   0.000  0.00  0.00    +0.000 A 
ATOM     13  S   UNL     1      -0.202  -0.633   0.000  0.00  0.00    +0.000 S 
ENDBRANCH   1   9
BRANCH   1  14
ATOM     14  C   UNL     1      -0.359   0.677   0.000  0.00  0.00    +0.000 C 
BRANCH  14  15
ATOM     15  C   UNL     1      -0.772  -0.037   0.000  0.00  0.00    +0.000 C 
BRANCH  15  17
ATOM     16  C   UNL     1      -1.453   0.775   0.000  0.00  0.00    +0.000 C 
ATOM     17  N   UNL     1      -1.597  -0.037   0.000  0.00  0.00    +0.000 N 
ATOM     18  C   UNL     1      -1.453  -0.850   0.000  0.00  0.00    +0.000 C 
ATOM     19  C   UNL     1      -2.085  -1.380   0.000  0.00  0.00    +0.000 C 
ATOM     20  O   UNL     1      -2.861  -1.098   0.000  0.00  0.00    +0.000 OA
ATOM     21  C   UNL     1      -3.004  -0.286   0.000  0.00  0.00    +0.000 C 
ATOM     22  C   UNL     1      -2.372   0.245   0.000  0.00  0.00    +0.000 C 
ENDBRANCH  15  17
ENDBRANCH  14  15
ENDBRANCH   1  14
TORSDOF 5
REMARK  Name = 
REMARK  5 active torsions:
REMARK  status: ('A' for Active; 'I' for Inactive)
REMARK    1  A    between atoms: N_2  and  C_8
REMARK    2  A    between atoms: C_8  and  C_9
REMARK    3  A    between atoms: C_9  and  C_10
REMARK    4  A    between atoms: C_10  and  C_11
REMARK    5  A    between atoms: C_10  and  C_17
REMARK                            x       y       z     vdW  Elec       q    Type
REMARK                         _______ _______ _______ _____ _____    ______ ____
ROOT
ATOM      1  I   UNL     1       5.180   0.000   0.000  0.00  0.00    +0.000 I 
ENDROOT
TORSDOF 0
