REMARK  Name = 
REMARK  9 active torsions:
REMARK  status: ('A' for Active; 'I' for Inactive)
REMARK    1  A    between atoms: C_2  and  N_8
REMARK    2  A    between atoms: C_4  and  O_13
REMARK    3  A    between atoms: O_13  and  C_14
REMARK    4  A    between atoms: N_19  and  C_20
REMARK    5  A    between atoms: C_20  and  C_21
REMARK    6  A    between atoms: C_24  and  O_30
REMARK    7  A    between atoms: C_28  and  C_51
REMARK    8  A    between atoms: O_30  and  C_34
REMARK    9  A    between atoms: C_36  and  O_44
REMARK                            x       y       z     vdW  Elec       q    Type
REMARK                         _______ _______ _______ _____ _____    ______ ____
ROOT
ATOM      1  C   UNL     1      -0.051   0.359   0.000  0.00  0.00    +0.000 C 
ATOM      2  C   UNL     1       0.035  -0.461   0.000  0.00  0.00    +0.000 C 
ATOM      3  C   UNL     1       0.616   0.844   0.000  0.00  0.00    +0.000 C 
ATOM      4  C   UNL     1       1.370   0.508   0.000  0.00  0.00    +0.000 C 
ATOM      5  C   UNL     1       2.037   0.993   0.000  0.00  0.00    +0.000 C 
ATOM      6  N   UNL     1       2.791   0.658   0.000  0.00  0.00    +0.000 NA
ATOM      7  C   UNL     1       2.651  -0.475   0.000  0.00  0.00    +0.000 C 
ATOM      8  C   UNL     1      -0.548  -1.045   0.000  0.00  0.00    +0.000 C 
ATOM      9  C   UNL     1      -0.266  -1.893   0.000  0.00  0.00    +0.000 C 
ATOM     10  C   UNL     1       0.485  -2.065   0.000  0.00  0.00    +0.000 C 
ATOM     11  O   UNL     1       0.823  -2.877   0.000  0.00  0.00    +0.000 OA
ATOM     12  C   UNL     1       1.770  -2.909   0.000  0.00  0.00    +0.000 C 
ATOM     13  C   UNL     1       0.813  -0.737   0.000  0.00  0.00    +0.000 C 
ATOM     14  C   UNL     1       0.788   1.651   0.000  0.00  0.00    +0.000 C 
ATOM     15  C   UNL     1       1.951   1.814   0.000  0.00  0.00    +0.000 C 
ATOM     16  O   UNL     1       0.131   1.512   0.000  0.00  0.00    +0.000 OA
ATOM     17  C   UNL     1      -0.911  -2.514   0.000  0.00  0.00    +0.000 C 
ATOM     18  O   UNL     1       0.897  -1.423   0.000  0.00  0.00    +0.000 OA
ATOM     19  C   UNL     1       2.143  -2.213   0.000  0.00  0.00    +0.000 C 
ATOM     20  C   UNL     1       3.020  -1.992   0.000  0.00  0.00    +0.000 C 
ATOM     21  C   UNL     1       3.253  -1.129   0.000  0.00  0.00    +0.000 C 
ATOM     22  O   UNL     1       1.446  -1.661   0.000  0.00  0.00    +0.000 OA
ATOM     23  C   UNL     1       2.019  -1.446   0.000  0.00  0.00    +0.000 C 
ATOM     24  C   UNL     1       4.078  -1.017   0.000  0.00  0.00    +0.000 C 
ATOM     25  O   UNL     1       3.572  -2.605   0.000  0.00  0.00    +0.000 OA
ENDROOT
BRANCH  12  26
ATOM     26  C   UNL     1       1.847  -3.735   0.000  0.00  0.00    +0.000 C 
ATOM     27  C   UNL     1       2.632  -3.990   0.000  0.00  0.00    +0.000 C 
ENDBRANCH  12  26
BRANCH   6  28
ATOM     28  C   UNL     1       3.458   1.143   0.000  0.00  0.00    +0.000 C 
BRANCH  28  29
ATOM     29  C   UNL     1       4.212   0.807   0.000  0.00  0.00    +0.000 C 
ATOM     30  C   UNL     1       4.880   1.292   0.000  0.00  0.00    +0.000 C 
ENDBRANCH  28  29
ENDBRANCH   6  28
BRANCH   8  31
ATOM     31  O   UNL     1      -1.326  -0.769   0.000  0.00  0.00    +0.000 OA
BRANCH  31  32
ATOM     32  C   UNL     1      -1.953  -1.305   0.000  0.00  0.00    +0.000 C 
ATOM     33  C   UNL     1      -2.645  -0.856   0.000  0.00  0.00    +0.000 C 
ATOM     34  C   UNL     1      -3.380  -1.230   0.000  0.00  0.00    +0.000 C 
ATOM     35  C   UNL     1      -3.424  -2.054   0.000  0.00  0.00    +0.000 C 
ATOM     36  C   UNL     1      -2.732  -2.503   0.000  0.00  0.00    +0.000 C 
ATOM     37  O   UNL     1      -1.996  -2.129   0.000  0.00  0.00    +0.000 OA
ATOM     38  C   UNL     1      -3.993  -0.678   0.000  0.00  0.00    +0.000 C 
ATOM     39  C   UNL     1      -2.732  -3.329   0.000  0.00  0.00    +0.000 C 
ATOM     40  O   UNL     1      -4.037  -2.606   0.000  0.00  0.00    +0.000 OA
BRANCH  34  41
ATOM     41  O   UNL     1      -4.165  -1.485   0.000  0.00  0.00    +0.000 OA
ATOM     42  C   UNL     1      -4.879  -1.073   0.000  0.00  0.00    +0.000 C 
ENDBRANCH  34  41
ENDBRANCH  31  32
ENDBRANCH   8  31
BRANCH   1  43
ATOM     43  O   UNL     1      -0.805   0.695   0.000  0.00  0.00    +0.000 OA
BRANCH  43  47
ATOM     44  C   UNL     1      -0.891   3.165   0.000  0.00  0.00    +0.000 C 
ATOM     45  C   UNL     1      -1.606   2.753   0.000  0.00  0.00    +0.000 C 
ATOM     46  C   UNL     1      -1.606   1.928   0.000  0.00  0.00    +0.000 C 
ATOM     47  C   UNL     1      -0.891   1.515   0.000  0.00  0.00    +0.000 C 
ATOM     48  O   UNL     1      -0.177   1.928   0.000  0.00  0.00    +0.000 OA
ATOM     49  C   UNL     1      -0.177   2.753   0.000  0.00  0.00    +0.000 C 
ATOM     50  C   UNL     1       0.538   3.165   0.000  0.00  0.00    +0.000 C 
ATOM     51  O   UNL     1      -2.320   1.515   0.000  0.00  0.00    +0.000 OA
BRANCH  45  52
ATOM     52  N   UNL     1      -2.320   3.165   0.000  0.00  0.00    +0.000 NA
ATOM     53  C   UNL     1      -3.034   2.753   0.000  0.00  0.00    +0.000 C 
ATOM     54  C   UNL     1      -2.320   3.990   0.000  0.00  0.00    +0.000 C 
ENDBRANCH  45  52
ENDBRANCH  43  47
ENDBRANCH   1  43
TORSDOF 9
