REMARK  Name = 
REMARK  4 active torsions:
REMARK  status: ('A' for Active; 'I' for Inactive)
REMARK    1  A    between atoms: N_5  and  C_7
REMARK    2  A    between atoms: C_6  and  C_7
REMARK    3  A    between atoms: C_12  and  C_21
REMARK    4  A    between atoms: C_21  and  C_23
REMARK                            x       y       z     vdW  Elec       q    Type
REMARK                         _______ _______ _______ _____ _____    ______ ____
ROOT
ATOM      1  O   UNL     1       0.279  -2.619   0.000  0.00  0.00    +0.000 OA
ATOM      2  N   UNL     1       0.279  -0.970   0.000  0.00  0.00    +0.000 N 
ATOM      3  C   UNL     1       0.993  -1.382   0.000  0.00  0.00    +0.000 C 
ATOM      4  C   UNL     1      -0.436  -1.382   0.000  0.00  0.00    +0.000 A 
ATOM      5  C   UNL     1       0.993  -2.207   0.000  0.00  0.00    +0.000 C 
ATOM      6  C   UNL     1      -0.022  -0.207   0.000  0.00  0.00    +0.000 A 
ATOM      7  C   UNL     1      -1.173  -0.941   0.000  0.00  0.00    +0.000 A 
ATOM      8  C   UNL     1      -0.842  -0.191   0.000  0.00  0.00    +0.000 A 
ATOM      9  C   UNL     1      -0.436  -2.207   0.000  0.00  0.00    +0.000 A 
ATOM     10  C   UNL     1       0.448   0.470   0.000  0.00  0.00    +0.000 C 
ATOM     11  C   UNL     1      -1.921  -1.365   0.000  0.00  0.00    +0.000 A 
ATOM     12  C   UNL     1      -1.173  -2.648   0.000  0.00  0.00    +0.000 A 
ATOM     13  C   UNL     1      -1.921  -2.224   0.000  0.00  0.00    +0.000 A 
ENDROOT
BRANCH   8  15
ATOM     14  O   UNL     1      -0.905   1.236   0.000  0.00  0.00    +0.000 OA
ATOM     15  C   UNL     1      -1.286   0.505   0.000  0.00  0.00    +0.000 C 
BRANCH  15  16
ATOM     16  C   UNL     1      -2.110   0.468   0.000  0.00  0.00    +0.000 A 
ATOM     17  C   UNL     1      -2.554   1.164   0.000  0.00  0.00    +0.000 A 
ATOM     18  C   UNL     1      -2.490  -0.264   0.000  0.00  0.00    +0.000 A 
ATOM     19  C   UNL     1      -3.378   1.127   0.000  0.00  0.00    +0.000 A 
ATOM     20  C   UNL     1      -2.145   1.920   0.000  0.00  0.00    +0.000 A 
ATOM     21  C   UNL     1      -3.314  -0.300   0.000  0.00  0.00    +0.000 A 
ATOM     22  C   UNL     1      -3.758   0.395   0.000  0.00  0.00    +0.000 A 
ATOM     23  C   UNL     1      -3.851   1.845   0.000  0.00  0.00    +0.000 A 
ATOM     24  C   UNL     1      -2.602   2.648   0.000  0.00  0.00    +0.000 A 
ATOM     25  C   UNL     1      -3.460   2.610   0.000  0.00  0.00    +0.000 A 
ENDBRANCH  15  16
ENDBRANCH   8  15
BRANCH   3  26
ATOM     26  C   UNL     1       1.708  -0.970   0.000  0.00  0.00    +0.000 C 
BRANCH  26  28
ATOM     27  O   UNL     1       3.851  -2.207   0.000  0.00  0.00    +0.000 OA
ATOM     28  N   UNL     1       2.422  -1.382   0.000  0.00  0.00    +0.000 NA
ATOM     29  C   UNL     1       3.136  -0.970   0.000  0.00  0.00    +0.000 C 
ATOM     30  C   UNL     1       2.422  -2.207   0.000  0.00  0.00    +0.000 C 
ATOM     31  C   UNL     1       3.851  -1.382   0.000  0.00  0.00    +0.000 C 
ATOM     32  C   UNL     1       3.136  -2.619   0.000  0.00  0.00    +0.000 C 
ENDBRANCH  26  28
ENDBRANCH   3  26
TORSDOF 4
