REMARK  Name = 
REMARK  2 active torsions:
REMARK  status: ('A' for Active; 'I' for Inactive)
REMARK    1  A    between atoms: C_2  and  C_10
REMARK    2  A    between atoms: C_5  and  N_7
REMARK                            x       y       z     vdW  Elec       q    Type
REMARK                         _______ _______ _______ _____ _____    ______ ____
ROOT
ATOM      1  C   UNL     1      -0.156   0.305   0.000  0.00  0.00    +0.000 A 
ATOM      2  S   UNL     1      -0.633  -0.353   0.000  0.00  0.00    +0.000 S 
ATOM      3  C   UNL     1      -1.407  -0.101   0.000  0.00  0.00    +0.000 A 
ATOM      4  C   UNL     1      -1.407   0.711   0.000  0.00  0.00    +0.000 A 
ATOM      5  N   UNL     1      -0.633   0.963   0.000  0.00  0.00    +0.000 NA
ATOM      6  C   UNL     1      -2.121  -0.514   0.000  0.00  0.00    +0.000 A 
ATOM      7  C   UNL     1      -2.835  -0.102   0.000  0.00  0.00    +0.000 A 
ATOM      8  C   UNL     1      -2.836   0.711   0.000  0.00  0.00    +0.000 A 
ATOM      9  C   UNL     1      -2.121   1.124   0.000  0.00  0.00    +0.000 A 
ATOM     10  O   UNL     1      -3.567  -0.524   0.000  0.00  0.00    +0.000 OA
ENDROOT
BRANCH   1  12
ATOM     11  C   UNL     1       1.082  -0.409   0.000  0.00  0.00    +0.000 A 
ATOM     12  C   UNL     1       0.669   0.305   0.000  0.00  0.00    +0.000 A 
ATOM     13  C   UNL     1       1.082   1.020   0.000  0.00  0.00    +0.000 A 
ATOM     14  C   UNL     1       1.907   1.020   0.000  0.00  0.00    +0.000 A 
ATOM     15  C   UNL     1       2.319   0.305   0.000  0.00  0.00    +0.000 A 
ATOM     16  C   UNL     1       1.907  -0.409   0.000  0.00  0.00    +0.000 A 
ATOM     17  F   UNL     1       2.319  -1.124   0.000  0.00  0.00    +0.000 F 
BRANCH  15  18
ATOM     18  N   UNL     1       3.157   0.305   0.000  0.00  0.00    +0.000 NA
ATOM     19  C   UNL     1       3.567   1.015   0.000  0.00  0.00    +0.000 C 
ENDBRANCH  15  18
ENDBRANCH   1  12
TORSDOF 2
