REMARK  Name = 
REMARK  9 active torsions:
REMARK  status: ('A' for Active; 'I' for Inactive)
REMARK    1  A    between atoms: P_1  and  O_7
REMARK    2  A    between atoms: P_1  and  O_12
REMARK    3  A    between atoms: P_2  and  O_10
REMARK    4  A    between atoms: P_2  and  O_12
REMARK    5  A    between atoms: O_7  and  C_30
REMARK    6  A    between atoms: O_10  and  C_31
REMARK    7  A    between atoms: N_20  and  C_25
REMARK    8  A    between atoms: C_24  and  C_31
REMARK    9  A    between atoms: C_29  and  C_32
REMARK                            x       y       z     vdW  Elec       q    Type
REMARK                         _______ _______ _______ _____ _____    ______ ____
ROOT
ATOM      1  P   UNL     1      -0.375  -0.559   0.000  0.00  0.00    +0.000 P 
ATOM      2  O   UNL     1      -0.787   0.155   0.000  0.00  0.00    +0.000 OA
ATOM      3  O   UNL     1       0.037  -1.274   0.000  0.00  0.00    +0.000 OA
ENDROOT
BRANCH   1   4
ATOM      4  O   UNL     1      -1.089  -0.972   0.000  0.00  0.00    +0.000 OA
BRANCH   4   5
ATOM      5  P   UNL     1      -1.089  -1.797   0.000  0.00  0.00    +0.000 P 
ATOM      6  O   UNL     1      -0.265  -1.797   0.000  0.00  0.00    +0.000 OA
ATOM      7  O   UNL     1      -1.915  -1.797   0.000  0.00  0.00    +0.000 OA
BRANCH   5   8
ATOM      8  O   UNL     1      -1.089  -2.622   0.000  0.00  0.00    +0.000 OA
BRANCH   8  17
ATOM      9  O   UNL     1      -2.518  -2.622   0.000  0.00  0.00    +0.000 OA
ATOM     10  O   UNL     1      -2.518  -5.097   0.000  0.00  0.00    +0.000 OA
ATOM     11  O   UNL     1      -3.947  -4.272   0.000  0.00  0.00    +0.000 OA
ATOM     12  O   UNL     1      -1.089  -4.272   0.000  0.00  0.00    +0.000 OA
ATOM     13  C   UNL     1      -2.518  -4.272   0.000  0.00  0.00    +0.000 C 
ATOM     14  C   UNL     1      -3.233  -3.860   0.000  0.00  0.00    +0.000 C 
ATOM     15  C   UNL     1      -1.804  -3.860   0.000  0.00  0.00    +0.000 C 
ATOM     16  C   UNL     1      -3.233  -3.034   0.000  0.00  0.00    +0.000 C 
ATOM     17  C   UNL     1      -1.804  -3.034   0.000  0.00  0.00    +0.000 C 
BRANCH  16  19
ATOM     18  O   UNL     1      -3.947  -1.797   0.000  0.00  0.00    +0.000 OA
ATOM     19  C   UNL     1      -3.947  -2.622   0.000  0.00  0.00    +0.000 C 
ENDBRANCH  16  19
ENDBRANCH   8  17
ENDBRANCH   5   8
ENDBRANCH   4   5
ENDBRANCH   1   4
BRANCH   1  20
ATOM     20  O   UNL     1       0.339  -0.147   0.000  0.00  0.00    +0.000 OA
BRANCH  20  21
ATOM     21  C   UNL     1       0.339   0.678   0.000  0.00  0.00    +0.000 C 
BRANCH  21  27
ATOM     22  O   UNL     1       1.140   1.911   0.000  0.00  0.00    +0.000 OA
ATOM     23  O   UNL     1       1.979  -0.052   0.000  0.00  0.00    +0.000 OA
ATOM     24  O   UNL     1       3.180   1.282   0.000  0.00  0.00    +0.000 OA
ATOM     25  C   UNL     1       1.808   0.755   0.000  0.00  0.00    +0.000 C 
ATOM     26  C   UNL     1       2.360   1.368   0.000  0.00  0.00    +0.000 C 
ATOM     27  C   UNL     1       1.054   1.090   0.000  0.00  0.00    +0.000 C 
ATOM     28  C   UNL     1       1.947   2.082   0.000  0.00  0.00    +0.000 C 
BRANCH  28  31
ATOM     29  O   UNL     1       3.588   2.255   0.000  0.00  0.00    +0.000 OA
ATOM     30  O   UNL     1       3.289   5.097   0.000  0.00  0.00    +0.000 OA
ATOM     31  N   UNL     1       2.283   2.836   0.000  0.00  0.00    +0.000 N 
ATOM     32  N   UNL     1       3.439   3.676   0.000  0.00  0.00    +0.000 N 
ATOM     33  C   UNL     1       3.103   2.922   0.000  0.00  0.00    +0.000 A 
ATOM     34  C   UNL     1       1.798   3.503   0.000  0.00  0.00    +0.000 A 
ATOM     35  C   UNL     1       2.133   4.257   0.000  0.00  0.00    +0.000 A 
ATOM     36  C   UNL     1       2.954   4.343   0.000  0.00  0.00    +0.000 A 
ATOM     37  H   UNL     1       3.947   3.729   0.000  0.00  0.00    +0.000 HD
ENDBRANCH  28  31
ENDBRANCH  21  27
ENDBRANCH  20  21
ENDBRANCH   1  20
TORSDOF 9
