REMARK  Name = 
REMARK  8 active torsions:
REMARK  status: ('A' for Active; 'I' for Inactive)
REMARK    1  A    between atoms: C_10  and  C_15
REMARK    2  A    between atoms: C_15  and  C_30
REMARK    3  A    between atoms: C_19  and  C_26
REMARK    4  A    between atoms: C_21  and  C_37
REMARK    5  A    between atoms: C_26  and  C_36
REMARK    6  A    between atoms: C_30  and  C_39
REMARK    7  A    between atoms: C_33  and  C_40
REMARK    8  A    between atoms: C_36  and  C_41
REMARK                            x       y       z     vdW  Elec       q    Type
REMARK                         _______ _______ _______ _____ _____    ______ ____
ROOT
ATOM      1 ZN   UNL     1      -0.748  -0.757   0.000  0.00  0.00    +0.000 Zn
ENDROOT
TORSDOF 0
REMARK  Name = 
REMARK  8 active torsions:
REMARK  status: ('A' for Active; 'I' for Inactive)
REMARK    1  A    between atoms: C_10  and  C_15
REMARK    2  A    between atoms: C_15  and  C_30
REMARK    3  A    between atoms: C_19  and  C_26
REMARK    4  A    between atoms: C_21  and  C_37
REMARK    5  A    between atoms: C_26  and  C_36
REMARK    6  A    between atoms: C_30  and  C_39
REMARK    7  A    between atoms: C_33  and  C_40
REMARK    8  A    between atoms: C_36  and  C_41
REMARK                            x       y       z     vdW  Elec       q    Type
REMARK                         _______ _______ _______ _____ _____    ______ ____
ROOT
ATOM      1  N   UNL     1      -0.744   0.380   0.000  0.00  0.00    +0.000 NA
ATOM      2  N   UNL     1      -0.716  -1.849   0.000  0.00  0.00    +0.000 NA
ATOM      3  N   UNL     1       0.506  -0.734   0.000  0.00  0.00    +0.000 NA
ATOM      4  N   UNL     1      -1.940  -0.734   0.000  0.00  0.00    +0.000 NA
ATOM      5  C   UNL     1      -0.336   1.684   0.000  0.00  0.00    +0.000 A 
ATOM      6  C   UNL     1      -0.064   0.924   0.000  0.00  0.00    +0.000 A 
ATOM      7  C   UNL     1      -1.396   0.897   0.000  0.00  0.00    +0.000 A 
ATOM      8  C   UNL     1      -1.151   1.684   0.000  0.00  0.00    +0.000 A 
ATOM      9  C   UNL     1      -0.064  -2.338   0.000  0.00  0.00    +0.000 A 
ATOM     10  C   UNL     1      -1.369  -2.366   0.000  0.00  0.00    +0.000 A 
ATOM     11  C   UNL     1       0.724   0.679   0.000  0.00  0.00    +0.000 C 
ATOM     12  C   UNL     1       0.968  -0.082   0.000  0.00  0.00    +0.000 C 
ATOM     13  C   UNL     1       1.757  -0.300   0.000  0.00  0.00    +0.000 C 
ATOM     14  C   UNL     1      -1.124  -3.126   0.000  0.00  0.00    +0.000 A 
ATOM     15  C   UNL     1      -0.309  -3.126   0.000  0.00  0.00    +0.000 A 
ATOM     16  C   UNL     1       1.757  -1.115   0.000  0.00  0.00    +0.000 C 
ATOM     17  C   UNL     1       0.995  -1.333   0.000  0.00  0.00    +0.000 C 
ATOM     18  C   UNL     1      -2.184   0.679   0.000  0.00  0.00    +0.000 C 
ATOM     19  C   UNL     1       0.751  -2.120   0.000  0.00  0.00    +0.000 C 
ATOM     20  C   UNL     1      -2.402  -0.109   0.000  0.00  0.00    +0.000 C 
ATOM     21  C   UNL     1      -1.645   2.356   0.000  0.00  0.00    +0.000 C 
ATOM     22  C   UNL     1      -2.157  -2.120   0.000  0.00  0.00    +0.000 C 
ATOM     23  C   UNL     1      -2.402  -1.360   0.000  0.00  0.00    +0.000 C 
ATOM     24  C   UNL     1      -3.190  -0.327   0.000  0.00  0.00    +0.000 C 
ATOM     25  C   UNL     1      -3.190  -1.142   0.000  0.00  0.00    +0.000 C 
ATOM     26  C   UNL     1      -1.615  -3.800   0.000  0.00  0.00    +0.000 C 
ATOM     27  C   UNL     1       2.423  -1.617   0.000  0.00  0.00    +0.000 C 
ATOM     28  C   UNL     1      -3.853   0.178   0.000  0.00  0.00    +0.000 C 
ENDROOT
BRANCH  25  29
ATOM     29  C   UNL     1      -3.853  -1.647   0.000  0.00  0.00    +0.000 C 
ATOM     30  C   UNL     1      -4.623  -1.325   0.000  0.00  0.00    +0.000 C 
ENDBRANCH  25  29
BRANCH  15  31
ATOM     31  C   UNL     1       0.185  -3.798   0.000  0.00  0.00    +0.000 C 
ATOM     32  C   UNL     1      -0.149  -4.562   0.000  0.00  0.00    +0.000 C 
ENDBRANCH  15  31
BRANCH   5  33
ATOM     33  C   UNL     1       0.144   2.366   0.000  0.00  0.00    +0.000 C 
BRANCH  33  34
ATOM     34  C   UNL     1      -0.207   3.123   0.000  0.00  0.00    +0.000 C 
BRANCH  34  37
ATOM     35  O   UNL     1      -0.077   4.562   0.000  0.00  0.00    +0.000 OA
ATOM     36  O   UNL     1       1.104   3.730   0.000  0.00  0.00    +0.000 OA
ATOM     37  C   UNL     1       0.273   3.805   0.000  0.00  0.00    +0.000 C 
ENDBRANCH  34  37
ENDBRANCH  33  34
ENDBRANCH   5  33
BRANCH  13  38
ATOM     38  C   UNL     1       2.421   0.205   0.000  0.00  0.00    +0.000 C 
BRANCH  38  39
ATOM     39  C   UNL     1       3.190  -0.117   0.000  0.00  0.00    +0.000 C 
BRANCH  39  42
ATOM     40  O   UNL     1       4.623   0.066   0.000  0.00  0.00    +0.000 OA
ATOM     41  O   UNL     1       3.748   1.215   0.000  0.00  0.00    +0.000 OA
ATOM     42  C   UNL     1       3.853   0.388   0.000  0.00  0.00    +0.000 C 
ENDBRANCH  39  42
ENDBRANCH  38  39
ENDBRANCH  13  38
TORSDOF 8
