REMARK  Name = 
REMARK  2 active torsions:
REMARK  status: ('A' for Active; 'I' for Inactive)
REMARK    1  A    between atoms: C_1  and  P_2
REMARK    2  A    between atoms: C_1  and  P_5
REMARK                            x       y       z     vdW  Elec       q    Type
REMARK                         _______ _______ _______ _____ _____    ______ ____
ROOT
ATOM      1  C   UNL     1      12.622  -5.253   0.000  0.00  0.00    +0.000 C 
ATOM      2  C   UNL     1      12.210  -5.967   0.000  0.00  0.00    +0.000 C 
ATOM      3  O   UNL     1      13.034  -5.967   0.000  0.00  0.00    +0.000 OA
ENDROOT
BRANCH   1   4
ATOM      4  P   UNL     1      13.337  -4.840   0.000  0.00  0.00    +0.000 P 
ATOM      5  O   UNL     1      14.051  -5.253   0.000  0.00  0.00    +0.000 OA
ATOM      6  O   UNL     1      13.337  -4.015   0.000  0.00  0.00    +0.000 OA
ATOM      7  O   UNL     1      14.051  -4.428   0.000  0.00  0.00    +0.000 OA
ENDBRANCH   1   4
BRANCH   1   8
ATOM      8  P   UNL     1      11.908  -4.840   0.000  0.00  0.00    +0.000 P 
ATOM      9  O   UNL     1      11.193  -5.253   0.000  0.00  0.00    +0.000 OA
ATOM     10  O   UNL     1      11.908  -4.015   0.000  0.00  0.00    +0.000 OA
ATOM     11  O   UNL     1      11.193  -4.428   0.000  0.00  0.00    +0.000 OA
ENDBRANCH   1   8
TORSDOF 2
