REMARK  Name = 
REMARK  5 active torsions:
REMARK  status: ('A' for Active; 'I' for Inactive)
REMARK    1  A    between atoms: C_1  and  S_2
REMARK    2  A    between atoms: S_2  and  N_5
REMARK    3  A    between atoms: N_12  and  C_15
REMARK    4  A    between atoms: C_15  and  C_16
REMARK    5  A    between atoms: C_16  and  C_17
REMARK                            x       y       z     vdW  Elec       q    Type
REMARK                         _______ _______ _______ _____ _____    ______ ____
ROOT
ATOM      1  S   UNL     1      -0.619  -0.659   0.000  0.00  0.00    +0.000 S 
ATOM      2  O   UNL     1      -0.619   0.166   0.000  0.00  0.00    +0.000 OA
ATOM      3  O   UNL     1      -0.619  -1.484   0.000  0.00  0.00    +0.000 OA
ENDROOT
BRANCH   1   4
ATOM      4  C   UNL     1      -1.444  -0.659   0.000  0.00  0.00    +0.000 A 
ATOM      5  C   UNL     1      -1.856   0.055   0.000  0.00  0.00    +0.000 A 
ATOM      6  C   UNL     1      -1.856  -1.374   0.000  0.00  0.00    +0.000 A 
ATOM      7  C   UNL     1      -2.681   0.055   0.000  0.00  0.00    +0.000 A 
ATOM      8  C   UNL     1      -2.681  -1.374   0.000  0.00  0.00    +0.000 A 
ATOM      9  C   UNL     1      -3.094  -0.659   0.000  0.00  0.00    +0.000 A 
ATOM     10  N   UNL     1      -3.919  -0.659   0.000  0.00  0.00    +0.000 NA
ENDBRANCH   1   4
BRANCH   1  11
ATOM     11  N   UNL     1       0.206  -0.659   0.000  0.00  0.00    +0.000 NA
ATOM     12  C   UNL     1       0.619   0.055   0.000  0.00  0.00    +0.000 C 
ATOM     13  N   UNL     1       1.444   0.055   0.000  0.00  0.00    +0.000 NA
ATOM     14  O   UNL     1       0.206   0.769   0.000  0.00  0.00    +0.000 OA
BRANCH  13  15
ATOM     15  C   UNL     1       1.856   0.769   0.000  0.00  0.00    +0.000 C 
BRANCH  15  16
ATOM     16  C   UNL     1       2.681   0.769   0.000  0.00  0.00    +0.000 C 
BRANCH  16  17
ATOM     17  C   UNL     1       3.094   1.484   0.000  0.00  0.00    +0.000 C 
ATOM     18  C   UNL     1       3.919   1.484   0.000  0.00  0.00    +0.000 C 
ENDBRANCH  16  17
ENDBRANCH  15  16
ENDBRANCH  13  15
ENDBRANCH   1  11
TORSDOF 5
