REMARK  Name = 
REMARK  12 active torsions:
REMARK  status: ('A' for Active; 'I' for Inactive)
REMARK    1  A    between atoms: C_2  and  C_3
REMARK    2  A    between atoms: C_2  and  C_15
REMARK    3  A    between atoms: C_3  and  SE_4
REMARK    4  A    between atoms: SE_4  and  C_5
REMARK    5  A    between atoms: C_5  and  C_6
REMARK    6  A    between atoms: N_8  and  C_9
REMARK    7  A    between atoms: C_9  and  C_10
REMARK    8  A    between atoms: C_10  and  S_11
REMARK    9  A    between atoms: S_11  and  O_12
REMARK   10  A    between atoms: C_23  and  O_24
REMARK   11  A    between atoms: C_29  and  O_30
REMARK   12  A    between atoms: C_38  and  O_39
REMARK                            x       y       z     vdW  Elec       q    Type
REMARK                         _______ _______ _______ _____ _____    ______ ____
ROOT
ATOM      1  C   UNL     1       0.189  -1.114   0.000  0.00  0.00    +0.000 C 
ATOM      2  C   UNL     1       0.670  -1.778   0.000  0.00  0.00    +0.000 C 
ATOM      3  C   UNL     1       0.189  -2.441   0.000  0.00  0.00    +0.000 C 
ATOM      4  C   UNL     1      -0.592  -2.190   0.000  0.00  0.00    +0.000 C 
ATOM      5  C   UNL     1      -1.306  -2.603   0.000  0.00  0.00    +0.000 C 
ATOM      6  C   UNL     1      -1.293  -3.462   0.000  0.00  0.00    +0.000 C 
ATOM      7  C   UNL     1      -2.034  -3.897   0.000  0.00  0.00    +0.000 C 
ATOM      8  C   UNL     1      -2.778  -3.467   0.000  0.00  0.00    +0.000 C 
ATOM      9  C   UNL     1      -3.550  -3.921   0.000  0.00  0.00    +0.000 C 
ATOM     10  C   UNL     1      -4.325  -3.474   0.000  0.00  0.00    +0.000 C 
ATOM     11  C   UNL     1      -4.319  -2.578   0.000  0.00  0.00    +0.000 C 
ATOM     12  C   UNL     1      -3.537  -2.143   0.000  0.00  0.00    +0.000 C 
ATOM     13  C   UNL     1      -2.772  -2.608   0.000  0.00  0.00    +0.000 C 
ATOM     14  C   UNL     1      -2.765  -1.783   0.000  0.00  0.00    +0.000 C 
ATOM     15  C   UNL     1      -2.021  -2.190   0.000  0.00  0.00    +0.000 C 
ATOM     16  C   UNL     1      -2.021  -1.365   0.000  0.00  0.00    +0.000 C 
ATOM     17  C   UNL     1      -1.306  -0.953   0.000  0.00  0.00    +0.000 C 
ATOM     18  C   UNL     1      -0.592  -1.365   0.000  0.00  0.00    +0.000 C 
ATOM     19  C   UNL     1      -0.592  -0.540   0.000  0.00  0.00    +0.000 C 
ENDROOT
BRANCH  17  20
ATOM     20  O   UNL     1      -1.306  -0.128   0.000  0.00  0.00    +0.000 OA
ATOM     21  H   UNL     1      -1.750   0.128   0.000  0.00  0.00    +0.000 HD
ENDBRANCH  17  20
BRANCH  10  22
ATOM     22  O   UNL     1      -5.042  -3.883   0.000  0.00  0.00    +0.000 OA
ATOM     23  H   UNL     1      -5.483  -3.626   0.000  0.00  0.00    +0.000 HD
ENDBRANCH  10  22
BRANCH   6  24
ATOM     24  O   UNL     1      -0.574  -3.866   0.000  0.00  0.00    +0.000 OA
ATOM     25  H   UNL     1      -0.568  -4.378   0.000  0.00  0.00    +0.000 HD
ENDBRANCH   6  24
BRANCH   1  27
ATOM     26  C   UNL     1      -0.106   0.285   0.000  0.00  0.00    +0.000 C 
ATOM     27  C   UNL     1       0.445  -0.329   0.000  0.00  0.00    +0.000 C 
BRANCH  27  28
ATOM     28  C   UNL     1       1.252  -0.159   0.000  0.00  0.00    +0.000 C 
BRANCH  28  29
ATOM     29 SE   UNL     1       1.508   0.625   0.000  0.00  0.00    +0.000 Se
BRANCH  29  30
ATOM     30  C   UNL     1       2.316   0.795   0.000  0.00  0.00    +0.000 C 
BRANCH  30  31
ATOM     31  C   UNL     1       2.572   1.579   0.000  0.00  0.00    +0.000 C 
ATOM     32  O   UNL     1       2.021   2.193   0.000  0.00  0.00    +0.000 OA
ATOM     33  N   UNL     1       3.379   1.749   0.000  0.00  0.00    +0.000 N 
ATOM     34  H   UNL     1       3.721   1.369   0.000  0.00  0.00    +0.000 HD
BRANCH  33  35
ATOM     35  C   UNL     1       3.636   2.534   0.000  0.00  0.00    +0.000 C 
BRANCH  35  36
ATOM     36  C   UNL     1       4.443   2.704   0.000  0.00  0.00    +0.000 C 
BRANCH  36  37
ATOM     37  S   UNL     1       4.699   3.488   0.000  0.00  0.00    +0.000 S 
ATOM     38  O   UNL     1       5.483   3.232   0.000  0.00  0.00    +0.000 OA
ATOM     39  O   UNL     1       3.915   3.744   0.000  0.00  0.00    +0.000 OA
BRANCH  37  40
ATOM     40  O   UNL     1       4.955   4.272   0.000  0.00  0.00    +0.000 OA
ATOM     41  H   UNL     1       5.456   4.378   0.000  0.00  0.00    +0.000 HD
ENDBRANCH  37  40
ENDBRANCH  36  37
ENDBRANCH  35  36
ENDBRANCH  33  35
ENDBRANCH  30  31
ENDBRANCH  29  30
ENDBRANCH  28  29
ENDBRANCH  27  28
ENDBRANCH   1  27
TORSDOF 12
