REMARK  Name = 
REMARK  5 active torsions:
REMARK  status: ('A' for Active; 'I' for Inactive)
REMARK    1  A    between atoms: N_2  and  C_3
REMARK    2  A    between atoms: N_20  and  C_21
REMARK    3  A    between atoms: C_21  and  C_22
REMARK    4  A    between atoms: C_27  and  C_29
REMARK    5  A    between atoms: C_30  and  C_31
REMARK                            x       y       z     vdW  Elec       q    Type
REMARK                         _______ _______ _______ _____ _____    ______ ____
ROOT
ATOM      1  C   UNL     1       1.119  -1.637   0.000  0.00  0.00    +0.000 C 
ATOM      2  C   UNL     1       0.560  -1.037   0.000  0.00  0.00    +0.000 C 
ATOM      3  C   UNL     1       0.873  -0.296   0.000  0.00  0.00    +0.000 C 
ATOM      4  C   UNL     1       1.847  -0.149   0.000  0.00  0.00    +0.000 C 
ATOM      5  C   UNL     1       2.437   0.636   0.000  0.00  0.00    +0.000 C 
ATOM      6  C   UNL     1       3.256   0.626   0.000  0.00  0.00    +0.000 C 
ATOM      7  C   UNL     1       3.554  -0.123   0.000  0.00  0.00    +0.000 A 
ATOM      8  C   UNL     1       4.379  -0.209   0.000  0.00  0.00    +0.000 A 
ATOM      9  C   UNL     1       4.691  -0.974   0.000  0.00  0.00    +0.000 A 
ATOM     10  C   UNL     1       4.171  -1.630   0.000  0.00  0.00    +0.000 A 
ATOM     11  C   UNL     1       3.322  -1.536   0.000  0.00  0.00    +0.000 A 
ATOM     12  C   UNL     1       3.031  -0.769   0.000  0.00  0.00    +0.000 A 
ATOM     13  C   UNL     1       2.159  -0.645   0.000  0.00  0.00    +0.000 C 
ATOM     14  C   UNL     1       1.945  -1.477   0.000  0.00  0.00    +0.000 C 
ATOM     15  O   UNL     1       2.610  -1.980   0.000  0.00  0.00    +0.000 OA
ATOM     16  C   UNL     1       1.314  -0.046   0.000  0.00  0.00    +0.000 C 
ATOM     17  C   UNL     1       1.172   0.841   0.000  0.00  0.00    +0.000 C 
ATOM     18  N   UNL     1       1.893   1.225   0.000  0.00  0.00    +0.000 NA
ATOM     19  O   UNL     1       4.488  -2.392   0.000  0.00  0.00    +0.000 OA
ATOM     20  O   UNL     1       1.424   0.559   0.000  0.00  0.00    +0.000 OA
ENDROOT
BRANCH   1  22
ATOM     21  C   UNL     1       1.415  -3.035   0.000  0.00  0.00    +0.000 C 
ATOM     22  N   UNL     1       0.864  -2.422   0.000  0.00  0.00    +0.000 N 
ATOM     23  C   UNL     1       0.057  -2.593   0.000  0.00  0.00    +0.000 C 
ATOM     24  O   UNL     1      -0.199  -3.377   0.000  0.00  0.00    +0.000 OA
BRANCH  23  25
ATOM     25  C   UNL     1      -0.495  -1.980   0.000  0.00  0.00    +0.000 C 
ATOM     26  C   UNL     1      -1.302  -2.151   0.000  0.00  0.00    +0.000 C 
BRANCH  26  27
ATOM     27  C   UNL     1      -1.854  -1.537   0.000  0.00  0.00    +0.000 A 
ATOM     28  C   UNL     1      -2.674  -1.623   0.000  0.00  0.00    +0.000 A 
ATOM     29  C   UNL     1      -3.010  -0.869   0.000  0.00  0.00    +0.000 A 
ATOM     30  O   UNL     1      -2.396  -0.318   0.000  0.00  0.00    +0.000 OA
ATOM     31  C   UNL     1      -1.682  -0.731   0.000  0.00  0.00    +0.000 A 
ENDBRANCH  26  27
ENDBRANCH  23  25
ENDBRANCH   1  22
BRANCH  18  32
ATOM     32  C   UNL     1       2.031   2.038   0.000  0.00  0.00    +0.000 C 
BRANCH  32  33
ATOM     33  C   UNL     1       1.396   2.564   0.000  0.00  0.00    +0.000 C 
ATOM     34  C   UNL     1       0.583   2.702   0.000  0.00  0.00    +0.000 C 
ATOM     35  C   UNL     1       1.109   3.338   0.000  0.00  0.00    +0.000 C 
ENDBRANCH  32  33
ENDBRANCH  18  32
TORSDOF 5
