REMARK  Name = 
REMARK  11 active torsions:
REMARK  status: ('A' for Active; 'I' for Inactive)
REMARK    1  A    between atoms: SG_1  and  CB_15
REMARK    2  A    between atoms: N_11  and  CA_14
REMARK    3  A    between atoms: N_12  and  CA_22
REMARK    4  A    between atoms: N_13  and  CA_19
REMARK    5  A    between atoms: CA_14  and  CB_15
REMARK    6  A    between atoms: CA_14  and  C_20
REMARK    7  A    between atoms: C_16  and  C_17
REMARK    8  A    between atoms: C_16  and  C_18
REMARK    9  A    between atoms: C_17  and  CA_19
REMARK   10  A    between atoms: CA_19  and  C_21
REMARK   11  A    between atoms: CA_22  and  C_23
REMARK                            x       y       z     vdW  Elec       q    Type
REMARK                         _______ _______ _______ _____ _____    ______ ____
ROOT
ATOM      1  CA  UNL     1       1.429  -0.468   0.000  0.00  0.00    +0.000 C 
ENDROOT
BRANCH   1   3
ATOM      2  O   UNL     1       0.000  -1.293   0.000  0.00  0.00    +0.000 OA
ATOM      3  N   UNL     1       0.715  -0.055   0.000  0.00  0.00    +0.000 N 
ATOM      4  C   UNL     1       0.000  -0.468   0.000  0.00  0.00    +0.000 C 
ATOM      5  H   UNL     1       0.715   0.456   0.000  0.00  0.00    +0.000 HD
BRANCH   4   6
ATOM      6  C   UNL     1      -0.715  -0.055   0.000  0.00  0.00    +0.000 C 
BRANCH   6   7
ATOM      7  C   UNL     1      -1.429  -0.468   0.000  0.00  0.00    +0.000 C 
BRANCH   7   8
ATOM      8  CA  UNL     1      -2.143  -0.055   0.000  0.00  0.00    +0.000 C 
BRANCH   8  11
ATOM      9  O   UNL     1      -3.572  -0.055   0.000  0.00  0.00    +0.000 OA
ATOM     10  OXT UNL     1      -2.858  -1.293   0.000  0.00  0.00    +0.000 OA
ATOM     11  C   UNL     1      -2.858  -0.468   0.000  0.00  0.00    +0.000 C 
ENDBRANCH   8  11
BRANCH   8  12
ATOM     12  N   UNL     1      -2.143   0.770   0.000  0.00  0.00    +0.000 NA
ATOM     13  H1  UNL     1      -2.586   1.025   0.000  0.00  0.00    +0.000 HD
ATOM     14  H2  UNL     1      -1.700   1.025   0.000  0.00  0.00    +0.000 HD
ENDBRANCH   8  12
ENDBRANCH   7   8
ENDBRANCH   6   7
ENDBRANCH   4   6
ENDBRANCH   1   3
BRANCH   1  17
ATOM     15  O   UNL     1       2.858  -0.468   0.000  0.00  0.00    +0.000 OA
ATOM     16  N   UNL     1       2.143   0.770   0.000  0.00  0.00    +0.000 N 
ATOM     17  C   ACE A   1       2.143  -0.055   0.000  0.00  0.00    +0.000 C 
ATOM     18  H   UNL     1       1.700   1.025   0.000  0.00  0.00    +0.000 HD
BRANCH  16  19
ATOM     19  CA  UNL     1       2.858   1.182   0.000  0.00  0.00    +0.000 C 
BRANCH  19  22
ATOM     20  O   UNL     1       3.572   2.420   0.000  0.00  0.00    +0.000 OA
ATOM     21  OXT UNL     1       2.143   2.420   0.000  0.00  0.00    +0.000 OA
ATOM     22  C   UNL     1       2.858   2.007   0.000  0.00  0.00    +0.000 C 
ENDBRANCH  19  22
ENDBRANCH  16  19
ENDBRANCH   1  17
BRANCH   1  23
ATOM     23  CB  UNL     1       1.429  -1.293   0.000  0.00  0.00    +0.000 C 
BRANCH  23  24
ATOM     24  SG  UNL     1       2.143  -1.705   0.000  0.00  0.00    +0.000 S 
ATOM     25  O   UNL     1       1.731  -2.420   0.000  0.00  0.00    +0.000 OA
ATOM     26  O   UNL     1       2.556  -0.991   0.000  0.00  0.00    +0.000 OA
ATOM     27  O   UNL     1       2.858  -2.118   0.000  0.00  0.00    +0.000 OA
ENDBRANCH  23  24
ENDBRANCH   1  23
TORSDOF 11
