REMARK  Name = 
REMARK  4 active torsions:
REMARK  status: ('A' for Active; 'I' for Inactive)
REMARK    1  A    between atoms: C_5  and  C_7
REMARK    2  A    between atoms: C_7  and  C_8
REMARK    3  A    between atoms: C_7  and  C_21
REMARK    4  A    between atoms: C_11  and  N_14
REMARK                            x       y       z     vdW  Elec       q    Type
REMARK                         _______ _______ _______ _____ _____    ______ ____
ROOT
ATOM      1  C   UNL     1      -0.321   0.241   0.000  0.00  0.00    +0.000 A 
ATOM      2  C   UNL     1       0.401   0.639   0.000  0.00  0.00    +0.000 A 
ATOM      3  C   UNL     1       1.107   0.213   0.000  0.00  0.00    +0.000 A 
ATOM      4  C   UNL     1       1.091  -0.612   0.000  0.00  0.00    +0.000 A 
ATOM      5  C   UNL     1       0.369  -1.010   0.000  0.00  0.00    +0.000 A 
ATOM      6  C   UNL     1      -0.337  -0.584   0.000  0.00  0.00    +0.000 A 
ATOM      7 CL   UNL     1      -1.060  -0.983   0.000  0.00  0.00    +0.000 Cl
ATOM      8 CL   UNL     1       0.417   1.464   0.000  0.00  0.00    +0.000 Cl
ENDROOT
BRANCH   4   9
ATOM      9  N   UNL     1       1.798  -1.038   0.000  0.00  0.00    +0.000 N 
ATOM     10  C   UNL     1       1.782  -1.863   0.000  0.00  0.00    +0.000 A 
ATOM     11  N   UNL     1       2.488  -2.289   0.000  0.00  0.00    +0.000 NA
ATOM     12  C   UNL     1       3.210  -1.890   0.000  0.00  0.00    +0.000 A 
ATOM     13  C   UNL     1       3.226  -1.065   0.000  0.00  0.00    +0.000 A 
ATOM     14  N   UNL     1       2.520  -0.639   0.000  0.00  0.00    +0.000 NA
ATOM     15  O   UNL     1       1.059  -2.261   0.000  0.00  0.00    +0.000 OA
ATOM     16  O   UNL     1       3.917  -2.317   0.000  0.00  0.00    +0.000 OA
ENDBRANCH   4   9
BRANCH   1  17
ATOM     17  C   UNL     1      -1.028   0.667   0.000  0.00  0.00    +0.000 C 
BRANCH  17  22
ATOM     18  C   UNL     1      -3.179   0.296   0.000  0.00  0.00    +0.000 A 
ATOM     19  C   UNL     1      -3.195  -0.529   0.000  0.00  0.00    +0.000 A 
ATOM     20  C   UNL     1      -2.488  -0.955   0.000  0.00  0.00    +0.000 A 
ATOM     21  C   UNL     1      -1.766  -0.556   0.000  0.00  0.00    +0.000 A 
ATOM     22  C   UNL     1      -1.750   0.268   0.000  0.00  0.00    +0.000 A 
ATOM     23  C   UNL     1      -2.456   0.695   0.000  0.00  0.00    +0.000 A 
ATOM     24 CL   UNL     1      -3.917  -0.927   0.000  0.00  0.00    +0.000 Cl
ENDBRANCH  17  22
BRANCH  17  25
ATOM     25  C   UNL     1      -1.012   1.492   0.000  0.00  0.00    +0.000 C 
ATOM     26  N   UNL     1      -0.996   2.317   0.000  0.00  0.00    +0.000 NA
ENDBRANCH  17  25
ENDBRANCH   1  17
TORSDOF 4
