REMARK  Name = 
REMARK  3 active torsions:
REMARK  status: ('A' for Active; 'I' for Inactive)
REMARK    1  A    between atoms: N_5  and  C_6
REMARK    2  A    between atoms: C_6  and  C_7
REMARK    3  A    between atoms: C_11  and  C_12
REMARK                            x       y       z     vdW  Elec       q    Type
REMARK                         _______ _______ _______ _____ _____    ______ ____
ROOT
ATOM      1  O   UNL     1      -1.786   0.206   0.000  0.00  0.00    +0.000 OA
ATOM      2  N   UNL     1      -0.357   0.206   0.000  0.00  0.00    +0.000 N 
ATOM      3  C   UNL     1      -1.072  -0.206   0.000  0.00  0.00    +0.000 C 
ATOM      4  H   UNL     1       0.086  -0.050   0.000  0.00  0.00    +0.000 HD
ENDROOT
BRANCH   3   7
ATOM      5  F   UNL     1       0.357  -2.681   0.000  0.00  0.00    +0.000 F 
ATOM      6  O   UNL     1      -2.501  -1.031   0.000  0.00  0.00    +0.000 OA
ATOM      7  C   UNL     1      -1.072  -1.031   0.000  0.00  0.00    +0.000 A 
ATOM      8  C   UNL     1      -1.786  -1.444   0.000  0.00  0.00    +0.000 A 
ATOM      9  C   UNL     1      -0.357  -1.444   0.000  0.00  0.00    +0.000 A 
ATOM     10  C   UNL     1      -1.786  -2.269   0.000  0.00  0.00    +0.000 A 
ATOM     11  C   UNL     1      -0.357  -2.269   0.000  0.00  0.00    +0.000 A 
ATOM     12  C   UNL     1      -1.072  -2.681   0.000  0.00  0.00    +0.000 A 
ENDBRANCH   3   7
BRANCH   2  13
ATOM     13  C   UNL     1      -0.357   1.031   0.000  0.00  0.00    +0.000 C 
ATOM     14  C   UNL     1      -1.072   1.444   0.000  0.00  0.00    +0.000 C 
BRANCH  13  16
ATOM     15 BR   UNL     1       2.501   2.681   0.000  0.00  0.00    +0.000 Br
ATOM     16  C   UNL     1       0.357   1.444   0.000  0.00  0.00    +0.000 A 
ATOM     17  C   UNL     1       0.357   2.269   0.000  0.00  0.00    +0.000 A 
ATOM     18  C   UNL     1       1.072   1.031   0.000  0.00  0.00    +0.000 A 
ATOM     19  C   UNL     1       1.072   2.681   0.000  0.00  0.00    +0.000 A 
ATOM     20  C   UNL     1       1.786   1.444   0.000  0.00  0.00    +0.000 A 
ATOM     21  C   UNL     1       1.786   2.269   0.000  0.00  0.00    +0.000 A 
ENDBRANCH  13  16
ENDBRANCH   2  13
TORSDOF 3
