REMARK  Name = 
REMARK  5 active torsions:
REMARK  status: ('A' for Active; 'I' for Inactive)
REMARK    1  A    between atoms: C_1  and  N_29
REMARK    2  A    between atoms: C_6  and  C_30
REMARK    3  A    between atoms: C_9  and  N_29
REMARK    4  A    between atoms: N_13  and  C_19
REMARK    5  A    between atoms: C_22  and  N_27
REMARK                            x       y       z     vdW  Elec       q    Type
REMARK                         _______ _______ _______ _____ _____    ______ ____
ROOT
ATOM      1  C   UNL     1       2.140  -0.420   0.000  0.00  0.00    +0.000 A 
ATOM      2  N   UNL     1       1.428  -0.826   0.000  0.00  0.00    +0.000 NA
ATOM      3  C   UNL     1       1.422  -1.651   0.000  0.00  0.00    +0.000 A 
ATOM      4  C   UNL     1       2.133  -2.062   0.000  0.00  0.00    +0.000 A 
ATOM      5  C   UNL     1       2.851  -1.651   0.000  0.00  0.00    +0.000 A 
ATOM      6  N   UNL     1       2.848  -0.832   0.000  0.00  0.00    +0.000 NA
ATOM      7  N   UNL     1       2.148   0.405   0.000  0.00  0.00    +0.000 NA
ATOM      8  F   UNL     1       2.123  -2.885   0.000  0.00  0.00    +0.000 F 
ENDROOT
BRANCH   7  12
ATOM      9  C   UNL     1       0.020   1.648   0.000  0.00  0.00    +0.000 A 
ATOM     10  C   UNL     1       0.014   0.825   0.000  0.00  0.00    +0.000 A 
ATOM     11  C   UNL     1       0.724   0.410   0.000  0.00  0.00    +0.000 A 
ATOM     12  C   UNL     1       1.435   0.817   0.000  0.00  0.00    +0.000 A 
ATOM     13  C   UNL     1       1.437   1.644   0.000  0.00  0.00    +0.000 A 
ATOM     14  C   UNL     1       0.726   2.054   0.000  0.00  0.00    +0.000 A 
ATOM     15  C   UNL     1       0.726   2.880   0.000  0.00  0.00    +0.000 C 
BRANCH   9  16
ATOM     16  N   UNL     1      -0.701   2.065   0.000  0.00  0.00    +0.000 N 
ATOM     17  C   UNL     1      -0.706   2.890   0.000  0.00  0.00    +0.000 C 
ATOM     18  C   UNL     1      -1.419   3.296   0.000  0.00  0.00    +0.000 C 
ATOM     19  N   UNL     1      -2.129   2.882   0.000  0.00  0.00    +0.000 NA
ATOM     20  C   UNL     1      -2.129   2.057   0.000  0.00  0.00    +0.000 C 
ATOM     21  C   UNL     1      -1.410   1.646   0.000  0.00  0.00    +0.000 C 
ATOM     22  C   UNL     1      -2.851   3.298   0.000  0.00  0.00    +0.000 C 
ENDBRANCH   9  16
ENDBRANCH   7  12
BRANCH   3  23
ATOM     23  N   UNL     1       0.702  -2.055   0.000  0.00  0.00    +0.000 NA
BRANCH  23  24
ATOM     24  C   UNL     1      -0.012  -1.643   0.000  0.00  0.00    +0.000 C 
ATOM     25  C   UNL     1      -0.017  -0.818   0.000  0.00  0.00    +0.000 C 
ATOM     26  C   UNL     1      -0.730  -0.412   0.000  0.00  0.00    +0.000 C 
ATOM     27  C   UNL     1      -1.444  -0.826   0.000  0.00  0.00    +0.000 C 
ATOM     28  C   UNL     1      -1.439  -1.651   0.000  0.00  0.00    +0.000 C 
ATOM     29  C   UNL     1      -0.721  -2.062   0.000  0.00  0.00    +0.000 C 
ATOM     30  C   UNL     1      -0.604  -1.400   0.000  0.00  0.00    +0.000 C 
BRANCH  29  31
ATOM     31  C   UNL     1      -0.730  -2.885   0.000  0.00  0.00    +0.000 C 
ATOM     32  N   UNL     1      -1.448  -3.293   0.000  0.00  0.00    +0.000 NA
ATOM     33  O   UNL     1      -0.017  -3.298   0.000  0.00  0.00    +0.000 OA
ENDBRANCH  29  31
ENDBRANCH  23  24
ENDBRANCH   3  23
TORSDOF 5
