REMARK  Name = 
REMARK  7 active torsions:
REMARK  status: ('A' for Active; 'I' for Inactive)
REMARK    1  A    between atoms: CA_2  and  C_5
REMARK    2  A    between atoms: CA_3  and  N_6
REMARK    3  A    between atoms: C_9  and  C_10
REMARK    4  A    between atoms: C_10  and  C_16
REMARK    5  A    between atoms: C_11  and  CA_12
REMARK    6  A    between atoms: C_11  and  C_16
REMARK    7  A    between atoms: CA_12  and  C_13
REMARK                            x       y       z     vdW  Elec       q    Type
REMARK                         _______ _______ _______ _____ _____    ______ ____
ROOT
ATOM      1  N   UNL     1       2.279  -0.205   0.000  0.00  0.00    +0.000 N 
ATOM      2  CA  UNL     1       3.063  -0.460   0.000  0.00  0.00    +0.000 C 
ATOM      3  CA  UNL     1       1.453   0.620   0.000  0.00  0.00    +0.000 C 
ATOM      4  S   UNL     1       3.063   0.875   0.000  0.00  0.00    +0.000 S 
ATOM      5  C   UNL     1       1.453  -0.205   0.000  0.00  0.00    +0.000 C 
ATOM      6  O   UNL     1       0.870  -0.788   0.000  0.00  0.00    +0.000 OA
ATOM      7  C   UNL     1       4.263   0.620   0.000  0.00  0.00    +0.000 C 
ATOM      8  C   UNL     1       3.548   0.208   0.000  0.00  0.00    +0.000 C 
ATOM      9  C   UNL     1       4.263  -0.205   0.000  0.00  0.00    +0.000 C 
ATOM     10  C   UNL     1       2.279   0.620   0.000  0.00  0.00    +0.000 C 
ENDROOT
BRANCH   2  11
ATOM     11  C   UNL     1       3.318  -1.244   0.000  0.00  0.00    +0.000 C 
ATOM     12  O   UNL     1       4.125  -1.416   0.000  0.00  0.00    +0.000 OA
ATOM     13  OXT UNL     1       2.766  -1.858   0.000  0.00  0.00    +0.000 OA
ENDBRANCH   2  11
BRANCH   3  14
ATOM     14  N   UNL     1       0.739   1.033   0.000  0.00  0.00    +0.000 NA
ATOM     15  C   UNL     1       0.024   0.620   0.000  0.00  0.00    +0.000 C 
ATOM     16  O   UNL     1       0.024  -0.205   0.000  0.00  0.00    +0.000 OA
BRANCH  15  17
ATOM     17  C   UNL     1      -0.690   1.033   0.000  0.00  0.00    +0.000 C 
BRANCH  17  18
ATOM     18  C   UNL     1      -1.405   0.620   0.000  0.00  0.00    +0.000 C 
BRANCH  18  19
ATOM     19  C   UNL     1      -2.119   1.033   0.000  0.00  0.00    +0.000 C 
BRANCH  19  20
ATOM     20  CA  UNL     1      -2.833   0.620   0.000  0.00  0.00    +0.000 C 
ATOM     21  N   UNL     1      -2.833  -0.205   0.000  0.00  0.00    +0.000 NA
BRANCH  20  22
ATOM     22  C   UNL     1      -3.548   1.033   0.000  0.00  0.00    +0.000 C 
ATOM     23  O   UNL     1      -4.263   0.620   0.000  0.00  0.00    +0.000 OA
ATOM     24  OXT UNL     1      -3.548   1.858   0.000  0.00  0.00    +0.000 OA
ENDBRANCH  20  22
ENDBRANCH  19  20
ENDBRANCH  18  19
ENDBRANCH  17  18
ENDBRANCH  15  17
ENDBRANCH   3  14
TORSDOF 7
