REMARK  Name = 
REMARK  3 active torsions:
REMARK  status: ('A' for Active; 'I' for Inactive)
REMARK    1  A    between atoms: N_1  and  C1*_2
REMARK    2  A    between atoms: C_7  and  C_13
REMARK    3  A    between atoms: C4*_10  and  C5*_18
REMARK                            x       y       z     vdW  Elec       q    Type
REMARK                         _______ _______ _______ _____ _____    ______ ____
ROOT
ATOM      1  N   UNL     1       0.172  -0.205   0.000  0.00  0.00    +0.000 N 
ATOM      2  C   UNL     1       0.836   0.285   0.000  0.00  0.00    +0.000 A 
ATOM      3  C   UNL     1      -0.498   0.275   0.000  0.00  0.00    +0.000 A 
ATOM      4  C   UNL     1       0.575   1.067   0.000  0.00  0.00    +0.000 A 
ATOM      5  N   UNL     1       1.622   0.036   0.000  0.00  0.00    +0.000 NA
ATOM      6  N   UNL     1      -0.249   1.061   0.000  0.00  0.00    +0.000 NA
ENDROOT
BRANCH   1   7
ATOM      7  C1* UNL     1       0.178  -1.029   0.000  0.00  0.00    +0.000 C 
ATOM      8  O4* UNL     1      -0.497  -0.556   0.000  0.00  0.00    +0.000 OA
ATOM      9  C2* UNL     1      -0.081  -1.822   0.000  0.00  0.00    +0.000 C 
ATOM     10  C4* UNL     1      -1.157  -1.033   0.000  0.00  0.00    +0.000 C 
ATOM     11  C3* UNL     1      -0.907  -1.822   0.000  0.00  0.00    +0.000 C 
ATOM     12  O2* UNL     1       0.404  -2.489   0.000  0.00  0.00    +0.000 OA
ATOM     13  O3* UNL     1      -1.395  -2.489   0.000  0.00  0.00    +0.000 OA
BRANCH  10  14
ATOM     14  C5* UNL     1      -1.159  -0.204   0.000  0.00  0.00    +0.000 C 
ATOM     15  O5* UNL     1      -1.876   0.204   0.000  0.00  0.00    +0.000 OA
ENDBRANCH  10  14
ENDBRANCH   1   7
BRANCH   4  16
ATOM     16  C   UNL     1       1.055   1.738   0.000  0.00  0.00    +0.000 C 
ATOM     17  N   UNL     1       1.876   1.658   0.000  0.00  0.00    +0.000 NA
ATOM     18  O   UNL     1       0.714   2.489   0.000  0.00  0.00    +0.000 OA
ENDBRANCH   4  16
TORSDOF 3
