REMARK  Name = 
REMARK  3 active torsions:
REMARK  status: ('A' for Active; 'I' for Inactive)
REMARK    1  A    between atoms: C_1  and  C_2
REMARK    2  A    between atoms: N_5  and  N_9
REMARK    3  A    between atoms: N_9  and  C_11
REMARK                            x       y       z     vdW  Elec       q    Type
REMARK                         _______ _______ _______ _____ _____    ______ ____
ROOT
ATOM      1  C   UNL     1      -0.355  -0.418   0.000  0.00  0.00    +0.000 C 
ATOM      2  N   UNL     1       0.355   0.000   0.000  0.00  0.00    +0.000 NA
ATOM      3  O   UNL     1      -0.355  -1.255   0.000  0.00  0.00    +0.000 OA
ENDROOT
BRANCH   1   4
ATOM      4  C   UNL     1      -1.108   0.000   0.000  0.00  0.00    +0.000 A 
ATOM      5  C   UNL     1      -1.819  -0.418   0.000  0.00  0.00    +0.000 A 
ATOM      6  C   UNL     1      -1.108   0.837   0.000  0.00  0.00    +0.000 A 
ATOM      7  C   UNL     1      -2.530   0.000   0.000  0.00  0.00    +0.000 A 
ATOM      8  C   UNL     1      -1.819   1.255   0.000  0.00  0.00    +0.000 A 
ATOM      9  N   UNL     1      -2.530   0.837   0.000  0.00  0.00    +0.000 NA
ENDBRANCH   1   4
BRANCH   2  10
ATOM     10  N   UNL     1       1.067  -0.418   0.000  0.00  0.00    +0.000 NA
BRANCH  10  11
ATOM     11  C   UNL     1       1.819   0.000   0.000  0.00  0.00    +0.000 C 
ATOM     12  C   UNL     1       2.530  -0.418   0.000  0.00  0.00    +0.000 C 
ATOM     13  C   UNL     1       1.819   0.837   0.000  0.00  0.00    +0.000 C 
ENDBRANCH  10  11
ENDBRANCH   2  10
TORSDOF 3
