REMARK  Name = 
REMARK  5 active torsions:
REMARK  status: ('A' for Active; 'I' for Inactive)
REMARK    1  A    between atoms: C_7  and  C_8
REMARK    2  A    between atoms: C_7  and  C_9
REMARK    3  A    between atoms: C_7  and  C_20
REMARK    4  A    between atoms: C_8  and  O_12
REMARK    5  A    between atoms: O_12  and  C_13
REMARK                            x       y       z     vdW  Elec       q    Type
REMARK                         _______ _______ _______ _____ _____    ______ ____
ROOT
ATOM      1  O   UNL     1      -0.311   0.613   0.000  0.00  0.00    +0.000 OA
ENDROOT
BRANCH   1  10
ATOM      2  C   UNL     1      -2.872   0.207   0.000  0.00  0.00    +0.000 C 
ATOM      3  C   UNL     1      -2.869   0.991   0.000  0.00  0.00    +0.000 C 
ATOM      4  N   UNL     1      -1.773   0.584   0.000  0.00  0.00    +0.000 N 
ATOM      5  O   UNL     1      -3.550   0.602   0.000  0.00  0.00    +0.000 OA
ATOM      6  C   UNL     1      -2.243  -0.287   0.000  0.00  0.00    +0.000 C 
ATOM      7  C   UNL     1      -2.249   1.487   0.000  0.00  0.00    +0.000 C 
ATOM      8  C   UNL     1      -1.478   1.321   0.000  0.00  0.00    +0.000 C 
ATOM      9  C   UNL     1      -1.472  -0.106   0.000  0.00  0.00    +0.000 C 
ATOM     10  C   UNL     1      -1.138   0.608   0.000  0.00  0.00    +0.000 C 
ATOM     11  C   UNL     1      -0.981  -0.208   0.000  0.00  0.00    +0.000 C 
ATOM     12  C   UNL     1      -0.986   1.379   0.000  0.00  0.00    +0.000 C 
ENDBRANCH   1  10
BRANCH   1  13
ATOM     13  C   UNL     1       0.408   1.031   0.000  0.00  0.00    +0.000 C 
ATOM     14  O   UNL     1       0.405   1.859   0.000  0.00  0.00    +0.000 OA
BRANCH  13  15
ATOM     15  C   UNL     1       1.127   0.619   0.000  0.00  0.00    +0.000 C 
BRANCH  15  16
ATOM     16  C   UNL     1       1.129  -0.208   0.000  0.00  0.00    +0.000 A 
ATOM     17  C   UNL     1       0.416  -0.620   0.000  0.00  0.00    +0.000 A 
ATOM     18  C   UNL     1       0.418  -1.447   0.000  0.00  0.00    +0.000 A 
ATOM     19  C   UNL     1       1.137  -1.859   0.000  0.00  0.00    +0.000 A 
ATOM     20  C   UNL     1       1.854  -1.438   0.000  0.00  0.00    +0.000 A 
ATOM     21  C   UNL     1       1.848  -0.613   0.000  0.00  0.00    +0.000 A 
ENDBRANCH  15  16
BRANCH  15  22
ATOM     22  C   UNL     1       1.840   1.034   0.000  0.00  0.00    +0.000 C 
ATOM     23  O   UNL     1       2.553   0.625   0.000  0.00  0.00    +0.000 OA
ENDBRANCH  15  22
ENDBRANCH  13  15
ENDBRANCH   1  13
TORSDOF 5
REMARK  Name = 
REMARK  5 active torsions:
REMARK  status: ('A' for Active; 'I' for Inactive)
REMARK    1  A    between atoms: C_7  and  C_8
REMARK    2  A    between atoms: C_7  and  C_9
REMARK    3  A    between atoms: C_7  and  C_20
REMARK    4  A    between atoms: C_8  and  O_12
REMARK    5  A    between atoms: O_12  and  C_13
REMARK                            x       y       z     vdW  Elec       q    Type
REMARK                         _______ _______ _______ _____ _____    ______ ____
ROOT
ATOM      1 BR   UNL     1       3.550   0.625   0.000  0.00  0.00    +0.000 Br
ENDROOT
TORSDOF 0
