REMARK  Name = 
REMARK  2 active torsions:
REMARK  status: ('A' for Active; 'I' for Inactive)
REMARK    1  A    between atoms: C_1  and  O_3
REMARK    2  A    between atoms: C_1  and  C_5
REMARK                            x       y       z     vdW  Elec       q    Type
REMARK                         _______ _______ _______ _____ _____    ______ ____
ROOT
ATOM      1  C   UNL     1       1.112  -1.155   0.000  0.00  0.00    +0.000 C 
ATOM      2  N   UNL     1       1.109   1.306   0.000  0.00  0.00    +0.000 NA
ATOM      3  C   UNL     1      -0.357   2.127   0.000  0.00  0.00    +0.000 A 
ATOM      4  C   UNL     1       1.139   2.127   0.000  0.00  0.00    +0.000 C 
ATOM      5  C   UNL     1       0.382   0.900   0.000  0.00  0.00    +0.000 C 
ATOM      6  C   UNL     1       0.382   0.079   0.000  0.00  0.00    +0.000 C 
ATOM      7  C   UNL     1       1.113  -0.330   0.000  0.00  0.00    +0.000 C 
ATOM      8  C   UNL     1       1.835   0.079   0.000  0.00  0.00    +0.000 C 
ATOM      9  C   UNL     1       1.835   0.900   0.000  0.00  0.00    +0.000 C 
ATOM     10  C   UNL     1      -0.353   1.304   0.000  0.00  0.00    +0.000 A 
ATOM     11  C   UNL     1      -1.773   2.128   0.000  0.00  0.00    +0.000 A 
ATOM     12  C   UNL     1      -1.776   1.306   0.000  0.00  0.00    +0.000 A 
ATOM     13  C   UNL     1      -3.240   2.130   0.000  0.00  0.00    +0.000 A 
ATOM     14  C   UNL     1      -3.241   1.306   0.000  0.00  0.00    +0.000 A 
ATOM     15  C   UNL     1      -2.529   0.880   0.000  0.00  0.00    +0.000 A 
ATOM     16  C   UNL     1      -2.531   2.534   0.000  0.00  0.00    +0.000 A 
ATOM     17  N   UNL     1      -1.054   0.900   0.000  0.00  0.00    +0.000 NA
ATOM     18  C   UNL     1       0.430   2.538   0.000  0.00  0.00    +0.000 C 
ATOM     19  C   UNL     1       2.528  -0.330   0.000  0.00  0.00    +0.000 C 
ATOM     20  O   UNL     1       2.528  -1.151   0.000  0.00  0.00    +0.000 OA
ATOM     21  C   UNL     1       1.819  -1.542   0.000  0.00  0.00    +0.000 C 
ATOM     22  C   UNL     1       3.241   0.065   0.000  0.00  0.00    +0.000 C 
ENDROOT
BRANCH   1  23
ATOM     23  C   UNL     1       0.291  -1.593   0.000  0.00  0.00    +0.000 C 
ATOM     24  O   UNL     1       0.262  -2.538   0.000  0.00  0.00    +0.000 OA
BRANCH  23  25
ATOM     25  O   UNL     1      -0.514  -1.091   0.000  0.00  0.00    +0.000 OA
ATOM     26  C   UNL     1      -1.364  -1.533   0.000  0.00  0.00    +0.000 C 
ENDBRANCH  23  25
ENDBRANCH   1  23
TORSDOF 2
