REMARK  Name = 
REMARK  1 active torsions:
REMARK  status: ('A' for Active; 'I' for Inactive)
REMARK    1  A    between atoms: C_18  and  C_19
REMARK                            x       y       z     vdW  Elec       q    Type
REMARK                         _______ _______ _______ _____ _____    ______ ____
ROOT
ATOM      1  C   UNL     1       4.547  -0.509   0.000  0.00  0.00    +0.000 C 
ATOM      2  C   UNL     1       4.827   0.267   0.000  0.00  0.00    +0.000 C 
ATOM      3  C   UNL     1       5.359  -0.363   0.000  0.00  0.00    +0.000 C 
ATOM      4  C   UNL     1       6.171  -0.218   0.000  0.00  0.00    +0.000 C 
ATOM      5  C   UNL     1       6.451   0.558   0.000  0.00  0.00    +0.000 C 
ATOM      6  C   UNL     1       5.919   1.188   0.000  0.00  0.00    +0.000 C 
ATOM      7  C   UNL     1       5.107   1.043   0.000  0.00  0.00    +0.000 C 
ATOM      8  C   UNL     1       4.575   1.674   0.000  0.00  0.00    +0.000 C 
ATOM      9  C   UNL     1       3.763   1.529   0.000  0.00  0.00    +0.000 C 
ATOM     10  C   UNL     1       3.483   0.753   0.000  0.00  0.00    +0.000 C 
ATOM     11  C   UNL     1       4.015   0.122   0.000  0.00  0.00    +0.000 C 
ATOM     12  C   UNL     1       3.735  -0.654   0.000  0.00  0.00    +0.000 C 
ATOM     13  C   UNL     1       2.922  -0.799   0.000  0.00  0.00    +0.000 C 
ATOM     14  C   UNL     1       2.390  -0.168   0.000  0.00  0.00    +0.000 C 
ATOM     15  C   UNL     1       2.671   0.608   0.000  0.00  0.00    +0.000 C 
ATOM     16  C   UNL     1       2.019   1.114   0.000  0.00  0.00    +0.000 C 
ATOM     17  C   UNL     1       1.337   0.651   0.000  0.00  0.00    +0.000 C 
ATOM     18  C   UNL     1       1.566  -0.142   0.000  0.00  0.00    +0.000 C 
ATOM     19  O   UNL     1       1.445  -0.958   0.000  0.00  0.00    +0.000 OA
ATOM     20  C   UNL     1       2.031  -0.911   0.000  0.00  0.00    +0.000 C 
ATOM     21  O   UNL     1       7.263   0.703   0.000  0.00  0.00    +0.000 OA
ENDROOT
BRANCH  18  22
ATOM     22  C   UNL     1       0.805  -0.460   0.000  0.00  0.00    +0.000 C 
ATOM     23  C   UNL     1       0.044  -0.779   0.000  0.00  0.00    +0.000 C 
ENDBRANCH  18  22
TORSDOF 1
