REMARK  Name = 
REMARK  4 active torsions:
REMARK  status: ('A' for Active; 'I' for Inactive)
REMARK    1  A    between atoms: N_2  and  C_5
REMARK    2  A    between atoms: N_3  and  C_6
REMARK    3  A    between atoms: N_4  and  C_7
REMARK    4  A    between atoms: C_6  and  C_10
REMARK                            x       y       z     vdW  Elec       q    Type
REMARK                         _______ _______ _______ _____ _____    ______ ____
ROOT
ATOM      1  C   UNL     1       0.365   0.705   0.000  0.00  0.00    +0.000 C 
ATOM      2  N   UNL     1       0.365  -0.129   0.000  0.00  0.00    +0.000 NA
ATOM      3  N   UNL     1      -0.353   1.111   0.000  0.00  0.00    +0.000 NA
ATOM      4  N   UNL     1       1.065   1.126   0.000  0.00  0.00    +0.000 NA
ENDROOT
BRANCH   2   5
ATOM      5  C   UNL     1       1.074  -0.561   0.000  0.00  0.00    +0.000 A 
ATOM      6  C   UNL     1       1.074  -1.388   0.000  0.00  0.00    +0.000 A 
ATOM      7  C   UNL     1       1.816  -0.123   0.000  0.00  0.00    +0.000 A 
ATOM      8  C   UNL     1       1.816  -1.794   0.000  0.00  0.00    +0.000 A 
ATOM      9  C   UNL     1       2.531  -0.528   0.000  0.00  0.00    +0.000 A 
ATOM     10  N   UNL     1       2.531  -1.367   0.000  0.00  0.00    +0.000 NA
ENDBRANCH   2   5
BRANCH   3  11
ATOM     11  C   UNL     1      -1.065   0.684   0.000  0.00  0.00    +0.000 C 
ATOM     12  C   UNL     1      -1.065  -0.111   0.000  0.00  0.00    +0.000 C 
BRANCH  11  13
ATOM     13  C   UNL     1      -1.803   1.082   0.000  0.00  0.00    +0.000 C 
ATOM     14  C   UNL     1      -2.181   0.363   0.000  0.00  0.00    +0.000 C 
ATOM     15  C   UNL     1      -1.403   1.794   0.000  0.00  0.00    +0.000 C 
ATOM     16  C   UNL     1      -2.531   1.455   0.000  0.00  0.00    +0.000 C 
ENDBRANCH  11  13
ENDBRANCH   3  11
BRANCH   4  17
ATOM     17  C   UNL     1       1.798   0.727   0.000  0.00  0.00    +0.000 C 
ATOM     18  N   UNL     1       2.531   0.377   0.000  0.00  0.00    +0.000 NA
ENDBRANCH   4  17
TORSDOF 4
