REMARK  Name = 
REMARK  5 active torsions:
REMARK  status: ('A' for Active; 'I' for Inactive)
REMARK    1  A    between atoms: C_3  and  N_15
REMARK    2  A    between atoms: C_5  and  C_8
REMARK    3  A    between atoms: C_8  and  O_9
REMARK    4  A    between atoms: O_9  and  C_10
REMARK    5  A    between atoms: C_10  and  C_11
REMARK                            x       y       z     vdW  Elec       q    Type
REMARK                         _______ _______ _______ _____ _____    ______ ____
ROOT
ATOM      1  O   UNL     1       0.754  -1.355   0.000  0.00  0.00    +0.000 OA
ATOM      2  C   UNL     1       0.295  -0.670   0.000  0.00  0.00    +0.000 C 
ATOM      3  C   UNL     1       0.579   0.104   0.000  0.00  0.00    +0.000 C 
ATOM      4  O   UNL     1      -0.070   0.614   0.000  0.00  0.00    +0.000 OA
ATOM      5  C   UNL     1      -0.755   0.154   0.000  0.00  0.00    +0.000 C 
ATOM      6  C   UNL     1      -0.530  -0.639   0.000  0.00  0.00    +0.000 C 
ATOM      7  O   UNL     1      -1.039  -1.288   0.000  0.00  0.00    +0.000 OA
ENDROOT
BRANCH   3   8
ATOM      8  N   UNL     1       1.372   0.330   0.000  0.00  0.00    +0.000 N 
ATOM      9  C   UNL     1       1.965  -0.245   0.000  0.00  0.00    +0.000 A 
ATOM     10  O   UNL     1       1.763  -1.045   0.000  0.00  0.00    +0.000 OA
ATOM     11  N   UNL     1       2.758  -0.019   0.000  0.00  0.00    +0.000 NA
ATOM     12  C   UNL     1       2.960   0.781   0.000  0.00  0.00    +0.000 A 
ATOM     13  C   UNL     1       2.368   1.355   0.000  0.00  0.00    +0.000 A 
ATOM     14  C   UNL     1       1.574   1.130   0.000  0.00  0.00    +0.000 A 
ATOM     15  N   UNL     1       3.753   1.006   0.000  0.00  0.00    +0.000 NA
ATOM     16  O   UNL     1       4.345   0.432   0.000  0.00  0.00    +0.000 OA
ENDBRANCH   3   8
BRANCH   5  17
ATOM     17  C   UNL     1      -1.530   0.438   0.000  0.00  0.00    +0.000 C 
BRANCH  17  18
ATOM     18  O   UNL     1      -2.163  -0.090   0.000  0.00  0.00    +0.000 OA
BRANCH  18  19
ATOM     19  C   UNL     1      -2.938   0.193   0.000  0.00  0.00    +0.000 C 
ATOM     20  O   UNL     1      -3.079   1.006   0.000  0.00  0.00    +0.000 OA
BRANCH  19  21
ATOM     21  C   UNL     1      -3.571  -0.335   0.000  0.00  0.00    +0.000 C 
ATOM     22  C   UNL     1      -4.345  -0.051   0.000  0.00  0.00    +0.000 C 
ATOM     23  C   UNL     1      -3.430  -1.148   0.000  0.00  0.00    +0.000 C 
ENDBRANCH  19  21
ENDBRANCH  18  19
ENDBRANCH  17  18
ENDBRANCH   5  17
TORSDOF 5
