REMARK  Name = 
REMARK  12 active torsions:
REMARK  status: ('A' for Active; 'I' for Inactive)
REMARK    1  A    between atoms: C_2  and  N_3
REMARK    2  A    between atoms: C_2  and  C_31
REMARK    3  A    between atoms: N_3  and  P_4
REMARK    4  A    between atoms: P_4  and  O_6
REMARK    5  A    between atoms: P_4  and  O_24
REMARK    6  A    between atoms: O_6  and  C_7
REMARK    7  A    between atoms: C_7  and  C_8
REMARK    8  A    between atoms: C_10  and  N_11
REMARK    9  A    between atoms: O_24  and  C_25
REMARK   10  A    between atoms: C_31  and  O_33
REMARK   11  A    between atoms: O_33  and  C_34
REMARK   12  A    between atoms: C_34  and  C_35
REMARK                            x       y       z     vdW  Elec       q    Type
REMARK                         _______ _______ _______ _____ _____    ______ ____
ROOT
ATOM      1  P   UNL     1       5.941  -8.782   0.000  0.00  0.00    +0.000 P 
ATOM      2  O   UNL     1       6.609  -8.297   0.000  0.00  0.00    +0.000 OA
ENDROOT
BRANCH   1   3
ATOM      3  O   UNL     1       5.274  -9.267   0.000  0.00  0.00    +0.000 OA
BRANCH   3   4
ATOM      4  C   UNL     1       4.520  -8.932   0.000  0.00  0.00    +0.000 A 
ATOM      5  C   UNL     1       3.853  -9.416   0.000  0.00  0.00    +0.000 A 
ATOM      6  C   UNL     1       3.099  -9.081   0.000  0.00  0.00    +0.000 A 
ATOM      7  C   UNL     1       3.013  -8.261   0.000  0.00  0.00    +0.000 A 
ATOM      8  C   UNL     1       3.680  -7.776   0.000  0.00  0.00    +0.000 A 
ATOM      9  C   UNL     1       4.434  -8.111   0.000  0.00  0.00    +0.000 A 
ENDBRANCH   3   4
ENDBRANCH   1   3
BRANCH   1  10
ATOM     10  N   UNL     1       6.426  -9.450   0.000  0.00  0.00    +0.000 NA
BRANCH  10  12
ATOM     11  C   UNL     1       5.270 -10.290   0.000  0.00  0.00    +0.000 C 
ATOM     12  C   UNL     1       6.091 -10.203   0.000  0.00  0.00    +0.000 C 
BRANCH  12  13
ATOM     13  C   UNL     1       6.576 -10.871   0.000  0.00  0.00    +0.000 C 
ATOM     14  O   UNL     1       7.396 -10.784   0.000  0.00  0.00    +0.000 OA
BRANCH  13  15
ATOM     15  O   UNL     1       6.240 -11.624   0.000  0.00  0.00    +0.000 OA
BRANCH  15  16
ATOM     16  C   UNL     1       6.725 -12.292   0.000  0.00  0.00    +0.000 C 
BRANCH  16  17
ATOM     17  C   UNL     1       6.389 -13.046   0.000  0.00  0.00    +0.000 A 
ATOM     18  C   UNL     1       6.874 -13.713   0.000  0.00  0.00    +0.000 A 
ATOM     19  C   UNL     1       6.539 -14.467   0.000  0.00  0.00    +0.000 A 
ATOM     20  C   UNL     1       5.718 -14.553   0.000  0.00  0.00    +0.000 A 
ATOM     21  C   UNL     1       5.233 -13.886   0.000  0.00  0.00    +0.000 A 
ATOM     22  C   UNL     1       5.569 -13.132   0.000  0.00  0.00    +0.000 A 
ENDBRANCH  16  17
ENDBRANCH  15  16
ENDBRANCH  13  15
ENDBRANCH  12  13
ENDBRANCH  10  12
ENDBRANCH   1  10
BRANCH   1  23
ATOM     23  O   UNL     1       5.457  -8.115   0.000  0.00  0.00    +0.000 OA
BRANCH  23  24
ATOM     24  C   UNL     1       5.792  -7.361   0.000  0.00  0.00    +0.000 C 
BRANCH  24  25
ATOM     25  C   UNL     1       5.307  -6.694   0.000  0.00  0.00    +0.000 C 
ATOM     26  O   UNL     1       4.482  -6.694   0.000  0.00  0.00    +0.000 OA
ATOM     27  C   UNL     1       4.227  -5.909   0.000  0.00  0.00    +0.000 C 
ATOM     28  C   UNL     1       4.895  -5.424   0.000  0.00  0.00    +0.000 C 
ATOM     29  F   UNL     1       4.343  -4.811   0.000  0.00  0.00    +0.000 F 
ATOM     30  F   UNL     1       5.447  -4.811   0.000  0.00  0.00    +0.000 F 
ATOM     31  C   UNL     1       5.562  -5.909   0.000  0.00  0.00    +0.000 C 
ATOM     32  O   UNL     1       6.347  -5.654   0.000  0.00  0.00    +0.000 OA
BRANCH  27  33
ATOM     33  N   UNL     1       3.442  -5.654   0.000  0.00  0.00    +0.000 N 
ATOM     34  C   UNL     1       2.829  -6.206   0.000  0.00  0.00    +0.000 A 
ATOM     35  C   UNL     1       2.045  -5.951   0.000  0.00  0.00    +0.000 A 
ATOM     36  C   UNL     1       1.873  -5.144   0.000  0.00  0.00    +0.000 A 
ATOM     37  N   UNL     1       1.089  -4.889   0.000  0.00  0.00    +0.000 NA
ATOM     38  N   UNL     1       2.486  -4.592   0.000  0.00  0.00    +0.000 NA
ATOM     39  C   UNL     1       3.271  -4.847   0.000  0.00  0.00    +0.000 A 
ATOM     40  O   UNL     1       3.884  -4.295   0.000  0.00  0.00    +0.000 OA
ENDBRANCH  27  33
ENDBRANCH  24  25
ENDBRANCH  23  24
ENDBRANCH   1  23
TORSDOF 12
