REMARK  Name = 
REMARK  5 active torsions:
REMARK  status: ('A' for Active; 'I' for Inactive)
REMARK    1  A    between atoms: C_6  and  C_7
REMARK    2  A    between atoms: C_7  and  N_8
REMARK    3  A    between atoms: N_18  and  C_19
REMARK    4  A    between atoms: C_19  and  C_20
REMARK    5  A    between atoms: C_20  and  N_21
REMARK                            x       y       z     vdW  Elec       q    Type
REMARK                         _______ _______ _______ _____ _____    ______ ____
ROOT
ATOM      1  N   UNL     1       4.067   2.348   0.000  0.00  0.00    +0.000 NA
ATOM      2  C   UNL     1       3.352   1.935   0.000  0.00  0.00    +0.000 A 
ATOM      3  N   UNL     1       3.352   1.110   0.000  0.00  0.00    +0.000 NA
ATOM      4  C   UNL     1       2.638   0.698   0.000  0.00  0.00    +0.000 A 
ATOM      5  O   UNL     1       2.638  -0.127   0.000  0.00  0.00    +0.000 OA
ATOM      6  C   UNL     1       1.923   1.110   0.000  0.00  0.00    +0.000 A 
ATOM      7  C   UNL     1       1.923   1.935   0.000  0.00  0.00    +0.000 A 
ATOM      8  N   UNL     1       2.638   2.348   0.000  0.00  0.00    +0.000 NA
ATOM      9  N   UNL     1       1.139   2.190   0.000  0.00  0.00    +0.000 NA
ATOM     10  C   UNL     1       0.654   1.523   0.000  0.00  0.00    +0.000 A 
ATOM     11  N   UNL     1       1.139   0.856   0.000  0.00  0.00    +0.000 N 
ENDROOT
BRANCH   1  12
ATOM     12  C   UNL     1       4.067   3.173   0.000  0.00  0.00    +0.000 C 
BRANCH  12  18
ATOM     13 CL   UNL     1       6.925   4.823   0.000  0.00  0.00    +0.000 Cl
ATOM     14  C   UNL     1       6.210   4.410   0.000  0.00  0.00    +0.000 A 
ATOM     15  C   UNL     1       6.210   3.585   0.000  0.00  0.00    +0.000 A 
ATOM     16 CL   UNL     1       6.925   3.173   0.000  0.00  0.00    +0.000 Cl
ATOM     17  C   UNL     1       5.496   3.173   0.000  0.00  0.00    +0.000 A 
ATOM     18  C   UNL     1       4.781   3.585   0.000  0.00  0.00    +0.000 A 
ATOM     19  C   UNL     1       4.781   4.410   0.000  0.00  0.00    +0.000 A 
ATOM     20  C   UNL     1       5.496   4.823   0.000  0.00  0.00    +0.000 A 
ENDBRANCH  12  18
ENDBRANCH   1  12
BRANCH  11  21
ATOM     21  C   UNL     1       0.884   0.071   0.000  0.00  0.00    +0.000 C 
BRANCH  21  22
ATOM     22  C   UNL     1       1.436  -0.542   0.000  0.00  0.00    +0.000 C 
BRANCH  22  23
ATOM     23  N   UNL     1       1.181  -1.327   0.000  0.00  0.00    +0.000 NA
ATOM     24  C   UNL     1       1.733  -1.940   0.000  0.00  0.00    +0.000 C 
ATOM     25  C   UNL     1       1.478  -2.725   0.000  0.00  0.00    +0.000 C 
ATOM     26  O   UNL     1       0.671  -2.896   0.000  0.00  0.00    +0.000 OA
ATOM     27  C   UNL     1       0.119  -2.283   0.000  0.00  0.00    +0.000 C 
ATOM     28  C   UNL     1       0.374  -1.498   0.000  0.00  0.00    +0.000 C 
ENDBRANCH  22  23
ENDBRANCH  21  22
ENDBRANCH  11  21
TORSDOF 5
