REMARK  Name = 
REMARK  3 active torsions:
REMARK  status: ('A' for Active; 'I' for Inactive)
REMARK    1  A    between atoms: C_4  and  C_7
REMARK    2  A    between atoms: C_7  and  C_9
REMARK    3  A    between atoms: C_9  and  C_10
REMARK                            x       y       z     vdW  Elec       q    Type
REMARK                         _______ _______ _______ _____ _____    ______ ____
ROOT
ATOM      1  C   UNL     1      -1.429  -1.237   0.000  0.00  0.00    +0.000 A 
ATOM      2  C   UNL     1      -2.143  -0.825   0.000  0.00  0.00    +0.000 A 
ATOM      3  C   UNL     1      -0.714  -0.825   0.000  0.00  0.00    +0.000 A 
ATOM      4  C   UNL     1      -0.714   0.000   0.000  0.00  0.00    +0.000 A 
ATOM      5  C   UNL     1      -1.429   0.412   0.000  0.00  0.00    +0.000 A 
ATOM      6  C   UNL     1      -2.143   0.000   0.000  0.00  0.00    +0.000 A 
ENDROOT
BRANCH   4   7
ATOM      7  C   UNL     1       0.000   0.412   0.000  0.00  0.00    +0.000 C 
BRANCH   7   9
ATOM      8  O   UNL     1       0.714  -0.825   0.000  0.00  0.00    +0.000 OA
ATOM      9  C   UNL     1       0.714   0.000   0.000  0.00  0.00    +0.000 C 
BRANCH   9  10
ATOM     10  C   UNL     1       1.429   0.412   0.000  0.00  0.00    +0.000 C 
ATOM     11  O   UNL     1       1.429   1.237   0.000  0.00  0.00    +0.000 OA
ATOM     12  O   UNL     1       2.143   0.000   0.000  0.00  0.00    +0.000 OA
ENDBRANCH   9  10
ENDBRANCH   7   9
ENDBRANCH   4   7
TORSDOF 3
