REMARK  Name = 
REMARK  17 active torsions:
REMARK  status: ('A' for Active; 'I' for Inactive)
REMARK    1  A    between atoms: P_1  and  O_5
REMARK    2  A    between atoms: O_5  and  C_27
REMARK    3  A    between atoms: N_17  and  C_26
REMARK    4  A    between atoms: N_18  and  C_29
REMARK    5  A    between atoms: N_18  and  C_32
REMARK    6  A    between atoms: N_20  and  CA_47
REMARK    7  A    between atoms: C_25  and  C_27
REMARK    8  A    between atoms: C_28  and  C_29
REMARK    9  A    between atoms: C_28  and  C_31
REMARK   10  A    between atoms: C_28  and  C_33
REMARK   11  A    between atoms: C_30  and  C_32
REMARK   12  A    between atoms: C_31  and  C_34
REMARK   13  A    between atoms: C_41  and  C_45
REMARK   14  A    between atoms: CA_47  and  CB_48
REMARK   15  A    between atoms: CA_47  and  C_51
REMARK   16  A    between atoms: CB_48  and  CG_50
REMARK   17  A    between atoms: CG_50  and  CD_52
REMARK                            x       y       z     vdW  Elec       q    Type
REMARK                         _______ _______ _______ _____ _____    ______ ____
ROOT
ATOM      1  O   UNL     1      -0.525  -2.370   0.000  0.00  0.00    +0.000 OA
ATOM      2  C   UNL     1      -0.116  -1.654   0.000  0.00  0.00    +0.000 C 
ENDROOT
BRANCH   2   3
ATOM      3  C   UNL     1       0.600  -2.064   0.000  0.00  0.00    +0.000 A 
ATOM      4  C   UNL     1       0.604  -2.889   0.000  0.00  0.00    +0.000 A 
ATOM      5  C   UNL     1       1.313  -1.649   0.000  0.00  0.00    +0.000 A 
ATOM      6  C   UNL     1       1.320  -3.299   0.000  0.00  0.00    +0.000 A 
ATOM      7  C   UNL     1       2.029  -2.058   0.000  0.00  0.00    +0.000 A 
ATOM      8  C   UNL     1       2.033  -2.883   0.000  0.00  0.00    +0.000 A 
BRANCH   8  11
ATOM      9  O   UNL     1       2.752  -4.118   0.000  0.00  0.00    +0.000 OA
ATOM     10  N   UNL     1       3.461  -2.878   0.000  0.00  0.00    +0.000 N 
ATOM     11  C   ACE A   0       2.748  -3.293   0.000  0.00  0.00    +0.000 C 
ATOM     12  H   UNL     1       3.459  -2.366   0.000  0.00  0.00    +0.000 HD
BRANCH  10  13
ATOM     13  CA  UNL     1       4.178  -3.288   0.000  0.00  0.00    +0.000 C 
BRANCH  13  16
ATOM     14  O   UNL     1       5.606  -3.282   0.000  0.00  0.00    +0.000 OA
ATOM     15  OXT UNL     1       4.887  -2.047   0.000  0.00  0.00    +0.000 OA
ATOM     16  C   UNL     1       4.890  -2.872   0.000  0.00  0.00    +0.000 C 
ENDBRANCH  13  16
BRANCH  13  17
ATOM     17  CB  UNL     1       4.181  -4.112   0.000  0.00  0.00    +0.000 C 
BRANCH  17  18
ATOM     18  CG  UNL     1       4.897  -4.522   0.000  0.00  0.00    +0.000 C 
BRANCH  18  21
ATOM     19  OE1 UNL     1       5.616  -5.757   0.000  0.00  0.00    +0.000 OA
ATOM     20  OE2 UNL     1       4.187  -5.763   0.000  0.00  0.00    +0.000 OA
ATOM     21  CD  UNL     1       4.900  -5.347   0.000  0.00  0.00    +0.000 C 
ENDBRANCH  18  21
ENDBRANCH  17  18
ENDBRANCH  13  17
ENDBRANCH  10  13
ENDBRANCH   8  11
ENDBRANCH   2   3
BRANCH   2  22
ATOM     22  C   UNL     1       0.294  -0.938   0.000  0.00  0.00    +0.000 C 
BRANCH  22  23
ATOM     23  N   UNL     1      -0.121  -0.225   0.000  0.00  0.00    +0.000 NA
ATOM     24  H   UNL     1      -0.633  -0.227   0.000  0.00  0.00    +0.000 HD
BRANCH  23  25
ATOM     25  C   UNL     1       0.288   0.491   0.000  0.00  0.00    +0.000 C 
BRANCH  25  28
ATOM     26  O   UNL     1      -0.952   1.201   0.000  0.00  0.00    +0.000 OA
ATOM     27  N   UNL     1       0.283   1.920   0.000  0.00  0.00    +0.000 N 
ATOM     28  C   UNL     1      -0.127   1.204   0.000  0.00  0.00    +0.000 C 
ATOM     29  H   UNL     1       0.795   1.922   0.000  0.00  0.00    +0.000 HD
BRANCH  27  36
ATOM     30  O   UNL     1      -0.953   2.716   0.000  0.00  0.00    +0.000 OA
ATOM     31  O   UNL     1      -0.332   4.758   0.000  0.00  0.00    +0.000 OA
ATOM     32  O   UNL     1       1.007   3.562   0.000  0.00  0.00    +0.000 OA
ATOM     33  C   UNL     1      -0.415   3.937   0.000  0.00  0.00    +0.000 C 
ATOM     34  C   UNL     1       0.200   3.388   0.000  0.00  0.00    +0.000 C 
ATOM     35  C   UNL     1      -1.128   3.522   0.000  0.00  0.00    +0.000 C 
ATOM     36  C   UNL     1      -0.132   2.633   0.000  0.00  0.00    +0.000 C 
BRANCH  35  37
ATOM     37  C   UNL     1      -1.883   3.855   0.000  0.00  0.00    +0.000 C 
BRANCH  37  38
ATOM     38  O   UNL     1      -1.972   4.675   0.000  0.00  0.00    +0.000 OA
BRANCH  38  39
ATOM     39  P   UNL     1      -2.727   5.008   0.000  0.00  0.00    +0.000 P 
ATOM     40  O   UNL     1      -2.394   5.763   0.000  0.00  0.00    +0.000 OA
ATOM     41  O   UNL     1      -3.482   5.340   0.000  0.00  0.00    +0.000 OA
ATOM     42  O   UNL     1      -3.060   4.253   0.000  0.00  0.00    +0.000 OA
ENDBRANCH  38  39
ENDBRANCH  37  38
ENDBRANCH  35  37
ENDBRANCH  27  36
ENDBRANCH  25  28
ENDBRANCH  23  25
ENDBRANCH  22  23
ENDBRANCH   2  22
BRANCH   2  43
ATOM     43  C   UNL     1      -0.832  -1.244   0.000  0.00  0.00    +0.000 C 
BRANCH  43  48
ATOM     44  O   UNL     1      -3.744  -0.439   0.000  0.00  0.00    +0.000 OA
ATOM     45  N   UNL     1      -3.744  -2.914   0.000  0.00  0.00    +0.000 N 
ATOM     46  N   UNL     1      -4.458  -1.677   0.000  0.00  0.00    +0.000 NA
ATOM     47  N   UNL     1      -5.173  -2.914   0.000  0.00  0.00    +0.000 N 
ATOM     48  C   UNL     1      -1.545  -1.659   0.000  0.00  0.00    +0.000 A 
ATOM     49  C   UNL     1      -2.292  -1.236   0.000  0.00  0.00    +0.000 A 
ATOM     50  C   UNL     1      -1.545  -2.519   0.000  0.00  0.00    +0.000 A 
ATOM     51  C   UNL     1      -3.030  -1.677   0.000  0.00  0.00    +0.000 A 
ATOM     52  C   UNL     1      -3.030  -2.502   0.000  0.00  0.00    +0.000 A 
ATOM     53  C   UNL     1      -2.292  -2.943   0.000  0.00  0.00    +0.000 A 
ATOM     54  C   UNL     1      -3.744  -1.264   0.000  0.00  0.00    +0.000 A 
ATOM     55  C   UNL     1      -4.458  -2.502   0.000  0.00  0.00    +0.000 A 
ATOM     56  H   UNL     1      -3.744  -3.426   0.000  0.00  0.00    +0.000 HD
ATOM     57  H   UNL     1      -5.173  -3.426   0.000  0.00  0.00    +0.000 HD
ATOM     58  H   UNL     1      -5.616  -2.659   0.000  0.00  0.00    +0.000 HD
ENDBRANCH  43  48
ENDBRANCH   2  43
TORSDOF 17
