REMARK  Name = 
REMARK  8 active torsions:
REMARK  status: ('A' for Active; 'I' for Inactive)
REMARK    1  A    between atoms: C_11  and  C_12
REMARK    2  A    between atoms: C_11  and  C_15
REMARK    3  A    between atoms: C_12  and  CA_17
REMARK    4  A    between atoms: CA_14  and  C_20
REMARK    5  A    between atoms: CA_14  and  N_23
REMARK    6  A    between atoms: CA_17  and  C_21
REMARK    7  A    between atoms: CA_17  and  N_23
REMARK    8  A    between atoms: CA_19  and  C_22
REMARK                            x       y       z     vdW  Elec       q    Type
REMARK                         _______ _______ _______ _____ _____    ______ ____
ROOT
ATOM      1  CB  UNL     1       1.111  -1.766   0.000  0.00  0.00    +0.000 C 
ATOM      2  CA  UNL     1       1.111  -0.941   0.000  0.00  0.00    +0.000 C 
ENDROOT
BRANCH   2  11
ATOM      3  C   UNL     1       0.054   2.007   0.000  0.00  0.00    +0.000 C 
ATOM      4  C   UNL     1      -0.201   1.223   0.000  0.00  0.00    +0.000 C 
ATOM      5  C   UNL     1       0.861   2.179   0.000  0.00  0.00    +0.000 C 
ATOM      6  C   UNL     1       0.351   0.610   0.000  0.00  0.00    +0.000 C 
ATOM      7  C   UNL     1       2.238   1.566   0.000  0.00  0.00    +0.000 C 
ATOM      8  C   UNL     1       1.413   1.566   0.000  0.00  0.00    +0.000 C 
ATOM      9  C   UNL     1       1.158   0.781   0.000  0.00  0.00    +0.000 C 
ATOM     10  CA  UNL     1       2.493   0.781   0.000  0.00  0.00    +0.000 C 
ATOM     11  C   UNL     1       1.825  -0.529   0.000  0.00  0.00    +0.000 C 
ATOM     12  N   UNL     1       1.825   0.296   0.000  0.00  0.00    +0.000 N 
ATOM     13  O   UNL     1       2.540  -0.941   0.000  0.00  0.00    +0.000 OA
BRANCH  10  14
ATOM     14  C   UNL     1       3.277   0.526   0.000  0.00  0.00    +0.000 C 
ATOM     15  O   UNL     1       3.890   1.078   0.000  0.00  0.00    +0.000 OA
ATOM     16  OXT UNL     1       3.449  -0.281   0.000  0.00  0.00    +0.000 OA
ENDBRANCH  10  14
ENDBRANCH   2  11
BRANCH   2  17
ATOM     17  N   UNL     1       0.396  -0.529   0.000  0.00  0.00    +0.000 NA
BRANCH  17  18
ATOM     18  CA  UNL     1      -0.318  -0.941   0.000  0.00  0.00    +0.000 C 
BRANCH  18  19
ATOM     19  C   UNL     1      -0.318  -1.766   0.000  0.00  0.00    +0.000 C 
ATOM     20  O   UNL     1       0.396  -2.179   0.000  0.00  0.00    +0.000 OA
ATOM     21  OXT UNL     1      -1.032  -2.179   0.000  0.00  0.00    +0.000 OA
ENDBRANCH  18  19
BRANCH  18  22
ATOM     22  C   UNL     1      -1.032  -0.529   0.000  0.00  0.00    +0.000 C 
BRANCH  22  23
ATOM     23  C   UNL     1      -1.747  -0.941   0.000  0.00  0.00    +0.000 C 
BRANCH  23  29
ATOM     24  C   UNL     1      -3.890   0.296   0.000  0.00  0.00    +0.000 A 
ATOM     25  C   UNL     1      -3.890  -0.529   0.000  0.00  0.00    +0.000 A 
ATOM     26  C   UNL     1      -3.176   0.709   0.000  0.00  0.00    +0.000 A 
ATOM     27  C   UNL     1      -3.176  -0.941   0.000  0.00  0.00    +0.000 A 
ATOM     28  C   UNL     1      -2.462   0.296   0.000  0.00  0.00    +0.000 A 
ATOM     29  C   UNL     1      -2.462  -0.529   0.000  0.00  0.00    +0.000 A 
ENDBRANCH  23  29
ENDBRANCH  22  23
ENDBRANCH  18  22
ENDBRANCH  17  18
ENDBRANCH   2  17
TORSDOF 8
