REMARK  Name = 
REMARK  24 active torsions:
REMARK  status: ('A' for Active; 'I' for Inactive)
REMARK    1  A    between atoms: O_2  and  C_3
REMARK    2  A    between atoms: C_3  and  C_4
REMARK    3  A    between atoms: C_4  and  O_5
REMARK    4  A    between atoms: O_5  and  C_6
REMARK    5  A    between atoms: C_6  and  C_7
REMARK    6  A    between atoms: C_7  and  O_8
REMARK    7  A    between atoms: O_8  and  C_9
REMARK    8  A    between atoms: C_9  and  C_10
REMARK    9  A    between atoms: C_10  and  O_11
REMARK   10  A    between atoms: O_11  and  C_12
REMARK   11  A    between atoms: C_12  and  C_13
REMARK   12  A    between atoms: C_13  and  O_14
REMARK   13  A    between atoms: O_14  and  C_15
REMARK   14  A    between atoms: C_15  and  C_16
REMARK   15  A    between atoms: C_16  and  O_17
REMARK   16  A    between atoms: O_17  and  C_18
REMARK   17  A    between atoms: C_18  and  C_19
REMARK   18  A    between atoms: C_19  and  O_20
REMARK   19  A    between atoms: O_20  and  C_21
REMARK   20  A    between atoms: C_21  and  C_22
REMARK   21  A    between atoms: C_22  and  O_23
REMARK   22  A    between atoms: O_23  and  C_24
REMARK   23  A    between atoms: N_41  and  C_42
REMARK   24  A    between atoms: C_42  and  C_43
REMARK                            x       y       z     vdW  Elec       q    Type
REMARK                         _______ _______ _______ _____ _____    ______ ____
ROOT
ATOM      1  O   UNL     1      31.202   1.730   0.000  0.00  0.00    +0.000 OA
ENDROOT
BRANCH   1   2
ATOM      2  C   UNL     1      31.917   1.317   0.000  0.00  0.00    +0.000 C 
ATOM      3  C   UNL     1      32.620   1.739   0.000  0.00  0.00    +0.000 C 
ATOM      4  C   UNL     1      33.280   1.280   0.000  0.00  0.00    +0.000 C 
ATOM      5  C   UNL     1      33.222   0.296   0.000  0.00  0.00    +0.000 C 
ATOM      6  C   UNL     1      33.868  -0.444   0.000  0.00  0.00    +0.000 C 
ATOM      7  C   UNL     1      33.688  -1.242   0.000  0.00  0.00    +0.000 C 
ATOM      8  C   UNL     1      32.893  -1.379   0.000  0.00  0.00    +0.000 A 
ATOM      9  C   UNL     1      32.638  -2.168   0.000  0.00  0.00    +0.000 A 
ATOM     10  C   UNL     1      31.825  -2.314   0.000  0.00  0.00    +0.000 A 
ATOM     11  C   UNL     1      31.291  -1.670   0.000  0.00  0.00    +0.000 A 
ATOM     12  C   UNL     1      31.559  -0.859   0.000  0.00  0.00    +0.000 A 
ATOM     13  C   UNL     1      32.370  -0.734   0.000  0.00  0.00    +0.000 A 
ATOM     14  C   UNL     1      32.672   0.093   0.000  0.00  0.00    +0.000 C 
ATOM     15  C   UNL     1      31.902   0.476   0.000  0.00  0.00    +0.000 C 
ATOM     16  O   UNL     1      31.273  -0.071   0.000  0.00  0.00    +0.000 OA
ATOM     17  C   UNL     1      33.433   0.796   0.000  0.00  0.00    +0.000 C 
ATOM     18  C   UNL     1      34.330   0.751   0.000  0.00  0.00    +0.000 C 
ATOM     19  N   UNL     1      34.556  -0.034   0.000  0.00  0.00    +0.000 NA
ATOM     20  O   UNL     1      30.480  -1.822   0.000  0.00  0.00    +0.000 OA
ATOM     21  O   UNL     1      34.003   0.563   0.000  0.00  0.00    +0.000 OA
BRANCH  19  22
ATOM     22  C   UNL     1      35.323  -0.338   0.000  0.00  0.00    +0.000 C 
BRANCH  22  23
ATOM     23  C   UNL     1      35.970   0.175   0.000  0.00  0.00    +0.000 C 
ATOM     24  C   UNL     1      35.849   0.991   0.000  0.00  0.00    +0.000 C 
ENDBRANCH  22  23
ENDBRANCH  19  22
ENDBRANCH   1   2
BRANCH   1  25
ATOM     25  C   UNL     1      30.488   1.317   0.000  0.00  0.00    +0.000 C 
BRANCH  25  26
ATOM     26  C   UNL     1      29.773   1.730   0.000  0.00  0.00    +0.000 C 
BRANCH  26  27
ATOM     27  O   UNL     1      29.059   1.317   0.000  0.00  0.00    +0.000 OA
BRANCH  27  28
ATOM     28  C   UNL     1      28.345   1.730   0.000  0.00  0.00    +0.000 C 
BRANCH  28  29
ATOM     29  C   UNL     1      27.630   1.317   0.000  0.00  0.00    +0.000 C 
BRANCH  29  30
ATOM     30  O   UNL     1      26.916   1.730   0.000  0.00  0.00    +0.000 OA
BRANCH  30  31
ATOM     31  C   UNL     1      26.201   1.317   0.000  0.00  0.00    +0.000 C 
BRANCH  31  32
ATOM     32  C   UNL     1      25.487   1.730   0.000  0.00  0.00    +0.000 C 
BRANCH  32  33
ATOM     33  O   UNL     1      24.772   1.317   0.000  0.00  0.00    +0.000 OA
BRANCH  33  34
ATOM     34  C   UNL     1      24.058   1.730   0.000  0.00  0.00    +0.000 C 
BRANCH  34  35
ATOM     35  C   UNL     1      23.343   1.317   0.000  0.00  0.00    +0.000 C 
BRANCH  35  36
ATOM     36  O   UNL     1      22.629   1.730   0.000  0.00  0.00    +0.000 OA
BRANCH  36  37
ATOM     37  C   UNL     1      21.914   1.317   0.000  0.00  0.00    +0.000 C 
BRANCH  37  38
ATOM     38  C   UNL     1      21.200   1.730   0.000  0.00  0.00    +0.000 C 
BRANCH  38  39
ATOM     39  O   UNL     1      20.485   1.317   0.000  0.00  0.00    +0.000 OA
BRANCH  39  40
ATOM     40  C   UNL     1      19.771   1.730   0.000  0.00  0.00    +0.000 C 
BRANCH  40  41
ATOM     41  C   UNL     1      19.056   1.317   0.000  0.00  0.00    +0.000 C 
BRANCH  41  42
ATOM     42  O   UNL     1      18.342   1.730   0.000  0.00  0.00    +0.000 OA
BRANCH  42  43
ATOM     43  C   UNL     1      17.627   1.317   0.000  0.00  0.00    +0.000 C 
BRANCH  43  44
ATOM     44  C   UNL     1      16.913   1.730   0.000  0.00  0.00    +0.000 C 
BRANCH  44  46
ATOM     45  C   UNL     1      15.484   1.730   0.000  0.00  0.00    +0.000 C 
ATOM     46  O   UNL     1      16.198   1.317   0.000  0.00  0.00    +0.000 OA
ENDBRANCH  44  46
ENDBRANCH  43  44
ENDBRANCH  42  43
ENDBRANCH  41  42
ENDBRANCH  40  41
ENDBRANCH  39  40
ENDBRANCH  38  39
ENDBRANCH  37  38
ENDBRANCH  36  37
ENDBRANCH  35  36
ENDBRANCH  34  35
ENDBRANCH  33  34
ENDBRANCH  32  33
ENDBRANCH  31  32
ENDBRANCH  30  31
ENDBRANCH  29  30
ENDBRANCH  28  29
ENDBRANCH  27  28
ENDBRANCH  26  27
ENDBRANCH  25  26
ENDBRANCH   1  25
TORSDOF 24
