REMARK  Name = 
REMARK  12 active torsions:
REMARK  status: ('A' for Active; 'I' for Inactive)
REMARK    1  A    between atoms: O_2  and  C_25
REMARK    2  A    between atoms: O_2  and  C_27
REMARK    3  A    between atoms: O_3  and  C_22
REMARK    4  A    between atoms: O_3  and  C_29
REMARK    5  A    between atoms: O_8  and  C_35
REMARK    6  A    between atoms: O_8  and  C_44
REMARK    7  A    between atoms: N_19  and  C_23
REMARK    8  A    between atoms: N_20  and  C_30
REMARK    9  A    between atoms: N_21  and  C_32
REMARK   10  A    between atoms: C_26  and  C_37
REMARK   11  A    between atoms: C_31  and  C_38
REMARK   12  A    between atoms: C_36  and  C_39
REMARK                            x       y       z     vdW  Elec       q    Type
REMARK                         _______ _______ _______ _____ _____    ______ ____
ROOT
ATOM      1  O   UNL     1      -1.456   0.412   0.000  0.00  0.00    +0.000 OA
ATOM      2  O   UNL     1      -3.599  -0.825   0.000  0.00  0.00    +0.000 OA
ATOM      3  C   UNL     1      -2.885   0.412   0.000  0.00  0.00    +0.000 C 
ATOM      4  C   UNL     1      -2.171  -0.825   0.000  0.00  0.00    +0.000 C 
ATOM      5  C   UNL     1      -2.885  -0.412   0.000  0.00  0.00    +0.000 C 
ATOM      6  C   UNL     1      -1.456  -0.412   0.000  0.00  0.00    +0.000 C 
ATOM      7  C   UNL     1      -2.171   0.825   0.000  0.00  0.00    +0.000 C 
ENDROOT
BRANCH   4   9
ATOM      8  O   UNL     1      -0.742  -1.650   0.000  0.00  0.00    +0.000 OA
ATOM      9  N   UNL     1      -2.171  -1.650   0.000  0.00  0.00    +0.000 N 
ATOM     10  C   UNL     1      -1.456  -2.062   0.000  0.00  0.00    +0.000 C 
ATOM     11  C   UNL     1      -1.456  -2.888   0.000  0.00  0.00    +0.000 C 
ATOM     12  H   UNL     1      -2.614  -1.906   0.000  0.00  0.00    +0.000 HD
ENDBRANCH   4   9
BRANCH   7  14
ATOM     13  O   UNL     1      -2.885   2.062   0.000  0.00  0.00    +0.000 OA
ATOM     14  C   UNL     1      -2.171   1.650   0.000  0.00  0.00    +0.000 C 
ENDBRANCH   7  14
BRANCH   3  15
ATOM     15  O   UNL     1      -3.599   0.825   0.000  0.00  0.00    +0.000 OA
BRANCH  15  19
ATOM     16  O   UNL     1      -4.314  -0.412   0.000  0.00  0.00    +0.000 OA
ATOM     17  O   UNL     1      -6.457   0.825   0.000  0.00  0.00    +0.000 OA
ATOM     18  O   UNL     1      -6.457  -0.825   0.000  0.00  0.00    +0.000 OA
ATOM     19  C   UNL     1      -4.314   0.412   0.000  0.00  0.00    +0.000 C 
ATOM     20  C   UNL     1      -5.028   0.825   0.000  0.00  0.00    +0.000 C 
ATOM     21  C   UNL     1      -5.743   0.412   0.000  0.00  0.00    +0.000 C 
ATOM     22  C   UNL     1      -5.743  -0.412   0.000  0.00  0.00    +0.000 C 
ATOM     23  C   UNL     1      -5.028  -0.825   0.000  0.00  0.00    +0.000 C 
BRANCH  20  25
ATOM     24  O   UNL     1      -4.314   2.888   0.000  0.00  0.00    +0.000 OA
ATOM     25  N   UNL     1      -5.028   1.650   0.000  0.00  0.00    +0.000 N 
ATOM     26  C   UNL     1      -4.314   2.062   0.000  0.00  0.00    +0.000 C 
ATOM     27  C   UNL     1      -3.599   1.650   0.000  0.00  0.00    +0.000 C 
ATOM     28  H   UNL     1      -5.471   1.906   0.000  0.00  0.00    +0.000 HD
ENDBRANCH  20  25
BRANCH  23  30
ATOM     29  O   UNL     1      -4.314  -2.062   0.000  0.00  0.00    +0.000 OA
ATOM     30  C   UNL     1      -5.028  -1.650   0.000  0.00  0.00    +0.000 C 
ENDBRANCH  23  30
ENDBRANCH  15  19
ENDBRANCH   3  15
BRANCH   6  31
ATOM     31  O   UNL     1      -0.742  -0.825   0.000  0.00  0.00    +0.000 OA
BRANCH  31  34
ATOM     32  O   UNL     1       1.402  -0.412   0.000  0.00  0.00    +0.000 OA
ATOM     33  O   UNL     1      -0.742   0.825   0.000  0.00  0.00    +0.000 OA
ATOM     34  C   UNL     1      -0.027  -0.412   0.000  0.00  0.00    +0.000 C 
ATOM     35  C   UNL     1      -0.027   0.412   0.000  0.00  0.00    +0.000 C 
ATOM     36  C   UNL     1       0.687  -0.825   0.000  0.00  0.00    +0.000 C 
ATOM     37  C   UNL     1       0.687   0.825   0.000  0.00  0.00    +0.000 C 
ATOM     38  C   UNL     1       1.402   0.412   0.000  0.00  0.00    +0.000 C 
BRANCH  37  40
ATOM     39  O   UNL     1       2.116   1.650   0.000  0.00  0.00    +0.000 OA
ATOM     40  N   UNL     1       0.687   1.650   0.000  0.00  0.00    +0.000 N 
ATOM     41  C   UNL     1       1.402   2.062   0.000  0.00  0.00    +0.000 C 
ATOM     42  C   UNL     1       1.402   2.888   0.000  0.00  0.00    +0.000 C 
ATOM     43  H   UNL     1       0.244   1.906   0.000  0.00  0.00    +0.000 HD
ENDBRANCH  37  40
BRANCH  36  45
ATOM     44  O   UNL     1       1.402  -2.062   0.000  0.00  0.00    +0.000 OA
ATOM     45  C   UNL     1       0.687  -1.650   0.000  0.00  0.00    +0.000 C 
ENDBRANCH  36  45
BRANCH  38  46
ATOM     46  O   UNL     1       2.116   0.825   0.000  0.00  0.00    +0.000 OA
BRANCH  46  49
ATOM     47  O   UNL     1       4.997   0.854   0.000  0.00  0.00    +0.000 OA
ATOM     48  O   UNL     1       6.457   0.845   0.000  0.00  0.00    +0.000 OA
ATOM     49  C   UNL     1       2.831   0.412   0.000  0.00  0.00    +0.000 A 
ATOM     50  C   UNL     1       3.545   0.825   0.000  0.00  0.00    +0.000 A 
ATOM     51  C   UNL     1       2.831  -0.412   0.000  0.00  0.00    +0.000 A 
ATOM     52  C   UNL     1       4.260   0.412   0.000  0.00  0.00    +0.000 A 
ATOM     53  C   UNL     1       3.545  -0.825   0.000  0.00  0.00    +0.000 A 
ATOM     54  C   UNL     1       4.260  -0.412   0.000  0.00  0.00    +0.000 A 
ATOM     55  C   UNL     1       4.997  -0.854   0.000  0.00  0.00    +0.000 A 
ATOM     56  C   UNL     1       5.745  -0.430   0.000  0.00  0.00    +0.000 A 
ATOM     57  C   UNL     1       5.745   0.430   0.000  0.00  0.00    +0.000 A 
ATOM     58  C   UNL     1       4.987  -1.679   0.000  0.00  0.00    +0.000 C 
ENDBRANCH  46  49
ENDBRANCH  38  46
ENDBRANCH  31  34
ENDBRANCH   6  31
TORSDOF 12
