REMARK  Name = 
REMARK  8 active torsions:
REMARK  status: ('A' for Active; 'I' for Inactive)
REMARK    1  A    between atoms: C_2  and  N_4
REMARK    2  A    between atoms: C_12  and  C_15
REMARK    3  A    between atoms: N_17  and  C_18
REMARK    4  A    between atoms: N_25  and  C_26
REMARK    5  A    between atoms: C_26  and  C_27
REMARK    6  A    between atoms: C_27  and  C_28
REMARK    7  A    between atoms: C_28  and  N_29
REMARK    8  A    between atoms: N_29  and  S_31
REMARK                            x       y       z     vdW  Elec       q    Type
REMARK                         _______ _______ _______ _____ _____    ______ ____
ROOT
ATOM      1  C   UNL     1       7.024  -2.383   0.000  0.00  0.00    +0.000 C 
ATOM      2  C   UNL     1       6.666  -1.640   0.000  0.00  0.00    +0.000 C 
ATOM      3  C   UNL     1       5.861  -1.456   0.000  0.00  0.00    +0.000 C 
ATOM      4  C   UNL     1       5.216  -1.971   0.000  0.00  0.00    +0.000 C 
ATOM      5  C   UNL     1       5.216  -2.796   0.000  0.00  0.00    +0.000 C 
ATOM      6  C   UNL     1       5.861  -3.310   0.000  0.00  0.00    +0.000 C 
ATOM      7  C   UNL     1       6.666  -3.127   0.000  0.00  0.00    +0.000 C 
ATOM      8  N   UNL     1       5.630  -2.383   0.000  0.00  0.00    +0.000 NA
ENDROOT
BRANCH   1  11
ATOM      9  C   UNL     1       8.261  -1.669   0.000  0.00  0.00    +0.000 C 
ATOM     10  O   UNL     1       7.849  -0.954   0.000  0.00  0.00    +0.000 OA
ATOM     11  N   UNL     1       7.849  -2.383   0.000  0.00  0.00    +0.000 NA
BRANCH   9  20
ATOM     12  N   UNL     1      10.324  -0.954   0.000  0.00  0.00    +0.000 N 
ATOM     13  C   UNL     1      10.736  -1.669   0.000  0.00  0.00    +0.000 A 
ATOM     14  C   UNL     1      11.561  -1.669   0.000  0.00  0.00    +0.000 A 
ATOM     15  C   UNL     1      11.974  -2.383   0.000  0.00  0.00    +0.000 A 
ATOM     16  C   UNL     1      11.561  -3.098   0.000  0.00  0.00    +0.000 A 
ATOM     17  C   UNL     1      10.736  -3.098   0.000  0.00  0.00    +0.000 A 
ATOM     18  C   UNL     1      10.324  -2.383   0.000  0.00  0.00    +0.000 A 
ATOM     19  C   UNL     1       9.499  -2.383   0.000  0.00  0.00    +0.000 A 
ATOM     20  C   UNL     1       9.086  -1.669   0.000  0.00  0.00    +0.000 A 
ATOM     21  C   UNL     1       9.499  -0.954   0.000  0.00  0.00    +0.000 A 
ATOM     22  O   UNL     1       9.086  -0.240   0.000  0.00  0.00    +0.000 OA
BRANCH  12  24
ATOM     23  C   UNL     1      10.324   0.475   0.000  0.00  0.00    +0.000 C 
ATOM     24  C   UNL     1      10.736  -0.240   0.000  0.00  0.00    +0.000 C 
ATOM     25  C   UNL     1      11.561  -0.240   0.000  0.00  0.00    +0.000 C 
ENDBRANCH  12  24
ENDBRANCH   9  20
ENDBRANCH   1  11
BRANCH   8  26
ATOM     26  C   UNL     1       4.805  -2.383   0.000  0.00  0.00    +0.000 C 
BRANCH  26  27
ATOM     27  C   UNL     1       4.392  -3.098   0.000  0.00  0.00    +0.000 C 
ATOM     28  O   UNL     1       3.567  -3.098   0.000  0.00  0.00    +0.000 OA
BRANCH  27  29
ATOM     29  C   UNL     1       4.805  -3.812   0.000  0.00  0.00    +0.000 C 
BRANCH  29  30
ATOM     30  N   UNL     1       4.392  -4.527   0.000  0.00  0.00    +0.000 NA
ATOM     31  C   UNL     1       3.567  -4.527   0.000  0.00  0.00    +0.000 C 
BRANCH  30  32
ATOM     32  S   UNL     1       4.805  -5.241   0.000  0.00  0.00    +0.000 S 
ATOM     33  O   UNL     1       5.217  -5.956   0.000  0.00  0.00    +0.000 OA
ATOM     34  O   UNL     1       4.090  -5.654   0.000  0.00  0.00    +0.000 OA
ATOM     35  C   UNL     1       5.519  -4.829   0.000  0.00  0.00    +0.000 C 
ENDBRANCH  30  32
ENDBRANCH  29  30
ENDBRANCH  27  29
ENDBRANCH  26  27
ENDBRANCH   8  26
TORSDOF 8
