REMARK  Name = 
REMARK  2 active torsions:
REMARK  status: ('A' for Active; 'I' for Inactive)
REMARK    1  A    between atoms: C_6  and  N_33
REMARK    2  A    between atoms: C_9  and  C_12
REMARK                            x       y       z     vdW  Elec       q    Type
REMARK                         _______ _______ _______ _____ _____    ______ ____
ROOT
ATOM      1  C   UNL     1       2.510   0.806   0.000  0.00  0.00    +0.000 C 
ATOM      2  O   UNL     1       3.228   1.225   0.000  0.00  0.00    +0.000 OA
ATOM      3  C   UNL     1       3.051   2.037   0.000  0.00  0.00    +0.000 C 
ATOM      4  C   UNL     1       2.224   2.119   0.000  0.00  0.00    +0.000 C 
ATOM      5  C   UNL     1       1.890   1.358   0.000  0.00  0.00    +0.000 C 
ATOM      6  C   UNL     1       0.371   0.396   0.000  0.00  0.00    +0.000 C 
ATOM      7  C   UNL     1       1.084   0.809   0.000  0.00  0.00    +0.000 C 
ATOM      8  C   UNL     1       1.078  -0.843   0.000  0.00  0.00    +0.000 C 
ATOM      9  C   UNL     1       0.372  -0.430   0.000  0.00  0.00    +0.000 C 
ATOM     10  C   UNL     1       0.365  -2.062   0.000  0.00  0.00    +0.000 C 
ATOM     11  C   UNL     1       1.077  -1.658   0.000  0.00  0.00    +0.000 C 
ATOM     12  C   UNL     1      -0.341  -1.650   0.000  0.00  0.00    +0.000 C 
ATOM     13  C   UNL     1      -0.330  -0.834   0.000  0.00  0.00    +0.000 C 
ATOM     14  C   UNL     1      -1.028  -0.419   0.000  0.00  0.00    +0.000 C 
ATOM     15  C   UNL     1      -1.741  -0.816   0.000  0.00  0.00    +0.000 C 
ATOM     16  C   UNL     1      -1.751  -1.632   0.000  0.00  0.00    +0.000 C 
ATOM     17  C   UNL     1      -1.049  -2.051   0.000  0.00  0.00    +0.000 C 
ATOM     18  C   UNL     1       1.798   0.391   0.000  0.00  0.00    +0.000 C 
ATOM     19  C   UNL     1       1.793  -0.434   0.000  0.00  0.00    +0.000 C 
ATOM     20  C   UNL     1       3.218  -0.443   0.000  0.00  0.00    +0.000 C 
ATOM     21  C   UNL     1       3.223   0.383   0.000  0.00  0.00    +0.000 C 
ATOM     22  C   UNL     1       2.515  -0.023   0.000  0.00  0.00    +0.000 C 
ATOM     23  C   UNL     1       0.359  -2.892   0.000  0.00  0.00    +0.000 C 
ATOM     24  O   UNL     1      -2.473  -2.041   0.000  0.00  0.00    +0.000 OA
ENDROOT
BRANCH   6  28
ATOM     25  C   UNL     1      -1.782   1.642   0.000  0.00  0.00    +0.000 A 
ATOM     26  C   UNL     1      -1.783   0.809   0.000  0.00  0.00    +0.000 A 
ATOM     27  C   UNL     1      -1.063   0.394   0.000  0.00  0.00    +0.000 A 
ATOM     28  C   UNL     1      -0.342   0.810   0.000  0.00  0.00    +0.000 A 
ATOM     29  C   UNL     1      -0.345   1.646   0.000  0.00  0.00    +0.000 A 
ATOM     30  C   UNL     1      -1.065   2.058   0.000  0.00  0.00    +0.000 A 
BRANCH  25  31
ATOM     31  N   UNL     1      -2.506   2.062   0.000  0.00  0.00    +0.000 N 
ATOM     32  C   UNL     1      -3.228   1.651   0.000  0.00  0.00    +0.000 C 
ATOM     33  C   UNL     1      -2.510   2.892   0.000  0.00  0.00    +0.000 C 
ENDBRANCH  25  31
ENDBRANCH   6  28
TORSDOF 2
