REMARK  Name = 
REMARK  7 active torsions:
REMARK  status: ('A' for Active; 'I' for Inactive)
REMARK    1  A    between atoms: O_1  and  C_6
REMARK    2  A    between atoms: O_1  and  C_8
REMARK    3  A    between atoms: N_4  and  C_7
REMARK    4  A    between atoms: N_5  and  C_13
REMARK    5  A    between atoms: N_5  and  C_15
REMARK    6  A    between atoms: N_5  and  C_16
REMARK    7  A    between atoms: C_8  and  C_13
REMARK                            x       y       z     vdW  Elec       q    Type
REMARK                         _______ _______ _______ _____ _____    ______ ____
ROOT
ATOM      1  C   UNL     1       0.397  -0.417   0.000  0.00  0.00    +0.000 A 
ATOM      2  C   UNL     1       1.810   0.417   0.000  0.00  0.00    +0.000 A 
ATOM      3  C   UNL     1       1.103  -0.829   0.000  0.00  0.00    +0.000 A 
ATOM      4  C   UNL     1       0.397   0.417   0.000  0.00  0.00    +0.000 A 
ATOM      5  C   UNL     1       1.810  -0.417   0.000  0.00  0.00    +0.000 A 
ATOM      6  C   UNL     1       1.103   0.829   0.000  0.00  0.00    +0.000 A 
ENDROOT
BRANCH   2   8
ATOM      7  O   UNL     1       3.262  -0.417   0.000  0.00  0.00    +0.000 OA
ATOM      8  N   UNL     1       2.516   0.829   0.000  0.00  0.00    +0.000 NA
ATOM      9  C   UNL     1       3.262   0.417   0.000  0.00  0.00    +0.000 C 
ATOM     10  C   UNL     1       3.968   0.829   0.000  0.00  0.00    +0.000 C 
ENDBRANCH   2   8
BRANCH   1  11
ATOM     11  O   UNL     1      -0.357  -0.829   0.000  0.00  0.00    +0.000 OA
BRANCH  11  13
ATOM     12  O   UNL     1      -1.063   0.417   0.000  0.00  0.00    +0.000 OA
ATOM     13  C   UNL     1      -1.063  -0.417   0.000  0.00  0.00    +0.000 C 
BRANCH  13  14
ATOM     14  C   UNL     1      -1.810  -0.829   0.000  0.00  0.00    +0.000 C 
BRANCH  14  15
ATOM     15  N   UNL     1      -2.516  -0.417   0.000  0.00  0.00    +0.000 NA
BRANCH  15  16
ATOM     16  C   UNL     1      -2.516   0.417   0.000  0.00  0.00    +0.000 C 
ATOM     17  C   UNL     1      -3.230   0.829   0.000  0.00  0.00    +0.000 C 
ENDBRANCH  15  16
BRANCH  15  18
ATOM     18  C   UNL     1      -3.222  -0.829   0.000  0.00  0.00    +0.000 C 
ATOM     19  C   UNL     1      -3.968  -0.417   0.000  0.00  0.00    +0.000 C 
ENDBRANCH  15  18
ENDBRANCH  14  15
ENDBRANCH  13  14
ENDBRANCH  11  13
ENDBRANCH   1  11
TORSDOF 7
