REMARK  Name = 
REMARK  5 active torsions:
REMARK  status: ('A' for Active; 'I' for Inactive)
REMARK    1  A    between atoms: C_3  and  C_7
REMARK    2  A    between atoms: N_9  and  N_10
REMARK    3  A    between atoms: C_11  and  C_13
REMARK    4  A    between atoms: N_21  and  O_22
REMARK    5  A    between atoms: O_22  and  S_23
REMARK                            x       y       z     vdW  Elec       q    Type
REMARK                         _______ _______ _______ _____ _____    ______ ____
ROOT
ATOM      1  C   UNL     1       0.595  -1.951   0.000  0.00  0.00    +0.000 C 
ATOM      2  C   UNL     1       0.533  -2.774   0.000  0.00  0.00    +0.000 C 
ATOM      3  C   UNL     1       1.138  -3.335   0.000  0.00  0.00    +0.000 C 
ATOM      4  C   UNL     1       1.954  -3.212   0.000  0.00  0.00    +0.000 C 
ATOM      5  C   UNL     1       1.831  -2.264   0.000  0.00  0.00    +0.000 C 
ATOM      6  N   UNL     1       1.277  -1.486   0.000  0.00  0.00    +0.000 N 
ATOM      7  C   UNL     1       2.065  -1.730   0.000  0.00  0.00    +0.000 C 
ATOM      8  O   UNL     1       2.626  -1.125   0.000  0.00  0.00    +0.000 OA
ATOM      9  N   UNL     1       2.367  -2.498   0.000  0.00  0.00    +0.000 N 
ENDROOT
BRANCH   1  11
ATOM     10  N   UNL     1      -0.834  -1.951   0.000  0.00  0.00    +0.000 NA
ATOM     11  C   UNL     1      -0.119  -1.539   0.000  0.00  0.00    +0.000 C 
ATOM     12  O   UNL     1      -0.119  -0.714   0.000  0.00  0.00    +0.000 OA
BRANCH  10  15
ATOM     13  C   UNL     1      -2.263  -1.951   0.000  0.00  0.00    +0.000 C 
ATOM     14  O   UNL     1      -2.263  -2.776   0.000  0.00  0.00    +0.000 OA
ATOM     15  N   UNL     1      -1.548  -1.539   0.000  0.00  0.00    +0.000 NA
BRANCH  13  18
ATOM     16  C   UNL     1      -3.692  -0.301   0.000  0.00  0.00    +0.000 C 
ATOM     17  C   UNL     1      -2.977  -0.714   0.000  0.00  0.00    +0.000 C 
ATOM     18  C   UNL     1      -2.977  -1.539   0.000  0.00  0.00    +0.000 C 
ATOM     19  C   UNL     1      -3.692  -1.951   0.000  0.00  0.00    +0.000 C 
ATOM     20  N   UNL     1      -4.406  -1.539   0.000  0.00  0.00    +0.000 NA
ATOM     21  C   UNL     1      -4.406  -0.714   0.000  0.00  0.00    +0.000 C 
ENDBRANCH  13  18
ENDBRANCH  10  15
ENDBRANCH   1  11
BRANCH   9  22
ATOM     22  O   UNL     1       3.189  -2.559   0.000  0.00  0.00    +0.000 OA
BRANCH  22  23
ATOM     23  S   UNL     1       3.654  -1.877   0.000  0.00  0.00    +0.000 S 
ATOM     24  O   UNL     1       4.119  -1.196   0.000  0.00  0.00    +0.000 OA
ATOM     25  O   UNL     1       4.336  -2.342   0.000  0.00  0.00    +0.000 OA
ATOM     26  O   UNL     1       2.972  -1.413   0.000  0.00  0.00    +0.000 OA
ENDBRANCH  22  23
ENDBRANCH   9  22
TORSDOF 5
