REMARK  Name = 
REMARK  4 active torsions:
REMARK  status: ('A' for Active; 'I' for Inactive)
REMARK    1  A    between atoms: C_1  and  C_7
REMARK    2  A    between atoms: C_4  and  O_14
REMARK    3  A    between atoms: C_6  and  O_15
REMARK    4  A    between atoms: O_15  and  C_17
REMARK                            x       y       z     vdW  Elec       q    Type
REMARK                         _______ _______ _______ _____ _____    ______ ____
ROOT
ATOM      1  C   UNL     1       0.357   0.412   0.000  0.00  0.00    +0.000 A 
ATOM      2  C   UNL     1       0.357  -0.412   0.000  0.00  0.00    +0.000 A 
ATOM      3  C   UNL     1      -0.357   0.825   0.000  0.00  0.00    +0.000 A 
ATOM      4  C   UNL     1      -0.357  -0.825   0.000  0.00  0.00    +0.000 A 
ATOM      5  C   UNL     1      -1.072   0.412   0.000  0.00  0.00    +0.000 A 
ATOM      6  C   UNL     1      -1.072  -0.412   0.000  0.00  0.00    +0.000 A 
ENDROOT
BRANCH   1   7
ATOM      7  C   UNL     1       1.072   0.825   0.000  0.00  0.00    +0.000 A 
ATOM      8  N   UNL     1       1.072   1.650   0.000  0.00  0.00    +0.000 NA
ATOM      9  C   UNL     1       1.786   0.412   0.000  0.00  0.00    +0.000 A 
ATOM     10  N   UNL     1       1.786   2.063   0.000  0.00  0.00    +0.000 NA
ATOM     11  C   UNL     1       2.501   0.825   0.000  0.00  0.00    +0.000 A 
ATOM     12  C   UNL     1       2.501   1.650   0.000  0.00  0.00    +0.000 A 
ATOM     13  O   UNL     1       3.215   2.063   0.000  0.00  0.00    +0.000 OA
ENDBRANCH   1   7
BRANCH   4  14
ATOM     14  O   UNL     1      -0.357  -1.650   0.000  0.00  0.00    +0.000 OA
ATOM     15  C   UNL     1      -1.072  -2.063   0.000  0.00  0.00    +0.000 C 
ENDBRANCH   4  14
BRANCH   6  16
ATOM     16  O   UNL     1      -1.786  -0.825   0.000  0.00  0.00    +0.000 OA
BRANCH  16  17
ATOM     17  C   UNL     1      -2.501  -0.412   0.000  0.00  0.00    +0.000 C 
ATOM     18  F   UNL     1      -3.215  -0.825   0.000  0.00  0.00    +0.000 F 
ATOM     19  F   UNL     1      -2.501   0.412   0.000  0.00  0.00    +0.000 F 
ENDBRANCH  16  17
ENDBRANCH   6  16
TORSDOF 4
