REMARK  Name = 
REMARK  4 active torsions:
REMARK  status: ('A' for Active; 'I' for Inactive)
REMARK    1  A    between atoms: C_5  and  C_9
REMARK    2  A    between atoms: C_6  and  C_7
REMARK    3  A    between atoms: C_18  and  C_22
REMARK    4  A    between atoms: C_25  and  C_29
REMARK                            x       y       z     vdW  Elec       q    Type
REMARK                         _______ _______ _______ _____ _____    ______ ____
ROOT
ATOM      1  C   UNL     1       0.000   0.000   0.000  0.00  0.00    +0.000 A 
ATOM      2  C   UNL     1      -0.715  -0.412   0.000  0.00  0.00    +0.000 A 
ATOM      3  O   UNL     1      -1.429   0.000   0.000  0.00  0.00    +0.000 OA
ATOM      4  C   UNL     1      -0.715  -1.238   0.000  0.00  0.00    +0.000 A 
ATOM      5  C   UNL     1       0.000  -1.650   0.000  0.00  0.00    +0.000 A 
ATOM      6  O   UNL     1       0.000  -2.475   0.000  0.00  0.00    +0.000 OA
ATOM      7  C   UNL     1       0.715  -1.238   0.000  0.00  0.00    +0.000 A 
ATOM      8  C   UNL     1       0.715  -0.412   0.000  0.00  0.00    +0.000 A 
ATOM      9  O   UNL     1       1.429   0.000   0.000  0.00  0.00    +0.000 OA
ATOM     10  C   UNL     1       2.143  -0.412   0.000  0.00  0.00    +0.000 A 
ATOM     11  C   UNL     1       2.143  -1.238   0.000  0.00  0.00    +0.000 A 
ATOM     12  C   UNL     1       1.429  -1.650   0.000  0.00  0.00    +0.000 A 
ATOM     13  O   UNL     1       1.429  -2.475   0.000  0.00  0.00    +0.000 OA
ENDROOT
BRANCH  10  14
ATOM     14  C   UNL     1       2.858   0.000   0.000  0.00  0.00    +0.000 A 
ATOM     15  C   UNL     1       2.858   0.825   0.000  0.00  0.00    +0.000 A 
ATOM     16  C   UNL     1       3.572   1.238   0.000  0.00  0.00    +0.000 A 
ATOM     17  C   UNL     1       4.287   0.825   0.000  0.00  0.00    +0.000 A 
ATOM     18  C   UNL     1       4.287   0.000   0.000  0.00  0.00    +0.000 A 
ATOM     19  C   UNL     1       3.572  -0.412   0.000  0.00  0.00    +0.000 A 
ATOM     20 CL   UNL     1       3.572  -1.238   0.000  0.00  0.00    +0.000 Cl
BRANCH  17  21
ATOM     21  C   UNL     1       5.001   1.238   0.000  0.00  0.00    +0.000 C 
ATOM     22  F   UNL     1       5.716   1.650   0.000  0.00  0.00    +0.000 F 
ATOM     23  F   UNL     1       5.414   0.523   0.000  0.00  0.00    +0.000 F 
ATOM     24  F   UNL     1       4.589   1.952   0.000  0.00  0.00    +0.000 F 
ENDBRANCH  17  21
ENDBRANCH  10  14
BRANCH   1  29
ATOM     25  C   UNL     1      -0.897   2.762   0.000  0.00  0.00    +0.000 C 
ATOM     26  N   UNL     1      -0.412   2.095   0.000  0.00  0.00    +0.000 NA
ATOM     27  C   UNL     1       0.412   2.095   0.000  0.00  0.00    +0.000 C 
ATOM     28  C   UNL     1       0.667   1.310   0.000  0.00  0.00    +0.000 C 
ATOM     29  C   UNL     1       0.000   0.825   0.000  0.00  0.00    +0.000 C 
ATOM     30  C   UNL     1      -0.667   1.310   0.000  0.00  0.00    +0.000 C 
BRANCH  30  31
ATOM     31  C   UNL     1      -1.452   1.055   0.000  0.00  0.00    +0.000 C 
ATOM     32  O   UNL     1      -2.065   1.607   0.000  0.00  0.00    +0.000 OA
ENDBRANCH  30  31
ENDBRANCH   1  29
TORSDOF 4
