REMARK  Name = 
REMARK  6 active torsions:
REMARK  status: ('A' for Active; 'I' for Inactive)
REMARK    1  A    between atoms: C_25  and  O_30
REMARK    2  A    between atoms: O_30  and  C_31
REMARK    3  A    between atoms: C_31  and  C_32
REMARK    4  A    between atoms: C_32  and  C_33
REMARK    5  A    between atoms: C_33  and  C_34
REMARK    6  A    between atoms: C_34  and  C_35
REMARK                            x       y       z     vdW  Elec       q    Type
REMARK                         _______ _______ _______ _____ _____    ______ ____
ROOT
ATOM      1  C   UNL     1       0.979   0.997   0.000  0.00  0.00    +0.000 C 
ATOM      2  C   UNL     1       1.187   0.176   0.000  0.00  0.00    +0.000 C 
ATOM      3  C   UNL     1       1.971   0.431   0.000  0.00  0.00    +0.000 C 
ATOM      4  C   UNL     1       2.456  -0.236   0.000  0.00  0.00    +0.000 C 
ATOM      5  O   UNL     1       3.241   0.019   0.000  0.00  0.00    +0.000 OA
ATOM      6  C   UNL     1       3.241   0.844   0.000  0.00  0.00    +0.000 C 
ATOM      7  C   UNL     1       3.995   0.508   0.000  0.00  0.00    +0.000 C 
ATOM      8  C   UNL     1       4.662   0.993   0.000  0.00  0.00    +0.000 C 
ATOM      9  C   UNL     1       4.576   1.814   0.000  0.00  0.00    +0.000 C 
ATOM     10  C   UNL     1       5.243   2.299   0.000  0.00  0.00    +0.000 C 
ATOM     11  C   UNL     1       3.822   2.149   0.000  0.00  0.00    +0.000 C 
ATOM     12  O   UNL     1       3.155   1.664   0.000  0.00  0.00    +0.000 OA
ATOM     13  C   UNL     1       2.456   1.099   0.000  0.00  0.00    +0.000 C 
ATOM     14  C   UNL     1       2.201   1.883   0.000  0.00  0.00    +0.000 C 
ATOM     15  C   UNL     1       1.971  -0.903   0.000  0.00  0.00    +0.000 C 
ATOM     16  C   UNL     1       1.187  -0.649   0.000  0.00  0.00    +0.000 C 
ATOM     17  C   UNL     1       0.472  -1.061   0.000  0.00  0.00    +0.000 C 
ATOM     18  C   UNL     1      -0.242  -0.649   0.000  0.00  0.00    +0.000 C 
ATOM     19  C   UNL     1      -0.242   0.176   0.000  0.00  0.00    +0.000 C 
ATOM     20  C   UNL     1       0.472   0.589   0.000  0.00  0.00    +0.000 C 
ATOM     21  C   UNL     1      -0.957  -1.061   0.000  0.00  0.00    +0.000 C 
ATOM     22  C   UNL     1      -0.957  -0.236   0.000  0.00  0.00    +0.000 C 
ATOM     23  C   UNL     1      -1.671  -0.649   0.000  0.00  0.00    +0.000 C 
ATOM     24  C   UNL     1      -2.385  -1.061   0.000  0.00  0.00    +0.000 C 
ATOM     25  C   UNL     1      -2.385  -1.886   0.000  0.00  0.00    +0.000 C 
ATOM     26  C   UNL     1      -1.671  -2.299   0.000  0.00  0.00    +0.000 C 
ATOM     27  C   UNL     1      -0.957  -1.886   0.000  0.00  0.00    +0.000 C 
ATOM     28  C   UNL     1      -0.242  -2.299   0.000  0.00  0.00    +0.000 C 
ATOM     29  C   UNL     1       0.472  -1.886   0.000  0.00  0.00    +0.000 C 
ENDROOT
BRANCH  25  30
ATOM     30  O   UNL     1      -3.100  -2.299   0.000  0.00  0.00    +0.000 OA
BRANCH  30  31
ATOM     31  C   UNL     1      -3.814  -1.886   0.000  0.00  0.00    +0.000 C 
ATOM     32  O   UNL     1      -4.529  -2.299   0.000  0.00  0.00    +0.000 OA
BRANCH  31  33
ATOM     33  C   UNL     1      -3.814  -1.061   0.000  0.00  0.00    +0.000 C 
BRANCH  33  34
ATOM     34  C   UNL     1      -4.529  -0.649   0.000  0.00  0.00    +0.000 C 
BRANCH  34  35
ATOM     35  C   UNL     1      -4.529   0.176   0.000  0.00  0.00    +0.000 C 
BRANCH  35  36
ATOM     36  C   UNL     1      -5.243   0.589   0.000  0.00  0.00    +0.000 C 
ATOM     37  C   UNL     1      -5.243   1.414   0.000  0.00  0.00    +0.000 C 
ENDBRANCH  35  36
ENDBRANCH  34  35
ENDBRANCH  33  34
ENDBRANCH  31  33
ENDBRANCH  30  31
ENDBRANCH  25  30
TORSDOF 6
