REMARK  Name = 
REMARK  6 active torsions:
REMARK  status: ('A' for Active; 'I' for Inactive)
REMARK    1  A    between atoms: N_9  and  C_13
REMARK    2  A    between atoms: C_11  and  C_12
REMARK    3  A    between atoms: C_13  and  C_21
REMARK    4  A    between atoms: C_14  and  C_22
REMARK    5  A    between atoms: C_15  and  C_23
REMARK    6  A    between atoms: C_21  and  C_24
REMARK                            x       y       z     vdW  Elec       q    Type
REMARK                         _______ _______ _______ _____ _____    ______ ____
ROOT
ATOM      1  C   UNL     1       0.000  -1.493   0.000  0.00  0.00    +0.000 A 
ATOM      2  C   UNL     1      -0.715  -2.731   0.000  0.00  0.00    +0.000 A 
ATOM      3  C   UNL     1       0.714  -2.731   0.000  0.00  0.00    +0.000 A 
ATOM      4  C   UNL     1       0.714  -1.906   0.000  0.00  0.00    +0.000 A 
ATOM      5  C   UNL     1      -0.715  -1.906   0.000  0.00  0.00    +0.000 A 
ATOM      6  C   UNL     1       0.000  -3.143   0.000  0.00  0.00    +0.000 A 
ENDROOT
BRANCH   1   9
ATOM      7  N   UNL     1      -0.412   0.602   0.000  0.00  0.00    +0.000 N 
ATOM      8  N   UNL     1      -0.667  -0.183   0.000  0.00  0.00    +0.000 NA
ATOM      9  C   UNL     1       0.000  -0.668   0.000  0.00  0.00    +0.000 A 
ATOM     10  C   UNL     1       0.667  -0.183   0.000  0.00  0.00    +0.000 A 
ATOM     11  C   UNL     1       0.412   0.602   0.000  0.00  0.00    +0.000 A 
BRANCH   7  12
ATOM     12  C   UNL     1      -0.897   1.269   0.000  0.00  0.00    +0.000 C 
BRANCH  12  13
ATOM     13  C   UNL     1      -0.562   2.023   0.000  0.00  0.00    +0.000 C 
BRANCH  13  16
ATOM     14  O   UNL     1      -0.711   3.444   0.000  0.00  0.00    +0.000 OA
ATOM     15  O   UNL     1      -1.867   2.604   0.000  0.00  0.00    +0.000 OA
ATOM     16  C   UNL     1      -1.047   2.690   0.000  0.00  0.00    +0.000 C 
ENDBRANCH  13  16
ENDBRANCH  12  13
ENDBRANCH   7  12
ENDBRANCH   1   9
BRANCH   2  20
ATOM     17  F   UNL     1      -2.143  -3.556   0.000  0.00  0.00    +0.000 F 
ATOM     18  F   UNL     1      -1.016  -3.858   0.000  0.00  0.00    +0.000 F 
ATOM     19  F   UNL     1      -1.841  -2.429   0.000  0.00  0.00    +0.000 F 
ATOM     20  C   UNL     1      -1.429  -3.143   0.000  0.00  0.00    +0.000 C 
ENDBRANCH   2  20
BRANCH   3  24
ATOM     21  F   UNL     1       2.143  -3.556   0.000  0.00  0.00    +0.000 F 
ATOM     22  F   UNL     1       1.016  -3.858   0.000  0.00  0.00    +0.000 F 
ATOM     23  F   UNL     1       1.841  -2.429   0.000  0.00  0.00    +0.000 F 
ATOM     24  C   UNL     1       1.429  -3.143   0.000  0.00  0.00    +0.000 C 
ENDBRANCH   3  24
TORSDOF 6
