REMARK  Name = 
REMARK  5 active torsions:
REMARK  status: ('A' for Active; 'I' for Inactive)
REMARK    1  A    between atoms: C_1  and  C_2
REMARK    2  A    between atoms: C_3  and  O_10
REMARK    3  A    between atoms: C_5  and  N_12
REMARK    4  A    between atoms: C_19  and  C_28
REMARK    5  A    between atoms: C_33  and  O_34
REMARK                            x       y       z     vdW  Elec       q    Type
REMARK                         _______ _______ _______ _____ _____    ______ ____
ROOT
ATOM      1  N   UNL     1       1.427  -0.279   0.000  0.00  0.00    +0.000 NA
ATOM      2  N   UNL     1      -2.166   1.289   0.000  0.00  0.00    +0.000 NA
ATOM      3  C   UNL     1      -1.362   1.472   0.000  0.00  0.00    +0.000 C 
ATOM      4  C   UNL     1      -0.717   0.958   0.000  0.00  0.00    +0.000 A 
ATOM      5  C   UNL     1      -0.717   0.133   0.000  0.00  0.00    +0.000 A 
ATOM      6  C   UNL     1      -1.362  -0.381   0.000  0.00  0.00    +0.000 A 
ATOM      7  C   UNL     1      -2.166  -0.198   0.000  0.00  0.00    +0.000 A 
ATOM      8  C   UNL     1      -2.524   0.546   0.000  0.00  0.00    +0.000 C 
ATOM      9  C   UNL     1      -2.727  -0.802   0.000  0.00  0.00    +0.000 A 
ATOM     10  C   UNL     1      -2.484  -1.591   0.000  0.00  0.00    +0.000 A 
ATOM     11  C   UNL     1      -1.680  -1.774   0.000  0.00  0.00    +0.000 A 
ATOM     12  C   UNL     1      -1.119  -1.170   0.000  0.00  0.00    +0.000 A 
ATOM     13  C   UNL     1       0.712   0.133   0.000  0.00  0.00    +0.000 A 
ATOM     14  N   UNL     1      -0.002  -0.279   0.000  0.00  0.00    +0.000 NA
ATOM     15  C   UNL     1      -0.002   1.371   0.000  0.00  0.00    +0.000 A 
ATOM     16  N   UNL     1       0.712   0.958   0.000  0.00  0.00    +0.000 NA
ATOM     17 CL   UNL     1      -3.045  -2.196   0.000  0.00  0.00    +0.000 Cl
ENDROOT
BRANCH   8  18
ATOM     18  C   UNL     1      -3.349   0.546   0.000  0.00  0.00    +0.000 A 
ATOM     19  C   UNL     1      -3.761  -0.169   0.000  0.00  0.00    +0.000 A 
ATOM     20  C   UNL     1      -4.587  -0.169   0.000  0.00  0.00    +0.000 A 
ATOM     21  C   UNL     1      -4.999   0.546   0.000  0.00  0.00    +0.000 A 
ATOM     22  C   UNL     1      -4.587   1.260   0.000  0.00  0.00    +0.000 A 
ATOM     23  C   UNL     1      -3.761   1.260   0.000  0.00  0.00    +0.000 A 
ATOM     24  F   UNL     1      -3.349  -0.883   0.000  0.00  0.00    +0.000 F 
BRANCH  23  25
ATOM     25  O   UNL     1      -3.349   1.974   0.000  0.00  0.00    +0.000 OA
ATOM     26  C   UNL     1      -2.524   1.974   0.000  0.00  0.00    +0.000 C 
ENDBRANCH  23  25
ENDBRANCH   8  18
BRANCH   1  30
ATOM     27  C   UNL     1       3.570   0.958   0.000  0.00  0.00    +0.000 A 
ATOM     28  C   UNL     1       3.570   0.133   0.000  0.00  0.00    +0.000 A 
ATOM     29  C   UNL     1       2.856  -0.279   0.000  0.00  0.00    +0.000 A 
ATOM     30  C   UNL     1       2.141   0.133   0.000  0.00  0.00    +0.000 A 
ATOM     31  C   UNL     1       2.141   0.958   0.000  0.00  0.00    +0.000 A 
ATOM     32  C   UNL     1       2.856   1.371   0.000  0.00  0.00    +0.000 A 
BRANCH  27  33
ATOM     33  C   UNL     1       4.285   1.371   0.000  0.00  0.00    +0.000 C 
ATOM     34  O   UNL     1       4.285   2.196   0.000  0.00  0.00    +0.000 OA
ATOM     35  O   UNL     1       4.999   0.958   0.000  0.00  0.00    +0.000 OA
ENDBRANCH  27  33
BRANCH  28  36
ATOM     36  O   UNL     1       4.285  -0.279   0.000  0.00  0.00    +0.000 OA
ATOM     37  C   UNL     1       4.285  -1.104   0.000  0.00  0.00    +0.000 C 
ENDBRANCH  28  36
ENDBRANCH   1  30
TORSDOF 5
