REMARK  Name = 
REMARK  0 active torsions:
REMARK  status: ('A' for Active; 'I' for Inactive)
REMARK                            x       y       z     vdW  Elec       q    Type
REMARK                         _______ _______ _______ _____ _____    ______ ____
ROOT
ATOM      1  C   UNL     1       0.361  -0.827   0.000  0.00  0.00    +0.000 A 
ATOM      2  C   UNL     1      -0.359  -0.426   0.000  0.00  0.00    +0.000 A 
ATOM      3  C   UNL     1      -0.359   0.399   0.000  0.00  0.00    +0.000 A 
ATOM      4  C   UNL     1       0.361   0.823   0.000  0.00  0.00    +0.000 A 
ATOM      5  C   UNL     1       1.083  -0.403   0.000  0.00  0.00    +0.000 A 
ATOM      6  C   UNL     1       1.083   0.422   0.000  0.00  0.00    +0.000 A 
ATOM      7  N   UNL     1       0.359  -1.648   0.000  0.00  0.00    +0.000 NA
ATOM      8  O   UNL     1       0.361   1.648   0.000  0.00  0.00    +0.000 OA
ATOM      9  C   UNL     1      -1.081  -0.850   0.000  0.00  0.00    +0.000 A 
ATOM     10  C   UNL     1       1.802  -0.800   0.000  0.00  0.00    +0.000 C 
ATOM     11  C   UNL     1      -1.081   0.800   0.000  0.00  0.00    +0.000 A 
ATOM     12  C   UNL     1      -1.798  -0.447   0.000  0.00  0.00    +0.000 A 
ATOM     13  C   UNL     1      -1.802   0.376   0.000  0.00  0.00    +0.000 A 
ENDROOT
TORSDOF 0
