REMARK  Name = 
REMARK  2 active torsions:
REMARK  status: ('A' for Active; 'I' for Inactive)
REMARK    1  A    between atoms: C_10  and  C_11
REMARK    2  A    between atoms: C_12  and  N_13
REMARK                            x       y       z     vdW  Elec       q    Type
REMARK                         _______ _______ _______ _____ _____    ______ ____
ROOT
ATOM      1  C   UNL     1      -0.715   3.712   0.000  0.00  0.00    +0.000 A 
ATOM      2  C   UNL     1      -2.143   3.712   0.000  0.00  0.00    +0.000 A 
ATOM      3  C   UNL     1      -0.715   4.537   0.000  0.00  0.00    +0.000 A 
ATOM      4  C   UNL     1      -2.143   4.537   0.000  0.00  0.00    +0.000 A 
ATOM      5  C   UNL     1      -1.429   3.300   0.000  0.00  0.00    +0.000 A 
ATOM      6  C   UNL     1      -1.429   4.950   0.000  0.00  0.00    +0.000 A 
ENDROOT
BRANCH   5  12
ATOM      7  C   UNL     1      -1.429   0.825   0.000  0.00  0.00    +0.000 A 
ATOM      8  C   UNL     1      -0.715   1.238   0.000  0.00  0.00    +0.000 A 
ATOM      9  C   UNL     1      -2.143   1.238   0.000  0.00  0.00    +0.000 A 
ATOM     10  C   UNL     1      -0.715   2.062   0.000  0.00  0.00    +0.000 A 
ATOM     11  C   UNL     1      -2.143   2.062   0.000  0.00  0.00    +0.000 A 
ATOM     12  C   UNL     1      -1.429   2.475   0.000  0.00  0.00    +0.000 A 
ENDBRANCH   5  12
BRANCH   6  13
ATOM     13  N   UNL     1      -1.429   5.775   0.000  0.00  0.00    +0.000 N 
ATOM     14  O   UNL     1      -2.143   6.188   0.000  0.00  0.00    +0.000 OA
ATOM     15  O   UNL     1      -0.715   6.188   0.000  0.00  0.00    +0.000 OA
ENDBRANCH   6  13
TORSDOF 2
