REMARK  Name = 
REMARK  9 active torsions:
REMARK  status: ('A' for Active; 'I' for Inactive)
REMARK    1  A    between atoms: C_2  and  C_4
REMARK    2  A    between atoms: C_4  and  C_5
REMARK    3  A    between atoms: C_5  and  O_7
REMARK    4  A    between atoms: O_7  and  C_8
REMARK    5  A    between atoms: C_8  and  C_9
REMARK    6  A    between atoms: C_9  and  C_10
REMARK    7  A    between atoms: C_10  and  C_11
REMARK    8  A    between atoms: C_10  and  C_23
REMARK    9  A    between atoms: C_11  and  N_12
REMARK                            x       y       z     vdW  Elec       q    Type
REMARK                         _______ _______ _______ _____ _____    ______ ____
ROOT
ATOM      1  C   UNL     1      -1.986  -0.926   0.000  0.00  0.00    +0.000 C 
ENDROOT
BRANCH   1   2
ATOM      2  C   UNL     1      -1.716  -1.705   0.000  0.00  0.00    +0.000 C 
ATOM      3  O   UNL     1      -2.256  -2.329   0.000  0.00  0.00    +0.000 OA
ENDBRANCH   1   2
BRANCH   1   4
ATOM      4  C   UNL     1      -1.446  -0.302   0.000  0.00  0.00    +0.000 C 
BRANCH   4   5
ATOM      5  N   UNL     1      -0.636  -0.458   0.000  0.00  0.00    +0.000 N 
ATOM      6  C   UNL     1      -0.286  -1.205   0.000  0.00  0.00    +0.000 A 
ATOM      7  N   UNL     1       0.532  -1.103   0.000  0.00  0.00    +0.000 NA
ATOM      8  C   UNL     1       0.688  -0.293   0.000  0.00  0.00    +0.000 A 
ATOM      9  C   UNL     1      -0.034   0.106   0.000  0.00  0.00    +0.000 A 
ATOM     10  N   UNL     1      -0.050   0.931   0.000  0.00  0.00    +0.000 NA
ATOM     11  C   UNL     1       0.656   1.357   0.000  0.00  0.00    +0.000 A 
ATOM     12  N   UNL     1       1.379   0.958   0.000  0.00  0.00    +0.000 NA
ATOM     13  C   UNL     1       1.395   0.133   0.000  0.00  0.00    +0.000 A 
ATOM     14  O   UNL     1       2.117  -0.265   0.000  0.00  0.00    +0.000 OA
ATOM     15  N   UNL     1       0.640   2.182   0.000  0.00  0.00    +0.000 NA
ENDBRANCH   4   5
ENDBRANCH   1   4
BRANCH   1  16
ATOM     16  C   UNL     1      -2.797  -0.770   0.000  0.00  0.00    +0.000 C 
BRANCH  16  17
ATOM     17  C   UNL     1      -3.337  -1.393   0.000  0.00  0.00    +0.000 C 
BRANCH  17  18
ATOM     18  O   UNL     1      -4.147  -1.238   0.000  0.00  0.00    +0.000 OA
BRANCH  18  19
ATOM     19  C   UNL     1      -4.687  -1.861   0.000  0.00  0.00    +0.000 C 
ATOM     20  O   UNL     1      -4.417  -2.641   0.000  0.00  0.00    +0.000 OA
BRANCH  19  21
ATOM     21  C   UNL     1      -5.497  -1.705   0.000  0.00  0.00    +0.000 C 
ATOM     22  N   UNL     1      -5.767  -0.926   0.000  0.00  0.00    +0.000 NA
BRANCH  21  24
ATOM     23  C   UNL     1      -6.847  -2.173   0.000  0.00  0.00    +0.000 C 
ATOM     24  C   UNL     1      -6.037  -2.329   0.000  0.00  0.00    +0.000 C 
ATOM     25  C   UNL     1      -5.767  -3.108   0.000  0.00  0.00    +0.000 C 
ENDBRANCH  21  24
ENDBRANCH  19  21
ENDBRANCH  18  19
ENDBRANCH  17  18
ENDBRANCH  16  17
ENDBRANCH   1  16
TORSDOF 9
