REMARK  Name = 
REMARK  13 active torsions:
REMARK  status: ('A' for Active; 'I' for Inactive)
REMARK    1  A    between atoms: O_3  and  C_19
REMARK    2  A    between atoms: O_3  and  C_22
REMARK    3  A    between atoms: N_6  and  C_12
REMARK    4  A    between atoms: N_7  and  C_16
REMARK    5  A    between atoms: N_8  and  C_14
REMARK    6  A    between atoms: N_8  and  C_17
REMARK    7  A    between atoms: C_11  and  C_12
REMARK    8  A    between atoms: C_11  and  C_13
REMARK    9  A    between atoms: C_12  and  C_15
REMARK   10  A    between atoms: C_13  and  C_14
REMARK   11  A    between atoms: C_16  and  C_20
REMARK   12  A    between atoms: C_20  and  C_21
REMARK   13  A    between atoms: C_22  and  C_23
REMARK                            x       y       z     vdW  Elec       q    Type
REMARK                         _______ _______ _______ _____ _____    ______ ____
ROOT
ATOM      1  C   UNL     1       0.327   0.747   0.000  0.00  0.00    +0.000 C 
ENDROOT
BRANCH   1   4
ATOM      2  O   UNL     1       1.756   0.747   0.000  0.00  0.00    +0.000 OA
ATOM      3  N   UNL     1       1.041   1.984   0.000  0.00  0.00    +0.000 NA
ATOM      4  C   UNL     1       1.041   1.159   0.000  0.00  0.00    +0.000 C 
BRANCH   3   5
ATOM      5  C   UNL     1       1.756   2.397   0.000  0.00  0.00    +0.000 C 
ATOM      6  C   UNL     1       2.470   1.984   0.000  0.00  0.00    +0.000 C 
BRANCH   5   8
ATOM      7  O   UNL     1       1.041   3.634   0.000  0.00  0.00    +0.000 OA
ATOM      8  C   UNL     1       1.756   3.222   0.000  0.00  0.00    +0.000 C 
BRANCH   8  10
ATOM      9  F   UNL     1       2.470   4.459   0.000  0.00  0.00    +0.000 F 
ATOM     10  C   UNL     1       2.470   3.634   0.000  0.00  0.00    +0.000 C 
ENDBRANCH   8  10
ENDBRANCH   5   8
ENDBRANCH   3   5
ENDBRANCH   1   4
BRANCH   1  12
ATOM     11  O   UNL     1      -1.102  -0.078   0.000  0.00  0.00    +0.000 OA
ATOM     12  N   UNL     1       0.327  -0.078   0.000  0.00  0.00    +0.000 NA
ATOM     13  C   UNL     1      -0.388  -0.491   0.000  0.00  0.00    +0.000 C 
BRANCH  13  14
ATOM     14  O   UNL     1      -0.388  -1.316   0.000  0.00  0.00    +0.000 OA
BRANCH  14  15
ATOM     15  C   UNL     1      -1.102  -1.728   0.000  0.00  0.00    +0.000 C 
BRANCH  15  16
ATOM     16  C   UNL     1      -1.102  -2.553   0.000  0.00  0.00    +0.000 A 
ATOM     17  C   UNL     1      -1.817  -2.966   0.000  0.00  0.00    +0.000 A 
ATOM     18  C   UNL     1      -0.388  -2.966   0.000  0.00  0.00    +0.000 A 
ATOM     19  C   UNL     1      -1.817  -3.791   0.000  0.00  0.00    +0.000 A 
ATOM     20  C   UNL     1      -0.388  -3.791   0.000  0.00  0.00    +0.000 A 
ATOM     21  C   UNL     1      -1.102  -4.203   0.000  0.00  0.00    +0.000 A 
ENDBRANCH  15  16
ENDBRANCH  14  15
ENDBRANCH  13  14
ENDBRANCH   1  12
BRANCH   1  22
ATOM     22  C   UNL     1      -0.388   1.159   0.000  0.00  0.00    +0.000 C 
BRANCH  22  23
ATOM     23  C   UNL     1      -0.388   1.984   0.000  0.00  0.00    +0.000 C 
BRANCH  23  24
ATOM     24  C   UNL     1      -1.102   2.397   0.000  0.00  0.00    +0.000 C 
BRANCH  24  25
ATOM     25  N   UNL     1      -1.102   3.222   0.000  0.00  0.00    +0.000 NA
BRANCH  25  28
ATOM     26  N   UNL     1      -1.817   4.459   0.000  0.00  0.00    +0.000 NA
ATOM     27  N   UNL     1      -2.531   3.222   0.000  0.00  0.00    +0.000 NA
ATOM     28  C   UNL     1      -1.817   3.634   0.000  0.00  0.00    +0.000 C 
ENDBRANCH  25  28
ENDBRANCH  24  25
ENDBRANCH  23  24
ENDBRANCH  22  23
ENDBRANCH   1  22
TORSDOF 13
