REMARK  Name = 
REMARK  2 active torsions:
REMARK  status: ('A' for Active; 'I' for Inactive)
REMARK    1  A    between atoms: C_4  and  C_7
REMARK    2  A    between atoms: C_8  and  C_10
REMARK                            x       y       z     vdW  Elec       q    Type
REMARK                         _______ _______ _______ _____ _____    ______ ____
ROOT
ATOM      1  C   UNL     1       5.775  -6.231   0.000  0.00  0.00    +0.000 C 
ATOM      2  C   UNL     1       6.596  -6.144   0.000  0.00  0.00    +0.000 C 
ATOM      3  C   UNL     1       6.931  -5.391   0.000  0.00  0.00    +0.000 C 
ATOM      4  C   UNL     1       7.752  -5.304   0.000  0.00  0.00    +0.000 C 
ATOM      5  C   UNL     1       8.237  -5.972   0.000  0.00  0.00    +0.000 C 
ATOM      6  C   UNL     1       9.057  -5.886   0.000  0.00  0.00    +0.000 C 
ATOM      7  C   UNL     1       9.542  -6.553   0.000  0.00  0.00    +0.000 C 
ATOM      8  C   UNL     1       9.207  -7.307   0.000  0.00  0.00    +0.000 C 
ATOM      9  C   UNL     1       8.386  -7.393   0.000  0.00  0.00    +0.000 C 
ATOM     10  C   UNL     1       8.050  -8.147   0.000  0.00  0.00    +0.000 C 
ATOM     11  C   UNL     1       7.230  -8.233   0.000  0.00  0.00    +0.000 C 
ATOM     12  O   UNL     1       6.745  -7.566   0.000  0.00  0.00    +0.000 OA
ATOM     13  C   UNL     1       6.894  -8.987   0.000  0.00  0.00    +0.000 C 
ATOM     14  C   UNL     1       6.074  -9.073   0.000  0.00  0.00    +0.000 C 
ATOM     15  C   UNL     1       5.589  -8.405   0.000  0.00  0.00    +0.000 C 
ATOM     16  C   UNL     1       5.925  -7.652   0.000  0.00  0.00    +0.000 C 
ATOM     17  O   UNL     1       6.538  -7.100   0.000  0.00  0.00    +0.000 OA
ATOM     18  O   UNL     1       5.440  -6.984   0.000  0.00  0.00    +0.000 OA
ATOM     19  O   UNL     1       5.738  -9.827   0.000  0.00  0.00    +0.000 OA
ATOM     20  C   UNL     1       7.636  -9.348   0.000  0.00  0.00    +0.000 C 
ATOM     21  C   UNL     1       7.009  -9.804   0.000  0.00  0.00    +0.000 C 
ATOM     22  C   UNL     1       8.535  -8.814   0.000  0.00  0.00    +0.000 C 
ATOM     23  O   UNL     1       8.871  -8.060   0.000  0.00  0.00    +0.000 OA
ATOM     24  C   UNL     1       9.691  -7.974   0.000  0.00  0.00    +0.000 C 
ATOM     25  C   UNL     1       8.087  -4.551   0.000  0.00  0.00    +0.000 C 
ENDROOT
BRANCH   1  27
ATOM     26  C   UNL     1       4.470  -5.649   0.000  0.00  0.00    +0.000 C 
ATOM     27  C   UNL     1       5.290  -5.563   0.000  0.00  0.00    +0.000 C 
ATOM     28  C   UNL     1       5.626  -4.810   0.000  0.00  0.00    +0.000 C 
BRANCH  26  32
ATOM     29  C   UNL     1       3.572  -2.888   0.000  0.00  0.00    +0.000 C 
ATOM     30  C   UNL     1       3.572  -3.712   0.000  0.00  0.00    +0.000 A 
ATOM     31  C   UNL     1       4.240  -4.197   0.000  0.00  0.00    +0.000 A 
ATOM     32  C   UNL     1       3.985  -4.982   0.000  0.00  0.00    +0.000 A 
ATOM     33  N   UNL     1       3.160  -4.982   0.000  0.00  0.00    +0.000 NA
ATOM     34  O   UNL     1       2.905  -4.197   0.000  0.00  0.00    +0.000 OA
ENDBRANCH  26  32
ENDBRANCH   1  27
TORSDOF 2
