REMARK  Name = 
REMARK  7 active torsions:
REMARK  status: ('A' for Active; 'I' for Inactive)
REMARK    1  A    between atoms: C_10  and  C_11
REMARK    2  A    between atoms: C_11  and  N_12
REMARK    3  A    between atoms: N_12  and  C_13
REMARK    4  A    between atoms: C_14  and  C_18
REMARK    5  A    between atoms: N_20  and  C_21
REMARK    6  A    between atoms: C_24  and  O_27
REMARK    7  A    between atoms: O_27  and  C_28
REMARK                            x       y       z     vdW  Elec       q    Type
REMARK                         _______ _______ _______ _____ _____    ______ ____
ROOT
ATOM      1  C   UNL     1      -1.661   1.228   0.000  0.00  0.00    +0.000 A 
ATOM      2  C   UNL     1      -0.992   1.712   0.000  0.00  0.00    +0.000 A 
ATOM      3  S   UNL     1      -1.252   2.496   0.000  0.00  0.00    +0.000 S 
ATOM      4  C   UNL     1      -2.078   2.490   0.000  0.00  0.00    +0.000 A 
ATOM      5  C   UNL     1      -2.326   1.703   0.000  0.00  0.00    +0.000 A 
ENDROOT
BRANCH   2   6
ATOM      6  C   UNL     1      -0.207   1.458   0.000  0.00  0.00    +0.000 C 
ATOM      7  O   UNL     1      -0.034   0.652   0.000  0.00  0.00    +0.000 OA
ATOM      8  N   UNL     1       0.405   2.011   0.000  0.00  0.00    +0.000 NA
BRANCH   8   9
ATOM      9  C   UNL     1       1.190   1.758   0.000  0.00  0.00    +0.000 A 
ATOM     10  C   UNL     1       1.361   0.953   0.000  0.00  0.00    +0.000 A 
ATOM     11  C   UNL     1       2.145   0.699   0.000  0.00  0.00    +0.000 A 
ATOM     12  C   UNL     1       2.758   1.252   0.000  0.00  0.00    +0.000 A 
ATOM     13  C   UNL     1       2.582   2.062   0.000  0.00  0.00    +0.000 A 
ATOM     14  C   UNL     1       1.798   2.312   0.000  0.00  0.00    +0.000 A 
BRANCH  12  15
ATOM     15  O   UNL     1       3.543   1.000   0.000  0.00  0.00    +0.000 OA
BRANCH  15  16
ATOM     16  C   UNL     1       3.718   0.193   0.000  0.00  0.00    +0.000 C 
ATOM     17  F   UNL     1       4.503  -0.059   0.000  0.00  0.00    +0.000 F 
ATOM     18  F   UNL     1       3.106  -0.361   0.000  0.00  0.00    +0.000 F 
ATOM     19  F   UNL     1       3.865  -0.544   0.000  0.00  0.00    +0.000 F 
ENDBRANCH  15  16
ENDBRANCH  12  15
ENDBRANCH   8   9
ENDBRANCH   2   6
BRANCH   1  20
ATOM     20  N   UNL     1      -1.656   0.403   0.000  0.00  0.00    +0.000 NA
BRANCH  20  21
ATOM     21  C   UNL     1      -2.369  -0.013   0.000  0.00  0.00    +0.000 C 
BRANCH  21  31
ATOM     22  C   UNL     1      -4.502  -1.256   0.000  0.00  0.00    +0.000 A 
ATOM     23  C   UNL     1      -4.503  -2.083   0.000  0.00  0.00    +0.000 A 
ATOM     24  C   UNL     1      -3.788  -2.496   0.000  0.00  0.00    +0.000 A 
ATOM     25  C   UNL     1      -3.790  -0.843   0.000  0.00  0.00    +0.000 A 
ATOM     26  C   UNL     1      -3.075  -1.252   0.000  0.00  0.00    +0.000 A 
ATOM     27  C   UNL     1      -3.074  -2.079   0.000  0.00  0.00    +0.000 A 
ATOM     28  N   UNL     1      -2.358  -2.490   0.000  0.00  0.00    +0.000 NA
ATOM     29  C   UNL     1      -1.643  -2.075   0.000  0.00  0.00    +0.000 A 
ATOM     30  C   UNL     1      -1.648  -1.245   0.000  0.00  0.00    +0.000 A 
ATOM     31  C   UNL     1      -2.364  -0.838   0.000  0.00  0.00    +0.000 A 
ENDBRANCH  21  31
ENDBRANCH  20  21
ENDBRANCH   1  20
TORSDOF 7
