REMARK  Name = 
REMARK  8 active torsions:
REMARK  status: ('A' for Active; 'I' for Inactive)
REMARK    1  A    between atoms: C_1  and  N_2
REMARK    2  A    between atoms: C_5  and  C_11
REMARK    3  A    between atoms: C_6  and  C_13
REMARK    4  A    between atoms: C_8  and  C_20
REMARK    5  A    between atoms: C_11  and  N_12
REMARK    6  A    between atoms: N_21  and  C_22
REMARK    7  A    between atoms: C_26  and  N_28
REMARK    8  A    between atoms: C_33  and  C_35
REMARK                            x       y       z     vdW  Elec       q    Type
REMARK                         _______ _______ _______ _____ _____    ______ ____
ROOT
ATOM      1  C   UNL     1      -2.130  -1.971   0.000  0.00  0.00    +0.000 C 
ATOM      2  N   UNL     1      -1.417  -1.557   0.000  0.00  0.00    +0.000 NA
ATOM      3  O   UNL     1      -2.133  -2.797   0.000  0.00  0.00    +0.000 OA
ENDROOT
BRANCH   2   4
ATOM      4  C   UNL     1      -0.702  -1.965   0.000  0.00  0.00    +0.000 A 
ATOM      5  C   UNL     1      -0.701  -2.790   0.000  0.00  0.00    +0.000 A 
ATOM      6  C   UNL     1       0.013  -3.199   0.000  0.00  0.00    +0.000 A 
ATOM      7  C   UNL     1       0.726  -2.784   0.000  0.00  0.00    +0.000 A 
ATOM      8  C   UNL     1       0.720  -1.956   0.000  0.00  0.00    +0.000 A 
ATOM      9  C   UNL     1       0.005  -1.551   0.000  0.00  0.00    +0.000 A 
ATOM     10  C   UNL     1       1.441  -3.195   0.000  0.00  0.00    +0.000 C 
BRANCH   8  11
ATOM     11  N   UNL     1       1.429  -1.536   0.000  0.00  0.00    +0.000 NA
ATOM     12  C   UNL     1       2.148  -1.942   0.000  0.00  0.00    +0.000 A 
ATOM     13  N   UNL     1       2.152  -2.768   0.000  0.00  0.00    +0.000 NA
ATOM     14  C   UNL     1       2.870  -3.174   0.000  0.00  0.00    +0.000 A 
ATOM     15  C   UNL     1       3.582  -2.755   0.000  0.00  0.00    +0.000 A 
ATOM     16  C   UNL     1       3.571  -1.925   0.000  0.00  0.00    +0.000 A 
ATOM     17  N   UNL     1       2.853  -1.523   0.000  0.00  0.00    +0.000 NA
BRANCH  16  18
ATOM     18  C   UNL     1       4.279  -1.502   0.000  0.00  0.00    +0.000 A 
ATOM     19  C   UNL     1       5.000  -1.908   0.000  0.00  0.00    +0.000 A 
ATOM     20  N   UNL     1       5.710  -1.486   0.000  0.00  0.00    +0.000 NA
ATOM     21  C   UNL     1       5.699  -0.659   0.000  0.00  0.00    +0.000 A 
ATOM     22  N   UNL     1       4.973  -0.256   0.000  0.00  0.00    +0.000 NA
ATOM     23  C   UNL     1       4.267  -0.679   0.000  0.00  0.00    +0.000 A 
ENDBRANCH  16  18
ENDBRANCH   8  11
ENDBRANCH   2   4
BRANCH   1  27
ATOM     24  C   UNL     1      -4.274  -0.736   0.000  0.00  0.00    +0.000 A 
ATOM     25  C   UNL     1      -4.275  -1.564   0.000  0.00  0.00    +0.000 A 
ATOM     26  C   UNL     1      -3.561  -1.979   0.000  0.00  0.00    +0.000 A 
ATOM     27  C   UNL     1      -2.842  -1.564   0.000  0.00  0.00    +0.000 A 
ATOM     28  C   UNL     1      -2.845  -0.734   0.000  0.00  0.00    +0.000 A 
ATOM     29  C   UNL     1      -3.562  -0.324   0.000  0.00  0.00    +0.000 A 
BRANCH  25  30
ATOM     30  C   UNL     1      -4.991  -1.974   0.000  0.00  0.00    +0.000 C 
ATOM     31  F   UNL     1      -5.705  -1.558   0.000  0.00  0.00    +0.000 F 
ATOM     32  F   UNL     1      -4.994  -2.800   0.000  0.00  0.00    +0.000 F 
ATOM     33  F   UNL     1      -5.710  -2.386   0.000  0.00  0.00    +0.000 F 
ENDBRANCH  25  30
BRANCH  24  34
ATOM     34  C   UNL     1      -4.991  -0.322   0.000  0.00  0.00    +0.000 C 
BRANCH  34  36
ATOM     35  C   UNL     1      -4.582   1.769   0.000  0.00  0.00    +0.000 C 
ATOM     36  N   UNL     1      -4.991   0.502   0.000  0.00  0.00    +0.000 NA
ATOM     37  C   UNL     1      -4.325   0.986   0.000  0.00  0.00    +0.000 C 
ATOM     38  C   UNL     1      -5.403   1.769   0.000  0.00  0.00    +0.000 C 
ATOM     39  C   UNL     1      -5.657   0.986   0.000  0.00  0.00    +0.000 C 
BRANCH  35  40
ATOM     40  N   UNL     1      -4.177   2.487   0.000  0.00  0.00    +0.000 NA
ATOM     41  C   UNL     1      -4.596   3.199   0.000  0.00  0.00    +0.000 C 
ATOM     42  C   UNL     1      -3.350   2.495   0.000  0.00  0.00    +0.000 C 
ENDBRANCH  35  40
ENDBRANCH  34  36
ENDBRANCH  24  34
ENDBRANCH   1  27
TORSDOF 8
