REMARK  Name = 
REMARK  9 active torsions:
REMARK  status: ('A' for Active; 'I' for Inactive)
REMARK    1  A    between atoms: C_2  and  C_3
REMARK    2  A    between atoms: C_3  and  O_5
REMARK    3  A    between atoms: O_5  and  C_6
REMARK    4  A    between atoms: C_6  and  C_7
REMARK    5  A    between atoms: C_6  and  C_30
REMARK    6  A    between atoms: C_13  and  C_14
REMARK    7  A    between atoms: N_16  and  C_17
REMARK    8  A    between atoms: C_17  and  C_18
REMARK    9  A    between atoms: C_19  and  N_25
REMARK                            x       y       z     vdW  Elec       q    Type
REMARK                         _______ _______ _______ _____ _____    ______ ____
ROOT
ATOM      1  C   UNL     1       1.429  -1.650   0.000  0.00  0.00    +0.000 C 
ATOM      2  O   UNL     1       2.143  -1.238   0.000  0.00  0.00    +0.000 OA
ATOM      3  N   UNL     1       1.429  -2.475   0.000  0.00  0.00    +0.000 N 
ATOM      4  N   UNL     1       0.761  -2.960   0.000  0.00  0.00    +0.000 NA
ATOM      5  C   UNL     1       1.016  -3.744   0.000  0.00  0.00    +0.000 C 
ATOM      6  C   UNL     1       1.841  -3.744   0.000  0.00  0.00    +0.000 C 
ATOM      7  C   UNL     1       2.096  -2.960   0.000  0.00  0.00    +0.000 C 
ENDROOT
BRANCH   7   8
ATOM      8  C   UNL     1       2.881  -2.705   0.000  0.00  0.00    +0.000 C 
ATOM      9  O   UNL     1       3.494  -3.257   0.000  0.00  0.00    +0.000 OA
ATOM     10  N   UNL     1       3.053  -1.898   0.000  0.00  0.00    +0.000 NA
BRANCH  10  11
ATOM     11  C   UNL     1       3.837  -1.643   0.000  0.00  0.00    +0.000 C 
BRANCH  11  12
ATOM     12  C   UNL     1       4.009  -0.836   0.000  0.00  0.00    +0.000 A 
ATOM     13  C   UNL     1       4.793  -0.581   0.000  0.00  0.00    +0.000 A 
ATOM     14  C   UNL     1       4.965   0.226   0.000  0.00  0.00    +0.000 A 
ATOM     15  C   UNL     1       4.352   0.778   0.000  0.00  0.00    +0.000 A 
ATOM     16  C   UNL     1       3.567   0.523   0.000  0.00  0.00    +0.000 A 
ATOM     17 CL   UNL     1       2.954   1.075   0.000  0.00  0.00    +0.000 Cl
ATOM     18  C   UNL     1       3.396  -0.284   0.000  0.00  0.00    +0.000 A 
BRANCH  13  19
ATOM     19  N   UNL     1       5.406  -1.133   0.000  0.00  0.00    +0.000 N 
ATOM     20  C   UNL     1       5.320  -1.954   0.000  0.00  0.00    +0.000 A 
ATOM     21  N   UNL     1       6.074  -2.289   0.000  0.00  0.00    +0.000 NA
ATOM     22  N   UNL     1       6.626  -1.676   0.000  0.00  0.00    +0.000 NA
ATOM     23  N   UNL     1       6.213  -0.962   0.000  0.00  0.00    +0.000 NA
ENDBRANCH  13  19
ENDBRANCH  11  12
ENDBRANCH  10  11
ENDBRANCH   7   8
BRANCH   1  24
ATOM     24  C   UNL     1       0.715  -1.238   0.000  0.00  0.00    +0.000 C 
BRANCH  24  25
ATOM     25  C   UNL     1       0.715  -0.412   0.000  0.00  0.00    +0.000 A 
ATOM     26  C   UNL     1       0.000   0.000   0.000  0.00  0.00    +0.000 A 
ATOM     27  C   UNL     1       0.000   0.825   0.000  0.00  0.00    +0.000 A 
ATOM     28  C   UNL     1       0.715   1.238   0.000  0.00  0.00    +0.000 A 
ATOM     29  F   UNL     1       0.715   2.062   0.000  0.00  0.00    +0.000 F 
ATOM     30  C   UNL     1       1.429   0.825   0.000  0.00  0.00    +0.000 A 
ATOM     31  C   UNL     1       1.429   0.000   0.000  0.00  0.00    +0.000 A 
ENDBRANCH  24  25
BRANCH  24  32
ATOM     32  O   UNL     1       0.000  -1.650   0.000  0.00  0.00    +0.000 OA
BRANCH  32  33
ATOM     33  C   UNL     1      -0.715  -1.238   0.000  0.00  0.00    +0.000 C 
ATOM     34  O   UNL     1      -0.715  -0.412   0.000  0.00  0.00    +0.000 OA
BRANCH  33  36
ATOM     35  C   UNL     1      -1.429  -2.475   0.000  0.00  0.00    +0.000 C 
ATOM     36  C   UNL     1      -1.429  -1.650   0.000  0.00  0.00    +0.000 C 
ENDBRANCH  33  36
ENDBRANCH  32  33
ENDBRANCH  24  32
ENDBRANCH   1  24
TORSDOF 9
