REMARK  Name = 
REMARK  8 active torsions:
REMARK  status: ('A' for Active; 'I' for Inactive)
REMARK    1  A    between atoms: N_8  and  C_9
REMARK    2  A    between atoms: C_9  and  C_10
REMARK    3  A    between atoms: C_10  and  C_11
REMARK    4  A    between atoms: C_11  and  C_12
REMARK    5  A    between atoms: C_22  and  C_40
REMARK    6  A    between atoms: CA_27  and  C_37
REMARK    7  A    between atoms: CA_31  and  CB_32
REMARK    8  A    between atoms: CB_32  and  CG_43
REMARK                            x       y       z     vdW  Elec       q    Type
REMARK                         _______ _______ _______ _____ _____    ______ ____
ROOT
ATOM      1  C   UNK A   1      -1.019   0.110   0.000  0.00  0.00    +0.000 C 
ATOM      2  N   UNK A   1      -0.449  -0.482   0.000  0.00  0.00    +0.000 NA
ATOM      3  C   UNK A   1       0.307  -0.833   0.000  0.00  0.00    +0.000 C 
ATOM      4  O   UNK A   1       0.044  -1.621   0.000  0.00  0.00    +0.000 OA
ATOM      5  C   UNK A   1       1.129  -0.887   0.000  0.00  0.00    +0.000 C 
ATOM      6  C   UNK A   1       1.293  -1.698   0.000  0.00  0.00    +0.000 C 
ATOM      7  N   UNK A   1       1.928  -0.635   0.000  0.00  0.00    +0.000 NA
ATOM      8  C   UNK A   1       2.575  -0.110   0.000  0.00  0.00    +0.000 C 
ATOM      9  O   UNK A   1       3.199  -0.657   0.000  0.00  0.00    +0.000 OA
ATOM     10  C   UNK A   1       2.991   0.603   0.000  0.00  0.00    +0.000 C 
ATOM     11  C   UNK A   1       3.112   1.424   0.000  0.00  0.00    +0.000 C 
ATOM     12  N   ASN A   3       2.936   2.235   0.000  0.00  0.00    +0.000 NA
ATOM     13  CG  ASN A   3       2.476   2.914   0.000  0.00  0.00    +0.000 C 
ATOM     14  OD1 ASN A   3       3.068   3.495   0.000  0.00  0.00    +0.000 OA
ATOM     15  CB  ASN A   3       1.808   3.397   0.000  0.00  0.00    +0.000 C 
ATOM     16  CA  ASN A   3       1.008   3.594   0.000  0.00  0.00    +0.000 C 
ATOM     17  N   ASN A   3       0.197   3.495   0.000  0.00  0.00    +0.000 NA
ATOM     18  C   PHE A   2      -0.526   3.101   0.000  0.00  0.00    +0.000 C 
ATOM     19  O   PHE A   2      -1.052   3.605   0.000  0.00  0.00    +0.000 OA
ATOM     20  CA  PHE A   2      -1.096   2.476   0.000  0.00  0.00    +0.000 C 
ATOM     21  N   PHE A   2      -1.369   1.687   0.000  0.00  0.00    +0.000 N 
ATOM     22  C   ACE A   0      -2.191   1.830   0.000  0.00  0.00    +0.000 C 
ATOM     23  C   UNK A   1      -1.337   0.866   0.000  0.00  0.00    +0.000 C 
ATOM     24  O   UNK A   1      -2.158   0.690   0.000  0.00  0.00    +0.000 OA
ENDROOT
BRANCH  11  25
ATOM     25  C   UNK A   1       3.933   1.446   0.000  0.00  0.00    +0.000 C 
ATOM     26  O   UNK A   1       4.328   2.180   0.000  0.00  0.00    +0.000 OA
ATOM     27  O   UNK A   1       4.372   0.745   0.000  0.00  0.00    +0.000 OA
ENDBRANCH  11  25
BRANCH  16  28
ATOM     28  C   ASN A   3       1.041   4.426   0.000  0.00  0.00    +0.000 C 
ATOM     29  O   ASN A   3       0.351   4.887   0.000  0.00  0.00    +0.000 OA
ATOM     30  OXT ASN A   3       1.786   4.799   0.000  0.00  0.00    +0.000 OA
ENDBRANCH  16  28
BRANCH   1  31
ATOM     31  C   UNK A   1      -1.698  -0.372   0.000  0.00  0.00    +0.000 C 
BRANCH  31  32
ATOM     32  C   UNK A   1      -1.665  -1.194   0.000  0.00  0.00    +0.000 C 
BRANCH  32  33
ATOM     33  C   UNK A   1      -2.356  -1.632   0.000  0.00  0.00    +0.000 C 
BRANCH  33  41
ATOM     34  C   UNK A   1      -4.273  -5.478   0.000  0.00  0.00    +0.000 C 
ATOM     35  N   UNK A   1      -3.583  -5.018   0.000  0.00  0.00    +0.000 NA
ATOM     36  C   UNK A   1      -3.627  -4.196   0.000  0.00  0.00    +0.000 C 
ATOM     37  O   UNK A   1      -4.372  -3.824   0.000  0.00  0.00    +0.000 OA
ATOM     38  N   UNK A   1      -2.936  -3.736   0.000  0.00  0.00    +0.000 NA
ATOM     39  C   UNK A   1      -2.991  -2.914   0.000  0.00  0.00    +0.000 C 
ATOM     40  N   UNK A   1      -3.736  -2.542   0.000  0.00  0.00    +0.000 NA
ATOM     41  N   UNK A   1      -2.301  -2.454   0.000  0.00  0.00    +0.000 NA
ENDBRANCH  33  41
ENDBRANCH  32  33
ENDBRANCH  31  32
ENDBRANCH   1  31
BRANCH  20  42
ATOM     42  CB  PHE A   2      -1.819   2.958   0.000  0.00  0.00    +0.000 C 
BRANCH  42  43
ATOM     43  CG  PHE A   2      -1.841   3.824   0.000  0.00  0.00    +0.000 A 
ATOM     44  CZ  PHE A   2      -1.841   5.478   0.000  0.00  0.00    +0.000 A 
ATOM     45  CE1 PHE A   2      -2.553   5.062   0.000  0.00  0.00    +0.000 A 
ATOM     46  CD1 PHE A   2      -2.553   4.240   0.000  0.00  0.00    +0.000 A 
ATOM     47  CD2 PHE A   2      -1.117   4.240   0.000  0.00  0.00    +0.000 A 
ATOM     48  CE2 PHE A   2      -1.117   5.062   0.000  0.00  0.00    +0.000 A 
ENDBRANCH  42  43
ENDBRANCH  20  42
TORSDOF 8
