REMARK  Name = 
REMARK  3 active torsions:
REMARK  status: ('A' for Active; 'I' for Inactive)
REMARK    1  A    between atoms: C_1  and  C_3
REMARK    2  A    between atoms: C_3  and  C_4
REMARK    3  A    between atoms: C_3  and  C_8
REMARK                            x       y       z     vdW  Elec       q    Type
REMARK                         _______ _______ _______ _____ _____    ______ ____
ROOT
ATOM      1  C   UNL     1       0.361   0.417   0.000  0.00  0.00    +0.000 C 
ATOM      2  O   UNL     1       0.361   1.240   0.000  0.00  0.00    +0.000 OA
ENDROOT
BRANCH   1   3
ATOM      3  C   UNL     1      -0.353   0.831   0.000  0.00  0.00    +0.000 C 
ATOM      4  C   UNL     1      -1.075   0.417   0.000  0.00  0.00    +0.000 C 
ATOM      5 CL   UNL     1      -1.789   0.831   0.000  0.00  0.00    +0.000 Cl
ENDBRANCH   1   3
BRANCH   1   6
ATOM      6  C   UNL     1       0.361  -0.409   0.000  0.00  0.00    +0.000 C 
ATOM      7  C   UNL     1       0.361  -1.240   0.000  0.00  0.00    +0.000 C 
ENDBRANCH   1   6
BRANCH   1   8
ATOM      8  C   UNL     1       1.075   0.831   0.000  0.00  0.00    +0.000 C 
ATOM      9  C   UNL     1       1.789   0.417   0.000  0.00  0.00    +0.000 C 
ENDBRANCH   1   8
TORSDOF 3
