REMARK  Name = 
REMARK  6 active torsions:
REMARK  status: ('A' for Active; 'I' for Inactive)
REMARK    1  A    between atoms: C_2  and  N_3
REMARK    2  A    between atoms: C_7  and  O_9
REMARK    3  A    between atoms: O_9  and  C_10
REMARK    4  A    between atoms: C_10  and  C_12
REMARK    5  A    between atoms: C_12  and  C_13
REMARK    6  A    between atoms: C_12  and  C_19
REMARK                            x       y       z     vdW  Elec       q    Type
REMARK                         _______ _______ _______ _____ _____    ______ ____
ROOT
ATOM      1  C   UNL     1       1.459  -2.586   0.000  0.00  0.00    +0.000 C 
ATOM      2  O   UNL     1       1.871  -3.300   0.000  0.00  0.00    +0.000 OA
ENDROOT
BRANCH   1   3
ATOM      3  C   UNL     1       1.046  -1.871   0.000  0.00  0.00    +0.000 A 
ATOM      4  C   UNL     1       0.221  -1.871   0.000  0.00  0.00    +0.000 A 
ATOM      5  C   UNL     1      -0.191  -1.157   0.000  0.00  0.00    +0.000 A 
ATOM      6  C   UNL     1       0.221  -0.442   0.000  0.00  0.00    +0.000 A 
ATOM      7  C   UNL     1       1.046  -0.442   0.000  0.00  0.00    +0.000 A 
ATOM      8  C   UNL     1       1.459  -1.157   0.000  0.00  0.00    +0.000 A 
ENDBRANCH   1   3
BRANCH   1   9
ATOM      9  C   UNL     1       0.744  -2.998   0.000  0.00  0.00    +0.000 A 
ATOM     10  C   UNL     1       0.744  -3.823   0.000  0.00  0.00    +0.000 A 
ATOM     11  C   UNL     1       0.030  -4.236   0.000  0.00  0.00    +0.000 A 
ATOM     12  C   UNL     1      -0.685  -3.823   0.000  0.00  0.00    +0.000 A 
ATOM     13  C   UNL     1      -0.685  -2.998   0.000  0.00  0.00    +0.000 A 
ATOM     14  C   UNL     1       0.030  -2.586   0.000  0.00  0.00    +0.000 A 
ENDBRANCH   1   9
BRANCH   1  15
ATOM     15  C   UNL     1       2.173  -2.173   0.000  0.00  0.00    +0.000 C 
ATOM     16  O   UNL     1       2.888  -2.586   0.000  0.00  0.00    +0.000 OA
BRANCH  15  17
ATOM     17  O   UNL     1       2.173  -1.348   0.000  0.00  0.00    +0.000 OA
BRANCH  17  22
ATOM     18  N   UNL     1       3.602   0.302   0.000  0.00  0.00    +0.000 N 
ATOM     19  C   UNL     1       4.316  -0.111   0.000  0.00  0.00    +0.000 C 
ATOM     20  C   UNL     1       4.316  -0.935   0.000  0.00  0.00    +0.000 C 
ATOM     21  C   UNL     1       3.602  -1.348   0.000  0.00  0.00    +0.000 C 
ATOM     22  C   UNL     1       2.888  -0.935   0.000  0.00  0.00    +0.000 C 
ATOM     23  C   UNL     1       2.888  -0.111   0.000  0.00  0.00    +0.000 C 
ATOM     24  C   UNL     1       4.132   0.934   0.000  0.00  0.00    +0.000 C 
BRANCH  18  26
ATOM     25  C   UNL     1       2.259   0.791   0.000  0.00  0.00    +0.000 C 
ATOM     26  C   UNL     1       3.072   0.934   0.000  0.00  0.00    +0.000 C 
ENDBRANCH  18  26
ENDBRANCH  17  22
ENDBRANCH  15  17
ENDBRANCH   1  15
TORSDOF 6
