REMARK  Name = 
REMARK  6 active torsions:
REMARK  status: ('A' for Active; 'I' for Inactive)
REMARK    1  A    between atoms: C_1  and  CA_3
REMARK    2  A    between atoms: CA_3  and  CB_4
REMARK    3  A    between atoms: CB_4  and  CG_5
REMARK    4  A    between atoms: CG_5  and  CD_6
REMARK    5  A    between atoms: CD_6  and  NE_7
REMARK    6  A    between atoms: C_13  and  CA_15
REMARK                            x       y       z     vdW  Elec       q    Type
REMARK                         _______ _______ _______ _____ _____    ______ ____
ROOT
ATOM      1  CB  ARG A   1       2.725  -0.991   0.000  0.00  0.00    +0.000 C 
ENDROOT
BRANCH   1   3
ATOM      2  N   ARG A   1       3.439   0.247   0.000  0.00  0.00    +0.000 NA
ATOM      3  CA  ARG A   1       3.439  -0.578   0.000  0.00  0.00    +0.000 C 
BRANCH   3   4
ATOM      4  C   ARG A   1       4.154  -0.991   0.000  0.00  0.00    +0.000 C 
ATOM      5  O   ARG A   1       4.154  -1.816   0.000  0.00  0.00    +0.000 OA
ATOM      6  OXT ARG A   1       4.868  -0.578   0.000  0.00  0.00    +0.000 OA
ENDBRANCH   3   4
ENDBRANCH   1   3
BRANCH   1   7
ATOM      7  CG  ARG A   1       2.010  -0.578   0.000  0.00  0.00    +0.000 C 
BRANCH   7   8
ATOM      8  CD  ARG A   1       1.296  -0.991   0.000  0.00  0.00    +0.000 C 
BRANCH   8   9
ATOM      9  NE  ARG A   1       0.582  -0.578   0.000  0.00  0.00    +0.000 NA
ATOM     10  CZ  ARG A   1      -0.133  -0.991   0.000  0.00  0.00    +0.000 C 
ATOM     11  NH1 ARG A   1      -0.133  -1.816   0.000  0.00  0.00    +0.000 NA
ATOM     12  NH2 ARG A   1      -0.847  -0.578   0.000  0.00  0.00    +0.000 NA
ENDBRANCH   8   9
ENDBRANCH   7   8
ENDBRANCH   1   7
TORSDOF 5
REMARK  Name = 
REMARK  6 active torsions:
REMARK  status: ('A' for Active; 'I' for Inactive)
REMARK    1  A    between atoms: C_1  and  CA_3
REMARK    2  A    between atoms: CA_3  and  CB_4
REMARK    3  A    between atoms: CB_4  and  CG_5
REMARK    4  A    between atoms: CG_5  and  CD_6
REMARK    5  A    between atoms: CD_6  and  NE_7
REMARK    6  A    between atoms: C_13  and  CA_15
REMARK                            x       y       z     vdW  Elec       q    Type
REMARK                         _______ _______ _______ _____ _____    ______ ____
ROOT
ATOM      1  N   GLN A   1      -3.416   1.586   0.000  0.00  0.00    +0.000 NA
ATOM      2  CA  GLN A   1      -2.931   0.918   0.000  0.00  0.00    +0.000 C 
ATOM      3  CB  GLN A   1      -3.416   0.251   0.000  0.00  0.00    +0.000 C 
ATOM      4  CG  GLN A   1      -4.201   0.506   0.000  0.00  0.00    +0.000 C 
ATOM      5  CD  GLN A   1      -4.201   1.331   0.000  0.00  0.00    +0.000 C 
ATOM      6  OE1 GLN A   1      -4.868   1.816   0.000  0.00  0.00    +0.000 OA
ENDROOT
BRANCH   2   7
ATOM      7  C   GLN A   1      -2.106   0.918   0.000  0.00  0.00    +0.000 C 
ATOM      8  O   GLN A   1      -1.694   0.204   0.000  0.00  0.00    +0.000 OA
ATOM      9  OXT GLN A   1      -1.694   1.633   0.000  0.00  0.00    +0.000 OA
ENDBRANCH   2   7
TORSDOF 1
