REMARK  Name = 
REMARK  5 active torsions:
REMARK  status: ('A' for Active; 'I' for Inactive)
REMARK    1  A    between atoms: C_4  and  C_18
REMARK    2  A    between atoms: N_20  and  C_24
REMARK    3  A    between atoms: N_22  and  C_28
REMARK    4  A    between atoms: C_26  and  C_33
REMARK    5  A    between atoms: C_28  and  C_29
REMARK                            x       y       z     vdW  Elec       q    Type
REMARK                         _______ _______ _______ _____ _____    ______ ____
ROOT
ATOM      1  C   UNL     1      -0.713  -1.125   0.000  0.00  0.00    +0.000 C 
ATOM      2  O   UNL     1      -1.448  -1.500   0.000  0.00  0.00    +0.000 OA
ATOM      3  N   UNL     1      -0.713  -0.300   0.000  0.00  0.00    +0.000 NA
ENDROOT
BRANCH   1   7
ATOM      4  C   UNL     1       1.430  -2.363   0.000  0.00  0.00    +0.000 A 
ATOM      5  C   UNL     1       1.430  -1.538   0.000  0.00  0.00    +0.000 A 
ATOM      6  C   UNL     1       0.716  -1.125   0.000  0.00  0.00    +0.000 A 
ATOM      7  C   UNL     1       0.001  -1.538   0.000  0.00  0.00    +0.000 A 
ATOM      8  C   UNL     1       0.001  -2.362   0.000  0.00  0.00    +0.000 A 
ATOM      9  N   UNL     1       0.716  -2.775   0.000  0.00  0.00    +0.000 NA
ATOM     10  C   UNL     1       2.215  -1.283   0.000  0.00  0.00    +0.000 C 
ATOM     11  C   UNL     1       2.700  -1.950   0.000  0.00  0.00    +0.000 C 
ATOM     12  C   UNL     1       2.215  -2.618   0.000  0.00  0.00    +0.000 C 
ATOM     13  C   UNL     1       3.969  -1.538   0.000  0.00  0.00    +0.000 A 
ATOM     14  C   UNL     1       3.184  -1.283   0.000  0.00  0.00    +0.000 A 
ATOM     15  C   UNL     1       3.013  -0.476   0.000  0.00  0.00    +0.000 A 
ATOM     16  C   UNL     1       3.626   0.076   0.000  0.00  0.00    +0.000 A 
ATOM     17  C   UNL     1       4.411  -0.179   0.000  0.00  0.00    +0.000 A 
ATOM     18  N   UNL     1       4.582  -0.986   0.000  0.00  0.00    +0.000 NA
ATOM     19  N   UNL     1       3.969  -2.363   0.000  0.00  0.00    +0.000 NA
ATOM     20  C   UNL     1       3.184  -2.618   0.000  0.00  0.00    +0.000 C 
ATOM     21  O   UNL     1       2.930  -3.402   0.000  0.00  0.00    +0.000 OA
ENDBRANCH   1   7
BRANCH   3  24
ATOM     22  N   UNL     1      -2.142   1.350   0.000  0.00  0.00    +0.000 N 
ATOM     23  C   UNL     1      -1.428   0.937   0.000  0.00  0.00    +0.000 C 
ATOM     24  C   UNL     1      -1.428   0.112   0.000  0.00  0.00    +0.000 C 
ATOM     25  C   UNL     1      -2.142  -0.300   0.000  0.00  0.00    +0.000 C 
ATOM     26  C   UNL     1      -2.857   0.112   0.000  0.00  0.00    +0.000 C 
ATOM     27  C   UNL     1      -2.857   0.937   0.000  0.00  0.00    +0.000 C 
ATOM     28  O   UNL     1      -0.713   1.350   0.000  0.00  0.00    +0.000 OA
ATOM     29  C   UNL     1      -3.571   1.350   0.000  0.00  0.00    +0.000 C 
BRANCH  26  30
ATOM     30  C   UNL     1      -3.571  -0.300   0.000  0.00  0.00    +0.000 A 
ATOM     31  C   UNL     1      -3.571  -1.125   0.000  0.00  0.00    +0.000 A 
ATOM     32  C   UNL     1      -4.286  -1.538   0.000  0.00  0.00    +0.000 A 
ATOM     33  C   UNL     1      -5.000  -1.125   0.000  0.00  0.00    +0.000 A 
ATOM     34  C   UNL     1      -5.000  -0.300   0.000  0.00  0.00    +0.000 A 
ATOM     35  C   UNL     1      -4.286   0.112   0.000  0.00  0.00    +0.000 A 
ENDBRANCH  26  30
BRANCH  22  36
ATOM     36  C   UNL     1      -2.142   2.175   0.000  0.00  0.00    +0.000 C 
BRANCH  36  37
ATOM     37  C   UNL     1      -1.407   2.549   0.000  0.00  0.00    +0.000 C 
ATOM     38  F   UNL     1      -0.715   2.100   0.000  0.00  0.00    +0.000 F 
ATOM     39  F   UNL     1      -0.672   2.924   0.000  0.00  0.00    +0.000 F 
ATOM     40  F   UNL     1      -1.364   3.373   0.000  0.00  0.00    +0.000 F 
ENDBRANCH  36  37
ENDBRANCH  22  36
ENDBRANCH   3  24
TORSDOF 5
