REMARK  Name = 
REMARK  6 active torsions:
REMARK  status: ('A' for Active; 'I' for Inactive)
REMARK    1  A    between atoms: C_16  and  O_26
REMARK    2  A    between atoms: C_17  and  O_27
REMARK    3  A    between atoms: C_19  and  C_23
REMARK    4  A    between atoms: C_20  and  C_23
REMARK    5  A    between atoms: C_21  and  O_26
REMARK    6  A    between atoms: C_22  and  O_27
REMARK                            x       y       z     vdW  Elec       q    Type
REMARK                         _______ _______ _______ _____ _____    ______ ____
ROOT
ATOM      1  C   UNL     1      -0.715   2.062   0.000  0.00  0.00    +0.000 C 
ATOM      2  C   UNL     1       0.000   2.475   0.000  0.00  0.00    +0.000 C 
ATOM      3  C   UNL     1      -1.429   2.475   0.000  0.00  0.00    +0.000 C 
ATOM      4  C   UNL     1       0.000   3.300   0.000  0.00  0.00    +0.000 C 
ATOM      5  C   UNL     1      -1.429   3.300   0.000  0.00  0.00    +0.000 C 
ATOM      6  C   UNL     1      -0.715   3.712   0.000  0.00  0.00    +0.000 C 
ATOM      7  C   UNL     1      -0.715   4.537   0.000  0.00  0.00    +0.000 C 
ENDROOT
BRANCH   7  12
ATOM      8  C   UNL     1       0.715   4.537   0.000  0.00  0.00    +0.000 A 
ATOM      9  C   UNL     1       0.000   5.775   0.000  0.00  0.00    +0.000 A 
ATOM     10  C   UNL     1       1.429   4.950   0.000  0.00  0.00    +0.000 A 
ATOM     11  C   UNL     1       0.715   6.188   0.000  0.00  0.00    +0.000 A 
ATOM     12  C   UNL     1       0.000   4.950   0.000  0.00  0.00    +0.000 A 
ATOM     13  C   UNL     1       1.429   5.775   0.000  0.00  0.00    +0.000 A 
BRANCH  13  14
ATOM     14  O   UNL     1       2.143   6.188   0.000  0.00  0.00    +0.000 OA
BRANCH  14  16
ATOM     15  C   UNL     1       2.858   7.425   0.000  0.00  0.00    +0.000 C 
ATOM     16  C   UNL     1       2.143   7.013   0.000  0.00  0.00    +0.000 C 
ATOM     17  O   UNL     1       1.429   7.425   0.000  0.00  0.00    +0.000 OA
ENDBRANCH  14  16
ENDBRANCH  13  14
ENDBRANCH   7  12
BRANCH   7  22
ATOM     18  C   UNL     1      -1.429   5.775   0.000  0.00  0.00    +0.000 A 
ATOM     19  C   UNL     1      -2.143   4.537   0.000  0.00  0.00    +0.000 A 
ATOM     20  C   UNL     1      -2.143   6.188   0.000  0.00  0.00    +0.000 A 
ATOM     21  C   UNL     1      -2.858   4.950   0.000  0.00  0.00    +0.000 A 
ATOM     22  C   UNL     1      -1.429   4.950   0.000  0.00  0.00    +0.000 A 
ATOM     23  C   UNL     1      -2.858   5.775   0.000  0.00  0.00    +0.000 A 
BRANCH  23  24
ATOM     24  O   UNL     1      -3.572   6.188   0.000  0.00  0.00    +0.000 OA
BRANCH  24  26
ATOM     25  C   UNL     1      -4.287   7.425   0.000  0.00  0.00    +0.000 C 
ATOM     26  C   UNL     1      -3.572   7.013   0.000  0.00  0.00    +0.000 C 
ATOM     27  O   UNL     1      -2.858   7.425   0.000  0.00  0.00    +0.000 OA
ENDBRANCH  24  26
ENDBRANCH  23  24
ENDBRANCH   7  22
TORSDOF 6
