REMARK  Name = 
REMARK  4 active torsions:
REMARK  status: ('A' for Active; 'I' for Inactive)
REMARK    1  A    between atoms: O_6  and  C_29
REMARK    2  A    between atoms: O_6  and  C_30
REMARK    3  A    between atoms: C_14  and  C_23
REMARK    4  A    between atoms: C_23  and  C_29
REMARK                            x       y       z     vdW  Elec       q    Type
REMARK                         _______ _______ _______ _____ _____    ______ ____
ROOT
ATOM      1 CL   UNL     1      -1.090  -1.390   0.000  0.00  0.00    +0.000 Cl
ATOM      2  F   UNL     1      -1.090  -3.041   0.000  0.00  0.00    +0.000 F 
ATOM      3  O   UNL     1      -1.801   0.671   0.000  0.00  0.00    +0.000 OA
ATOM      4  O   UNL     1      -3.950  -2.212   0.000  0.00  0.00    +0.000 OA
ATOM      5  C   UNL     1      -0.371  -0.979   0.000  0.00  0.00    +0.000 C 
ATOM      6  C   UNL     1      -1.090  -0.561   0.000  0.00  0.00    +0.000 C 
ATOM      7  C   UNL     1       0.340  -0.561   0.000  0.00  0.00    +0.000 C 
ATOM      8  C   UNL     1       0.340   0.261   0.000  0.00  0.00    +0.000 C 
ATOM      9  C   UNL     1      -1.801  -0.979   0.000  0.00  0.00    +0.000 C 
ATOM     10  C   UNL     1      -1.090   0.261   0.000  0.00  0.00    +0.000 C 
ATOM     11  C   UNL     1       1.058   0.671   0.000  0.00  0.00    +0.000 C 
ATOM     12  C   UNL     1      -0.371   0.671   0.000  0.00  0.00    +0.000 C 
ATOM     13  C   UNL     1      -0.371  -1.801   0.000  0.00  0.00    +0.000 C 
ATOM     14  C   UNL     1      -1.801  -1.801   0.000  0.00  0.00    +0.000 C 
ATOM     15  C   UNL     1       1.769  -0.561   0.000  0.00  0.00    +0.000 C 
ATOM     16  C   UNL     1       1.769   0.261   0.000  0.00  0.00    +0.000 C 
ATOM     17  C   UNL     1      -1.090  -2.212   0.000  0.00  0.00    +0.000 C 
ATOM     18  C   UNL     1      -2.520  -0.561   0.000  0.00  0.00    +0.000 C 
ATOM     19  C   UNL     1       0.300   1.090   0.000  0.00  0.00    +0.000 C 
ATOM     20  C   UNL     1      -1.801  -0.150   0.000  0.00  0.00    +0.000 C 
ATOM     21  C   UNL     1      -2.520  -2.212   0.000  0.00  0.00    +0.000 C 
ATOM     22  C   UNL     1      -3.231  -0.979   0.000  0.00  0.00    +0.000 C 
ATOM     23  C   UNL     1      -3.231  -1.801   0.000  0.00  0.00    +0.000 C 
ATOM     24  C   UNL     1       2.488   0.679   0.000  0.00  0.00    +0.000 C 
ENDROOT
BRANCH  11  26
ATOM     25  O   UNL     1       0.348   2.196   0.000  0.00  0.00    +0.000 OA
ATOM     26  C   UNL     1       1.058   1.785   0.000  0.00  0.00    +0.000 C 
BRANCH  26  27
ATOM     27  C   UNL     1       1.777   2.188   0.000  0.00  0.00    +0.000 C 
BRANCH  27  28
ATOM     28  O   UNL     1       2.504   1.769   0.000  0.00  0.00    +0.000 OA
BRANCH  28  30
ATOM     29  O   UNL     1       3.191   3.041   0.000  0.00  0.00    +0.000 OA
ATOM     30  C   UNL     1       3.231   2.188   0.000  0.00  0.00    +0.000 C 
ATOM     31  C   UNL     1       3.950   1.769   0.000  0.00  0.00    +0.000 C 
ENDBRANCH  28  30
ENDBRANCH  27  28
ENDBRANCH  26  27
ENDBRANCH  11  26
TORSDOF 4
