REMARK  Name = 
REMARK  5 active torsions:
REMARK  status: ('A' for Active; 'I' for Inactive)
REMARK    1  A    between atoms: N_7  and  C_8
REMARK    2  A    between atoms: N_18  and  C_19
REMARK    3  A    between atoms: C_22  and  O_26
REMARK    4  A    between atoms: O_26  and  C_27
REMARK    5  A    between atoms: C_27  and  C_28
REMARK                            x       y       z     vdW  Elec       q    Type
REMARK                         _______ _______ _______ _____ _____    ______ ____
ROOT
ATOM      1  C   UNL     1      -0.715  -0.412   0.000  0.00  0.00    +0.000 A 
ATOM      2  C   UNL     1      -0.715  -1.238   0.000  0.00  0.00    +0.000 A 
ATOM      3  C   UNL     1       0.000  -1.650   0.000  0.00  0.00    +0.000 A 
ATOM      4  C   UNL     1       0.715  -1.238   0.000  0.00  0.00    +0.000 A 
ATOM      5  C   UNL     1       0.715  -0.412   0.000  0.00  0.00    +0.000 A 
ATOM      6  C   UNL     1       0.000   0.000   0.000  0.00  0.00    +0.000 A 
ATOM      7  C   UNL     1       1.429   0.000   0.000  0.00  0.00    +0.000 A 
ATOM      8  N   UNL     1       2.143  -0.412   0.000  0.00  0.00    +0.000 NA
ATOM      9  C   UNL     1       2.143  -1.238   0.000  0.00  0.00    +0.000 A 
ATOM     10  N   UNL     1       1.429  -1.650   0.000  0.00  0.00    +0.000 NA
ATOM     11  N   UNL     1       1.429   0.825   0.000  0.00  0.00    +0.000 NA
ENDROOT
BRANCH   1  18
ATOM     12  C   UNL     1      -3.372  -2.158   0.000  0.00  0.00    +0.000 C 
ATOM     13  C   UNL     1      -3.037  -1.405   0.000  0.00  0.00    +0.000 C 
ATOM     14  C   UNL     1      -3.449  -0.690   0.000  0.00  0.00    +0.000 C 
ATOM     15  O   UNL     1      -2.897  -0.077   0.000  0.00  0.00    +0.000 OA
ATOM     16  C   UNL     1      -2.143  -0.412   0.000  0.00  0.00    +0.000 C 
ATOM     17  N   UNL     1      -2.230  -1.233   0.000  0.00  0.00    +0.000 NA
ATOM     18  N   UNL     1      -1.429   0.000   0.000  0.00  0.00    +0.000 NA
ENDBRANCH   1  18
BRANCH  11  19
ATOM     19  C   UNL     1       2.143   1.238   0.000  0.00  0.00    +0.000 A 
ATOM     20  C   UNL     1       2.143   2.062   0.000  0.00  0.00    +0.000 A 
ATOM     21  C   UNL     1       2.858   2.475   0.000  0.00  0.00    +0.000 A 
ATOM     22  C   UNL     1       3.572   2.062   0.000  0.00  0.00    +0.000 A 
ATOM     23  C   UNL     1       3.572   1.238   0.000  0.00  0.00    +0.000 A 
ATOM     24  C   UNL     1       2.858   0.825   0.000  0.00  0.00    +0.000 A 
ATOM     25 CL   UNL     1       4.287   0.825   0.000  0.00  0.00    +0.000 Cl
BRANCH  22  26
ATOM     26  O   UNL     1       4.287   2.475   0.000  0.00  0.00    +0.000 OA
BRANCH  26  27
ATOM     27  C   UNL     1       4.287   3.300   0.000  0.00  0.00    +0.000 C 
BRANCH  27  28
ATOM     28  C   UNL     1       5.001   3.712   0.000  0.00  0.00    +0.000 A 
ATOM     29  N   UNL     1       5.088   4.533   0.000  0.00  0.00    +0.000 NA
ATOM     30  C   UNL     1       5.894   4.705   0.000  0.00  0.00    +0.000 A 
ATOM     31  C   UNL     1       6.307   3.990   0.000  0.00  0.00    +0.000 A 
ATOM     32  S   UNL     1       5.755   3.377   0.000  0.00  0.00    +0.000 S 
ENDBRANCH  27  28
ENDBRANCH  26  27
ENDBRANCH  22  26
ENDBRANCH  11  19
TORSDOF 5
