REMARK  Name = 
REMARK  5 active torsions:
REMARK  status: ('A' for Active; 'I' for Inactive)
REMARK    1  A    between atoms: C_4  and  O_21
REMARK    2  A    between atoms: C_6  and  O_22
REMARK    3  A    between atoms: C_10  and  N_16
REMARK    4  A    between atoms: C_11  and  O_24
REMARK    5  A    between atoms: C_13  and  O_25
REMARK                            x       y       z     vdW  Elec       q    Type
REMARK                         _______ _______ _______ _____ _____    ______ ____
ROOT
ATOM      1  C   UNL     1      -0.143  -0.217   0.000  0.00  0.00    +0.000 A 
ATOM      2  C   UNL     1      -0.968  -0.397   0.000  0.00  0.00    +0.000 A 
ATOM      3  C   UNL     1       0.484  -0.712   0.000  0.00  0.00    +0.000 A 
ATOM      4  C   UNL     1       1.202  -0.290   0.000  0.00  0.00    +0.000 A 
ATOM      5  C   UNL     1      -1.603   0.131   0.000  0.00  0.00    +0.000 A 
ATOM      6  C   UNL     1       1.925  -0.712   0.000  0.00  0.00    +0.000 A 
ATOM      7  C   UNL     1       0.203   0.521   0.000  0.00  0.00    +0.000 A 
ATOM      8  C   UNL     1       0.484  -1.531   0.000  0.00  0.00    +0.000 A 
ATOM      9  C   UNL     1      -1.603   0.943   0.000  0.00  0.00    +0.000 A 
ATOM     10  C   UNL     1      -1.319  -1.133   0.000  0.00  0.00    +0.000 C 
ATOM     11  C   UNL     1       1.925  -1.531   0.000  0.00  0.00    +0.000 A 
ATOM     12  C   UNL     1      -0.143   1.287   0.000  0.00  0.00    +0.000 A 
ATOM     13  C   UNL     1      -0.947   1.474   0.000  0.00  0.00    +0.000 A 
ATOM     14  C   UNL     1       1.202  -1.953   0.000  0.00  0.00    +0.000 A 
ATOM     15  C   UNL     1      -0.143  -2.054   0.000  0.00  0.00    +0.000 C 
ATOM     16  O   UNL     1      -2.357   1.287   0.000  0.00  0.00    +0.000 OA
ATOM     17  C   UNL     1      -0.968  -1.867   0.000  0.00  0.00    +0.000 C 
ENDROOT
BRANCH  10  19
ATOM     18  C   UNL     1      -2.547  -1.836   0.000  0.00  0.00    +0.000 C 
ATOM     19  N   UNL     1      -2.139  -1.133   0.000  0.00  0.00    +0.000 NA
ATOM     20  O   UNL     1      -3.364  -1.833   0.000  0.00  0.00    +0.000 OA
ATOM     21  C   UNL     1      -2.147  -2.546   0.000  0.00  0.00    +0.000 C 
ENDBRANCH  10  19
BRANCH   4  22
ATOM     22  O   UNL     1       1.202   0.521   0.000  0.00  0.00    +0.000 OA
ATOM     23  C   UNL     1       1.904   0.943   0.000  0.00  0.00    +0.000 C 
ENDBRANCH   4  22
BRANCH   6  24
ATOM     24  O   UNL     1       2.638  -0.290   0.000  0.00  0.00    +0.000 OA
ATOM     25  C   UNL     1       3.364  -0.743   0.000  0.00  0.00    +0.000 C 
ENDBRANCH   6  24
BRANCH  11  26
ATOM     26  O   UNL     1       2.706  -1.836   0.000  0.00  0.00    +0.000 OA
ATOM     27  C   UNL     1       3.364  -1.563   0.000  0.00  0.00    +0.000 C 
ENDBRANCH  11  26
BRANCH  13  28
ATOM     28  O   UNL     1      -1.127   2.286   0.000  0.00  0.00    +0.000 OA
ATOM     29  C   UNL     1      -1.912   2.546   0.000  0.00  0.00    +0.000 C 
ENDBRANCH  13  28
TORSDOF 5
