REMARK  Name = 
REMARK  6 active torsions:
REMARK  status: ('A' for Active; 'I' for Inactive)
REMARK    1  A    between atoms: C_2  and  C_4
REMARK    2  A    between atoms: C_4  and  C_5
REMARK    3  A    between atoms: C_4  and  C_10
REMARK    4  A    between atoms: C_13  and  O_14
REMARK    5  A    between atoms: O_14  and  C_15
REMARK    6  A    between atoms: C_15  and  C_16
REMARK                            x       y       z     vdW  Elec       q    Type
REMARK                         _______ _______ _______ _____ _____    ______ ____
ROOT
ATOM      1  C   UNL     1      -4.287  -2.475   0.000  0.00  0.00    +0.000 A 
ATOM      2  C   UNL     1      -4.287  -1.650   0.000  0.00  0.00    +0.000 A 
ATOM      3  C   UNL     1      -3.572  -1.238   0.000  0.00  0.00    +0.000 A 
ATOM      4  C   UNL     1      -2.858  -1.650   0.000  0.00  0.00    +0.000 A 
ATOM      5  C   UNL     1      -2.858  -2.475   0.000  0.00  0.00    +0.000 A 
ATOM      6  C   UNL     1      -3.572  -2.888   0.000  0.00  0.00    +0.000 A 
ENDROOT
BRANCH   1   7
ATOM      7  C   UNL     1      -5.001  -2.888   0.000  0.00  0.00    +0.000 C 
BRANCH   7   8
ATOM      8  C   UNL     1      -5.001  -3.712   0.000  0.00  0.00    +0.000 C 
ATOM      9  C   UNL     1      -4.334  -4.197   0.000  0.00  0.00    +0.000 C 
ATOM     10  C   UNL     1      -4.589  -4.982   0.000  0.00  0.00    +0.000 C 
ATOM     11  C   UNL     1      -5.414  -4.982   0.000  0.00  0.00    +0.000 C 
ATOM     12  C   UNL     1      -5.669  -4.197   0.000  0.00  0.00    +0.000 C 
ENDBRANCH   7   8
BRANCH   7  14
ATOM     13  O   UNL     1      -6.430  -2.888   0.000  0.00  0.00    +0.000 OA
ATOM     14  C   UNL     1      -5.716  -2.475   0.000  0.00  0.00    +0.000 C 
ATOM     15  O   UNL     1      -5.716  -1.650   0.000  0.00  0.00    +0.000 OA
ENDBRANCH   7  14
ENDBRANCH   1   7
BRANCH   4  16
ATOM     16  O   UNL     1      -2.143  -1.238   0.000  0.00  0.00    +0.000 OA
BRANCH  16  17
ATOM     17  C   UNL     1      -1.429  -1.650   0.000  0.00  0.00    +0.000 C 
BRANCH  17  18
ATOM     18  C   UNL     1      -0.715  -1.238   0.000  0.00  0.00    +0.000 A 
ATOM     19  N   UNL     1       0.000  -1.650   0.000  0.00  0.00    +0.000 NA
ATOM     20  C   UNL     1       0.715  -1.238   0.000  0.00  0.00    +0.000 A 
ATOM     21  C   UNL     1       0.715  -0.412   0.000  0.00  0.00    +0.000 A 
ATOM     22  C   UNL     1       1.429   0.000   0.000  0.00  0.00    +0.000 A 
ATOM     23  C   UNL     1       2.143  -0.412   0.000  0.00  0.00    +0.000 A 
ATOM     24  C   UNL     1       2.143  -1.238   0.000  0.00  0.00    +0.000 A 
ATOM     25  C   UNL     1       1.429  -1.650   0.000  0.00  0.00    +0.000 A 
ATOM     26  C   UNL     1       0.000   0.000   0.000  0.00  0.00    +0.000 A 
ATOM     27  C   UNL     1      -0.715  -0.412   0.000  0.00  0.00    +0.000 A 
ENDBRANCH  17  18
ENDBRANCH  16  17
ENDBRANCH   4  16
TORSDOF 6
