REMARK  Name = 
REMARK  7 active torsions:
REMARK  status: ('A' for Active; 'I' for Inactive)
REMARK    1  A    between atoms: C_2  and  O_3
REMARK    2  A    between atoms: O_3  and  C_4
REMARK    3  A    between atoms: C_9  and  C_10
REMARK    4  A    between atoms: N_12  and  C_13
REMARK    5  A    between atoms: C_13  and  C_14
REMARK    6  A    between atoms: N_16  and  C_20
REMARK    7  A    between atoms: C_20  and  C_21
REMARK                            x       y       z     vdW  Elec       q    Type
REMARK                         _______ _______ _______ _____ _____    ______ ____
ROOT
ATOM      1  C   UNL     1      -7.145   0.000   0.000  0.00  0.00    +0.000 C 
ENDROOT
BRANCH   1   2
ATOM      2  C   UNL     1      -7.145   0.825   0.000  0.00  0.00    +0.000 C 
ATOM      3  C   UNL     1      -7.859   1.238   0.000  0.00  0.00    +0.000 C 
ATOM      4  N   UNL     1      -7.859   2.062   0.000  0.00  0.00    +0.000 NA
ATOM      5  C   UNL     1      -7.145   2.475   0.000  0.00  0.00    +0.000 C 
ATOM      6  C   UNL     1      -6.430   2.062   0.000  0.00  0.00    +0.000 C 
ATOM      7  O   UNL     1      -6.430   1.238   0.000  0.00  0.00    +0.000 OA
BRANCH   4   8
ATOM      8  C   UNL     1      -8.574   2.475   0.000  0.00  0.00    +0.000 C 
BRANCH   8   9
ATOM      9  C   UNL     1      -9.288   2.062   0.000  0.00  0.00    +0.000 A 
ATOM     10  C   UNL     1      -9.288   1.238   0.000  0.00  0.00    +0.000 A 
ATOM     11  C   UNL     1     -10.003   0.825   0.000  0.00  0.00    +0.000 A 
ATOM     12  C   UNL     1     -10.717   1.238   0.000  0.00  0.00    +0.000 A 
ATOM     13  C   UNL     1     -10.717   2.062   0.000  0.00  0.00    +0.000 A 
ATOM     14  C   UNL     1     -10.003   2.475   0.000  0.00  0.00    +0.000 A 
ATOM     15  F   UNL     1     -11.431   0.825   0.000  0.00  0.00    +0.000 F 
ENDBRANCH   8   9
ENDBRANCH   4   8
ENDBRANCH   1   2
BRANCH   1  18
ATOM     16  C   UNL     1      -6.430  -1.238   0.000  0.00  0.00    +0.000 C 
ATOM     17  O   UNL     1      -7.145  -1.650   0.000  0.00  0.00    +0.000 OA
ATOM     18  N   UNL     1      -6.430  -0.412   0.000  0.00  0.00    +0.000 NA
BRANCH  16  24
ATOM     19  C   UNL     1      -5.001  -1.238   0.000  0.00  0.00    +0.000 A 
ATOM     20  C   UNL     1      -4.287  -1.650   0.000  0.00  0.00    +0.000 A 
ATOM     21  C   UNL     1      -4.287  -2.475   0.000  0.00  0.00    +0.000 A 
ATOM     22  C   UNL     1      -5.001  -2.888   0.000  0.00  0.00    +0.000 A 
ATOM     23  C   UNL     1      -5.716  -2.475   0.000  0.00  0.00    +0.000 A 
ATOM     24  C   UNL     1      -5.716  -1.650   0.000  0.00  0.00    +0.000 A 
ATOM     25 CL   UNL     1      -5.001  -3.712   0.000  0.00  0.00    +0.000 Cl
ATOM     26  N   UNL     1      -3.572  -2.888   0.000  0.00  0.00    +0.000 NA
BRANCH  19  27
ATOM     27  O   UNL     1      -5.001  -0.412   0.000  0.00  0.00    +0.000 OA
BRANCH  27  29
ATOM     28  C   UNL     1      -4.287   0.825   0.000  0.00  0.00    +0.000 C 
ATOM     29  C   UNL     1      -4.287   0.000   0.000  0.00  0.00    +0.000 C 
ENDBRANCH  27  29
ENDBRANCH  19  27
ENDBRANCH  16  24
ENDBRANCH   1  18
TORSDOF 7
