REMARK  Name = 
REMARK  5 active torsions:
REMARK  status: ('A' for Active; 'I' for Inactive)
REMARK    1  A    between atoms: C_2  and  C_5
REMARK    2  A    between atoms: C_7  and  C_11
REMARK    3  A    between atoms: N_14  and  C_15
REMARK    4  A    between atoms: C_15  and  C_16
REMARK    5  A    between atoms: C_16  and  C_17
REMARK                            x       y       z     vdW  Elec       q    Type
REMARK                         _______ _______ _______ _____ _____    ______ ____
ROOT
ATOM      1  C   UNL     1      -4.287  -2.475   0.000  0.00  0.00    +0.000 C 
ATOM      2  C   UNL     1      -4.287  -1.650   0.000  0.00  0.00    +0.000 C 
ATOM      3  C   UNL     1      -3.572  -1.238   0.000  0.00  0.00    +0.000 C 
ATOM      4  N   UNL     1      -2.858  -1.650   0.000  0.00  0.00    +0.000 NA
ATOM      5  C   UNL     1      -2.858  -2.475   0.000  0.00  0.00    +0.000 C 
ATOM      6  C   UNL     1      -3.572  -2.888   0.000  0.00  0.00    +0.000 C 
ENDROOT
BRANCH   1   9
ATOM      7  C   UNL     1      -6.430  -2.888   0.000  0.00  0.00    +0.000 A 
ATOM      8  C   UNL     1      -5.716  -2.475   0.000  0.00  0.00    +0.000 A 
ATOM      9  C   UNL     1      -5.001  -2.888   0.000  0.00  0.00    +0.000 A 
ATOM     10  C   UNL     1      -5.001  -3.712   0.000  0.00  0.00    +0.000 A 
ATOM     11  C   UNL     1      -5.716  -4.125   0.000  0.00  0.00    +0.000 A 
ATOM     12  C   UNL     1      -6.430  -3.712   0.000  0.00  0.00    +0.000 A 
BRANCH   7  14
ATOM     13  F   UNL     1      -7.859  -2.062   0.000  0.00  0.00    +0.000 F 
ATOM     14  C   UNL     1      -7.145  -2.475   0.000  0.00  0.00    +0.000 C 
ATOM     15  F   UNL     1      -7.557  -3.189   0.000  0.00  0.00    +0.000 F 
ATOM     16  F   UNL     1      -6.732  -1.760   0.000  0.00  0.00    +0.000 F 
ENDBRANCH   7  14
ENDBRANCH   1   9
BRANCH   4  17
ATOM     17  C   UNL     1      -2.143  -1.238   0.000  0.00  0.00    +0.000 C 
BRANCH  17  18
ATOM     18  C   UNL     1      -1.429  -1.650   0.000  0.00  0.00    +0.000 C 
BRANCH  18  19
ATOM     19  C   UNL     1      -0.715  -1.238   0.000  0.00  0.00    +0.000 A 
ATOM     20  C   UNL     1       0.000  -1.650   0.000  0.00  0.00    +0.000 A 
ATOM     21  C   UNL     1       0.715  -1.238   0.000  0.00  0.00    +0.000 A 
ATOM     22  C   UNL     1       0.715  -0.412   0.000  0.00  0.00    +0.000 A 
ATOM     23  C   UNL     1       1.429   0.000   0.000  0.00  0.00    +0.000 A 
ATOM     24  C   UNL     1       2.143  -0.412   0.000  0.00  0.00    +0.000 A 
ATOM     25  N   UNL     1       2.143  -1.238   0.000  0.00  0.00    +0.000 NA
ATOM     26  C   UNL     1       1.429  -1.650   0.000  0.00  0.00    +0.000 A 
ATOM     27  C   UNL     1       0.000   0.000   0.000  0.00  0.00    +0.000 A 
ATOM     28  C   UNL     1      -0.715  -0.412   0.000  0.00  0.00    +0.000 A 
ENDBRANCH  18  19
ENDBRANCH  17  18
ENDBRANCH   4  17
TORSDOF 5
