REMARK  Name = 
REMARK  5 active torsions:
REMARK  status: ('A' for Active; 'I' for Inactive)
REMARK    1  A    between atoms: C_4  and  C_6
REMARK    2  A    between atoms: N_8  and  C_9
REMARK    3  A    between atoms: C_14  and  C_15
REMARK    4  A    between atoms: C_15  and  N_16
REMARK    5  A    between atoms: N_16  and  C_17
REMARK                            x       y       z     vdW  Elec       q    Type
REMARK                         _______ _______ _______ _____ _____    ______ ____
ROOT
ATOM      1  C   UNL     1       5.609   0.640   0.000  0.00  0.00    +0.000 A 
ATOM      2  C   UNL     1       4.895   1.053   0.000  0.00  0.00    +0.000 A 
ATOM      3  C   UNL     1       4.895   1.878   0.000  0.00  0.00    +0.000 A 
ATOM      4  C   UNL     1       5.609   2.290   0.000  0.00  0.00    +0.000 A 
ATOM      5  C   UNL     1       6.324   1.878   0.000  0.00  0.00    +0.000 A 
ATOM      6  C   UNL     1       6.324   1.053   0.000  0.00  0.00    +0.000 A 
ATOM      7 BR   UNL     1       5.609   3.115   0.000  0.00  0.00    +0.000 Br
ATOM      8 BR   UNL     1       4.180   0.640   0.000  0.00  0.00    +0.000 Br
ENDROOT
BRANCH   1  11
ATOM      9  C   UNL     1       4.895  -0.597   0.000  0.00  0.00    +0.000 C 
ATOM     10  O   UNL     1       4.180  -0.185   0.000  0.00  0.00    +0.000 OA
ATOM     11  N   UNL     1       5.609  -0.185   0.000  0.00  0.00    +0.000 NA
BRANCH   9  15
ATOM     12  C   UNL     1       5.307  -2.692   0.000  0.00  0.00    +0.000 A 
ATOM     13  C   UNL     1       4.482  -2.692   0.000  0.00  0.00    +0.000 A 
ATOM     14  S   UNL     1       4.227  -1.907   0.000  0.00  0.00    +0.000 S 
ATOM     15  C   UNL     1       4.895  -1.422   0.000  0.00  0.00    +0.000 A 
ATOM     16  C   UNL     1       5.562  -1.907   0.000  0.00  0.00    +0.000 A 
ENDBRANCH   9  15
ENDBRANCH   1  11
BRANCH   6  17
ATOM     17  C   UNL     1       7.038   0.640   0.000  0.00  0.00    +0.000 C 
BRANCH  17  18
ATOM     18  N   UNL     1       7.753   1.053   0.000  0.00  0.00    +0.000 NA
BRANCH  18  19
ATOM     19  C   UNL     1       8.467   0.640   0.000  0.00  0.00    +0.000 C 
ATOM     20  C   UNL     1       9.181   1.053   0.000  0.00  0.00    +0.000 C 
ATOM     21  C   UNL     1       9.896   0.640   0.000  0.00  0.00    +0.000 C 
ATOM     22  C   UNL     1       9.896  -0.185   0.000  0.00  0.00    +0.000 C 
ATOM     23  C   UNL     1       9.181  -0.597   0.000  0.00  0.00    +0.000 C 
ATOM     24  C   UNL     1       8.467  -0.185   0.000  0.00  0.00    +0.000 C 
ATOM     25  O   UNL     1      10.610  -0.597   0.000  0.00  0.00    +0.000 OA
ENDBRANCH  18  19
ENDBRANCH  17  18
ENDBRANCH   6  17
TORSDOF 5
