REMARK  Name = 
REMARK  17 active torsions:
REMARK  status: ('A' for Active; 'I' for Inactive)
REMARK    1  A    between atoms: C_3  and  O_4
REMARK    2  A    between atoms: O_4  and  C_5
REMARK    3  A    between atoms: C_5  and  C_7
REMARK    4  A    between atoms: C_16  and  O_17
REMARK    5  A    between atoms: O_17  and  C_18
REMARK    6  A    between atoms: C_18  and  C_20
REMARK    7  A    between atoms: C_20  and  C_22
REMARK    8  A    between atoms: C_22  and  C_23
REMARK    9  A    between atoms: C_22  and  N_27
REMARK   10  A    between atoms: C_23  and  C_24
REMARK   11  A    between atoms: C_28  and  O_30
REMARK   12  A    between atoms: O_30  and  C_31
REMARK   13  A    between atoms: C_38  and  O_39
REMARK   14  A    between atoms: O_39  and  C_40
REMARK   15  A    between atoms: C_45  and  C_59
REMARK   16  A    between atoms: C_52  and  O_53
REMARK   17  A    between atoms: O_53  and  C_54
REMARK                            x       y       z     vdW  Elec       q    Type
REMARK                         _______ _______ _______ _____ _____    ______ ____
ROOT
ATOM      1  C   UNL     1       1.256  -2.483   0.000  0.00  0.00    +0.000 C 
ATOM      2  C   UNL     1       1.780  -1.804   0.000  0.00  0.00    +0.000 C 
ATOM      3  C   UNL     1       2.614  -1.648   0.000  0.00  0.00    +0.000 C 
ATOM      4  O   UNL     1       2.308  -0.882   0.000  0.00  0.00    +0.000 OA
ATOM      5  C   UNL     1       3.327  -1.184   0.000  0.00  0.00    +0.000 C 
ATOM      6  C   UNL     1       4.093  -1.554   0.000  0.00  0.00    +0.000 C 
ATOM      7  C   UNL     1       4.120  -2.415   0.000  0.00  0.00    +0.000 C 
ATOM      8  C   UNL     1       4.862  -2.775   0.000  0.00  0.00    +0.000 C 
ATOM      9  C   UNL     1       3.427  -2.927   0.000  0.00  0.00    +0.000 C 
ATOM     10  C   UNL     1       2.908  -3.623   0.000  0.00  0.00    +0.000 C 
ATOM     11  C   UNL     1       2.065  -3.820   0.000  0.00  0.00    +0.000 C 
ATOM     12  O   UNL     1       2.010  -4.667   0.000  0.00  0.00    +0.000 OA
ATOM     13  C   UNL     1       1.283  -5.067   0.000  0.00  0.00    +0.000 C 
ATOM     14  O   UNL     1       0.583  -4.627   0.000  0.00  0.00    +0.000 OA
ATOM     15  C   UNL     1       0.611  -3.787   0.000  0.00  0.00    +0.000 C 
ATOM     16  C   UNL     1      -0.137  -3.408   0.000  0.00  0.00    +0.000 C 
ATOM     17  C   UNL     1      -0.187  -2.582   0.000  0.00  0.00    +0.000 C 
ATOM     18  O   UNL     1      -0.645  -1.895   0.000  0.00  0.00    +0.000 OA
ATOM     19  C   UNL     1       0.041  -1.437   0.000  0.00  0.00    +0.000 C 
ATOM     20  C   UNL     1       0.499  -2.123   0.000  0.00  0.00    +0.000 C 
ATOM     21  C   UNL     1       1.344  -3.344   0.000  0.00  0.00    +0.000 C 
ATOM     22  C   UNL     1       2.050  -2.917   0.000  0.00  0.00    +0.000 C 
ATOM     23  C   UNL     1       2.973  -2.328   0.000  0.00  0.00    +0.000 C 
ATOM     24  C   UNL     1       2.494  -3.000   0.000  0.00  0.00    +0.000 C 
ATOM     25  C   UNL     1       2.161  -2.477   0.000  0.00  0.00    +0.000 C 
ENDROOT
BRANCH  13  26
ATOM     26  C   UNL     1       1.259  -5.892   0.000  0.00  0.00    +0.000 C 
ATOM     27  C   UNL     1       0.533  -6.284   0.000  0.00  0.00    +0.000 C 
ENDBRANCH  13  26
BRANCH   6  28
ATOM     28  O   UNL     1       4.785  -1.105   0.000  0.00  0.00    +0.000 OA
BRANCH  28  29
ATOM     29  C   UNL     1       4.742  -0.281   0.000  0.00  0.00    +0.000 C 
ATOM     30  O   UNL     1       4.007   0.093   0.000  0.00  0.00    +0.000 OA
BRANCH  29  31
ATOM     31  C   UNL     1       5.434   0.168   0.000  0.00  0.00    +0.000 C 
ATOM     32  O   UNL     1       6.169  -0.207   0.000  0.00  0.00    +0.000 OA
BRANCH  31  33
ATOM     33  C   UNL     1       5.391   0.992   0.000  0.00  0.00    +0.000 C 
BRANCH  33  34
ATOM     34  N   UNL     1       6.083   1.441   0.000  0.00  0.00    +0.000 NA
ATOM     35  C   UNL     1       6.040   2.265   0.000  0.00  0.00    +0.000 C 
ATOM     36  O   UNL     1       5.305   2.639   0.000  0.00  0.00    +0.000 OA
BRANCH  35  37
ATOM     37  O   UNL     1       6.732   2.714   0.000  0.00  0.00    +0.000 OA
BRANCH  37  38
ATOM     38  C   UNL     1       6.689   3.538   0.000  0.00  0.00    +0.000 C 
ATOM     39  C   UNL     1       6.646   4.362   0.000  0.00  0.00    +0.000 C 
ATOM     40  C   UNL     1       7.513   3.581   0.000  0.00  0.00    +0.000 C 
ATOM     41  C   UNL     1       5.866   3.495   0.000  0.00  0.00    +0.000 C 
ENDBRANCH  37  38
ENDBRANCH  35  37
ENDBRANCH  33  34
BRANCH  33  42
ATOM     42  C   UNL     1       4.656   1.366   0.000  0.00  0.00    +0.000 C 
BRANCH  42  43
ATOM     43  C   UNL     1       3.964   0.917   0.000  0.00  0.00    +0.000 C 
ATOM     44  C   UNL     1       3.515   0.225   0.000  0.00  0.00    +0.000 C 
ATOM     45  C   UNL     1       3.229   1.292   0.000  0.00  0.00    +0.000 C 
ENDBRANCH  42  43
ENDBRANCH  33  42
ENDBRANCH  31  33
ENDBRANCH  29  31
ENDBRANCH  28  29
ENDBRANCH   6  28
BRANCH   2  46
ATOM     46  O   UNL     1       1.349  -1.101   0.000  0.00  0.00    +0.000 OA
BRANCH  46  47
ATOM     47  C   UNL     1       1.742  -0.376   0.000  0.00  0.00    +0.000 C 
ATOM     48  O   UNL     1       2.567  -0.354   0.000  0.00  0.00    +0.000 OA
BRANCH  47  49
ATOM     49  C   UNL     1       1.312   0.328   0.000  0.00  0.00    +0.000 A 
ATOM     50  C   UNL     1       0.487   0.306   0.000  0.00  0.00    +0.000 A 
ATOM     51  C   UNL     1       0.056   1.010   0.000  0.00  0.00    +0.000 A 
ATOM     52  C   UNL     1       0.450   1.735   0.000  0.00  0.00    +0.000 A 
ATOM     53  C   UNL     1       1.274   1.756   0.000  0.00  0.00    +0.000 A 
ATOM     54  C   UNL     1       1.705   1.053   0.000  0.00  0.00    +0.000 A 
ENDBRANCH  47  49
ENDBRANCH  46  47
ENDBRANCH   2  46
BRANCH  10  55
ATOM     55  O   UNL     1       3.359  -4.314   0.000  0.00  0.00    +0.000 OA
BRANCH  55  56
ATOM     56  C   UNL     1       4.183  -4.268   0.000  0.00  0.00    +0.000 C 
ATOM     57  C   UNL     1       4.555  -3.531   0.000  0.00  0.00    +0.000 C 
ATOM     58  O   UNL     1       4.635  -4.958   0.000  0.00  0.00    +0.000 OA
ENDBRANCH  55  56
ENDBRANCH  10  55
BRANCH  20  59
ATOM     59  O   UNL     1       1.039  -1.499   0.000  0.00  0.00    +0.000 OA
BRANCH  59  60
ATOM     60  C   UNL     1       0.768  -0.720   0.000  0.00  0.00    +0.000 C 
ATOM     61  C   UNL     1      -0.042  -0.565   0.000  0.00  0.00    +0.000 C 
ATOM     62  O   UNL     1       1.307  -0.096   0.000  0.00  0.00    +0.000 OA
ENDBRANCH  59  60
ENDBRANCH  20  59
TORSDOF 17
