REMARK  Name = 
REMARK  4 active torsions:
REMARK  status: ('A' for Active; 'I' for Inactive)
REMARK    1  A    between atoms: C_7  and  C_8
REMARK    2  A    between atoms: C_13  and  C_28
REMARK    3  A    between atoms: N_16  and  C_17
REMARK    4  A    between atoms: C_20  and  C_23
REMARK                            x       y       z     vdW  Elec       q    Type
REMARK                         _______ _______ _______ _____ _____    ______ ____
ROOT
ATOM      1  C   UNL     1       0.654  -0.698   0.000  0.00  0.00    +0.000 A 
ATOM      2  N   UNL     1       1.139  -0.030   0.000  0.00  0.00    +0.000 NA
ATOM      3  C   UNL     1       1.923  -0.285   0.000  0.00  0.00    +0.000 A 
ATOM      4  C   UNL     1       2.638   0.127   0.000  0.00  0.00    +0.000 A 
ATOM      5  C   UNL     1       3.352  -0.285   0.000  0.00  0.00    +0.000 A 
ATOM      6  C   UNL     1       3.352  -1.110   0.000  0.00  0.00    +0.000 A 
ATOM      7  N   UNL     1       2.638  -1.523   0.000  0.00  0.00    +0.000 NA
ATOM      8  C   UNL     1       1.923  -1.110   0.000  0.00  0.00    +0.000 A 
ATOM      9  N   UNL     1       1.139  -1.365   0.000  0.00  0.00    +0.000 N 
ENDROOT
BRANCH   1  16
ATOM     10  N   UNL     1      -0.171   0.731   0.000  0.00  0.00    +0.000 NA
ATOM     11  C   UNL     1      -0.584   0.017   0.000  0.00  0.00    +0.000 A 
ATOM     12  N   UNL     1      -1.409   0.017   0.000  0.00  0.00    +0.000 NA
ATOM     13  C   UNL     1      -1.821  -0.698   0.000  0.00  0.00    +0.000 A 
ATOM     14  C   UNL     1      -1.409  -1.412   0.000  0.00  0.00    +0.000 A 
ATOM     15  C   UNL     1      -0.584  -1.412   0.000  0.00  0.00    +0.000 A 
ATOM     16  C   UNL     1      -0.171  -0.698   0.000  0.00  0.00    +0.000 A 
ENDBRANCH   1  16
BRANCH   9  17
ATOM     17  C   UNL     1       0.884  -2.150   0.000  0.00  0.00    +0.000 A 
ATOM     18  C   UNL     1       1.436  -2.763   0.000  0.00  0.00    +0.000 A 
ATOM     19  C   UNL     1       1.181  -3.548   0.000  0.00  0.00    +0.000 A 
ATOM     20  C   UNL     1       0.374  -3.719   0.000  0.00  0.00    +0.000 A 
ATOM     21  C   UNL     1      -0.178  -3.106   0.000  0.00  0.00    +0.000 A 
ATOM     22  C   UNL     1       0.077  -2.321   0.000  0.00  0.00    +0.000 A 
BRANCH  20  23
ATOM     23  C   UNL     1       0.119  -4.504   0.000  0.00  0.00    +0.000 C 
ATOM     24  N   UNL     1      -0.666  -4.249   0.000  0.00  0.00    +0.000 NA
ATOM     25  C   UNL     1       0.904  -4.759   0.000  0.00  0.00    +0.000 C 
ATOM     26  C   UNL     1       0.649  -5.543   0.000  0.00  0.00    +0.000 C 
ATOM     27  C   UNL     1      -0.136  -5.288   0.000  0.00  0.00    +0.000 C 
ENDBRANCH  20  23
ENDBRANCH   9  17
BRANCH   6  28
ATOM     28  C   UNL     1       4.067  -1.523   0.000  0.00  0.00    +0.000 A 
ATOM     29  C   UNL     1       4.781  -1.110   0.000  0.00  0.00    +0.000 A 
ATOM     30  C   UNL     1       5.496  -1.523   0.000  0.00  0.00    +0.000 A 
ATOM     31  C   UNL     1       5.496  -2.348   0.000  0.00  0.00    +0.000 A 
ATOM     32  C   UNL     1       4.781  -2.760   0.000  0.00  0.00    +0.000 A 
ATOM     33  C   UNL     1       4.067  -2.348   0.000  0.00  0.00    +0.000 A 
ENDBRANCH   6  28
TORSDOF 4
