REMARK  Name = 
REMARK  2 active torsions:
REMARK  status: ('A' for Active; 'I' for Inactive)
REMARK    1  A    between atoms: C_1  and  C_15
REMARK    2  A    between atoms: C_15  and  C_16
REMARK                            x       y       z     vdW  Elec       q    Type
REMARK                         _______ _______ _______ _____ _____    ______ ____
ROOT
ATOM      1  N   UNL     1       1.429   0.206   0.000  0.00  0.00    +0.000 NA
ATOM      2  N   UNL     1       0.714   1.444   0.000  0.00  0.00    +0.000 NA
ATOM      3  C   UNL     1       0.714  -0.206   0.000  0.00  0.00    +0.000 C 
ATOM      4  O   UNL     1       0.714  -1.031   0.000  0.00  0.00    +0.000 OA
ATOM      5  C   UNL     1       0.000   1.031   0.000  0.00  0.00    +0.000 C 
ATOM      6  O   UNL     1      -0.715   1.444   0.000  0.00  0.00    +0.000 OA
ATOM      7  C   UNL     1       1.429   1.031   0.000  0.00  0.00    +0.000 C 
ATOM      8  O   UNL     1       2.143   1.444   0.000  0.00  0.00    +0.000 OA
ATOM      9  C   UNL     1       0.000   0.206   0.000  0.00  0.00    +0.000 C 
ENDROOT
BRANCH   9  10
ATOM     10  C   UNL     1      -0.714  -0.206   0.000  0.00  0.00    +0.000 A 
ATOM     11  C   UNL     1      -1.429  -1.444   0.000  0.00  0.00    +0.000 A 
ATOM     12  C   UNL     1      -0.714  -1.031   0.000  0.00  0.00    +0.000 A 
ATOM     13  C   UNL     1      -1.429   0.206   0.000  0.00  0.00    +0.000 A 
ATOM     14  C   UNL     1      -2.143  -0.206   0.000  0.00  0.00    +0.000 A 
ATOM     15  C   UNL     1      -2.143  -1.031   0.000  0.00  0.00    +0.000 A 
ENDBRANCH   9  10
BRANCH   9  16
ATOM     16  C   UNL     1      -0.825   0.206   0.000  0.00  0.00    +0.000 C 
ATOM     17  C   UNL     1      -1.237   0.921   0.000  0.00  0.00    +0.000 C 
ENDBRANCH   9  16
TORSDOF 2
