REMARK  Name = 
REMARK  12 active torsions:
REMARK  status: ('A' for Active; 'I' for Inactive)
REMARK    1  A    between atoms: CA_2  and  C_3
REMARK    2  A    between atoms: CA_2  and  N_6
REMARK    3  A    between atoms: C_7  and  CA_9
REMARK    4  A    between atoms: CA_9  and  CB_10
REMARK    5  A    between atoms: CA_9  and  N_15
REMARK    6  A    between atoms: CB_10  and  CG_11
REMARK    7  A    between atoms: CG_11  and  CD_12
REMARK    8  A    between atoms: C_16  and  C_18
REMARK    9  A    between atoms: C_18  and  C_19
REMARK   10  A    between atoms: C_19  and  C_20
REMARK   11  A    between atoms: C_20  and  C_21
REMARK   12  A    between atoms: C_21  and  C_22
REMARK                            x       y       z     vdW  Elec       q    Type
REMARK                         _______ _______ _______ _____ _____    ______ ____
ROOT
ATOM      1  CA  GLU A   1       9.207  -5.820   0.000  0.00  0.00    +0.000 C 
ENDROOT
BRANCH   1   3
ATOM      2  N   GLU A   1       7.778  -5.820   0.000  0.00  0.00    +0.000 NA
ATOM      3  C   GLU A   1       8.492  -6.233   0.000  0.00  0.00    +0.000 C 
ATOM      4  O   GLU A   1       8.492  -7.058   0.000  0.00  0.00    +0.000 OA
BRANCH   2   6
ATOM      5  CB  GLU A   1       7.064  -7.058   0.000  0.00  0.00    +0.000 C 
ATOM      6  CA  GLU A   1       7.064  -6.233   0.000  0.00  0.00    +0.000 C 
BRANCH   6   7
ATOM      7  C   GLU A   1       6.349  -5.820   0.000  0.00  0.00    +0.000 C 
ATOM      8  O   GLU A   1       5.635  -6.233   0.000  0.00  0.00    +0.000 OA
ATOM      9  OXT GLU A   1       6.349  -4.995   0.000  0.00  0.00    +0.000 OA
ENDBRANCH   6   7
ENDBRANCH   2   6
ENDBRANCH   1   3
BRANCH   1  10
ATOM     10  N   GLU A   1       9.921  -6.233   0.000  0.00  0.00    +0.000 NA
ATOM     11  C   UNK A   0      10.636  -5.820   0.000  0.00  0.00    +0.000 C 
ATOM     12  O   UNK A   0      10.636  -4.995   0.000  0.00  0.00    +0.000 OA
BRANCH  11  13
ATOM     13  C   UNK A   0      11.350  -6.233   0.000  0.00  0.00    +0.000 C 
BRANCH  13  14
ATOM     14  C   UNK A   0      12.065  -5.820   0.000  0.00  0.00    +0.000 C 
BRANCH  14  15
ATOM     15  C   UNK A   0      12.779  -6.233   0.000  0.00  0.00    +0.000 C 
BRANCH  15  16
ATOM     16  C   UNK A   0      13.494  -5.820   0.000  0.00  0.00    +0.000 C 
BRANCH  16  17
ATOM     17  C   UNK A   0      14.208  -6.233   0.000  0.00  0.00    +0.000 C 
ATOM     18  C   UNK A   0      14.962  -5.897   0.000  0.00  0.00    +0.000 C 
ATOM     19  C   UNK A   0      15.514  -6.510   0.000  0.00  0.00    +0.000 C 
ATOM     20  S   UNK A   0      15.101  -7.225   0.000  0.00  0.00    +0.000 S 
ATOM     21  S   UNK A   0      14.294  -7.053   0.000  0.00  0.00    +0.000 S 
ENDBRANCH  16  17
ENDBRANCH  15  16
ENDBRANCH  14  15
ENDBRANCH  13  14
ENDBRANCH  11  13
ENDBRANCH   1  10
BRANCH   1  22
ATOM     22  CB  GLU A   1       9.207  -4.995   0.000  0.00  0.00    +0.000 C 
BRANCH  22  23
ATOM     23  CG  GLU A   1       9.921  -4.583   0.000  0.00  0.00    +0.000 C 
BRANCH  23  24
ATOM     24  CD  GLU A   1       9.921  -3.758   0.000  0.00  0.00    +0.000 C 
ATOM     25  OE1 GLU A   1       9.207  -3.345   0.000  0.00  0.00    +0.000 OA
ATOM     26  OE2 GLU A   1      10.636  -3.345   0.000  0.00  0.00    +0.000 OA
ENDBRANCH  23  24
ENDBRANCH  22  23
ENDBRANCH   1  22
TORSDOF 12
