REMARK  Name = 
REMARK  4 active torsions:
REMARK  status: ('A' for Active; 'I' for Inactive)
REMARK    1  A    between atoms: C_2  and  N_4
REMARK    2  A    between atoms: N_4  and  C_5
REMARK    3  A    between atoms: C_5  and  C_6
REMARK    4  A    between atoms: C_6  and  C_7
REMARK                            x       y       z     vdW  Elec       q    Type
REMARK                         _______ _______ _______ _____ _____    ______ ____
ROOT
ATOM      1  C   UNL     1       3.572  -2.888   0.000  0.00  0.00    +0.000 A 
ATOM      2  C   UNL     1       4.287  -2.475   0.000  0.00  0.00    +0.000 A 
ATOM      3  C   UNL     1       5.001  -2.888   0.000  0.00  0.00    +0.000 A 
ATOM      4  C   UNL     1       5.001  -3.712   0.000  0.00  0.00    +0.000 A 
ATOM      5  C   UNL     1       4.287  -4.125   0.000  0.00  0.00    +0.000 A 
ATOM      6  C   UNL     1       3.572  -3.712   0.000  0.00  0.00    +0.000 A 
ATOM      7 CL   UNL     1       4.287  -4.950   0.000  0.00  0.00    +0.000 Cl
ATOM      8 CL   UNL     1       5.716  -4.125   0.000  0.00  0.00    +0.000 Cl
ENDROOT
BRANCH   1   9
ATOM      9  C   UNL     1       2.858  -2.475   0.000  0.00  0.00    +0.000 C 
ATOM     10  O   UNL     1       2.858  -1.650   0.000  0.00  0.00    +0.000 OA
BRANCH   9  11
ATOM     11  C   UNL     1       2.143  -2.888   0.000  0.00  0.00    +0.000 C 
BRANCH  11  12
ATOM     12  N   UNL     1       1.429  -2.475   0.000  0.00  0.00    +0.000 NA
BRANCH  12  14
ATOM     13  C   UNL     1       0.000  -2.475   0.000  0.00  0.00    +0.000 C 
ATOM     14  C   UNL     1       0.715  -2.888   0.000  0.00  0.00    +0.000 C 
ATOM     15  C   UNL     1       0.715  -3.712   0.000  0.00  0.00    +0.000 C 
ENDBRANCH  12  14
ENDBRANCH  11  12
ENDBRANCH   9  11
ENDBRANCH   1   9
TORSDOF 4
