REMARK  Name = 
REMARK  4 active torsions:
REMARK  status: ('A' for Active; 'I' for Inactive)
REMARK    1  A    between atoms: C_2  and  C_7
REMARK    2  A    between atoms: C_3  and  C_4
REMARK    3  A    between atoms: C_8  and  C_9
REMARK    4  A    between atoms: C_11  and  C_13
REMARK                            x       y       z     vdW  Elec       q    Type
REMARK                         _______ _______ _______ _____ _____    ______ ____
ROOT
ATOM      1  C   UNL     1      -0.715  -0.412   0.000  0.00  0.00    +0.000 A 
ATOM      2  C   UNL     1      -0.715  -1.238   0.000  0.00  0.00    +0.000 A 
ATOM      3  C   UNL     1       0.000  -1.650   0.000  0.00  0.00    +0.000 A 
ATOM      4  C   UNL     1       0.715  -1.238   0.000  0.00  0.00    +0.000 A 
ATOM      5  C   UNL     1       0.715  -0.412   0.000  0.00  0.00    +0.000 A 
ATOM      6  C   UNL     1       0.000   0.000   0.000  0.00  0.00    +0.000 A 
ATOM      7  C   UNL     1       1.429   0.000   0.000  0.00  0.00    +0.000 C 
ATOM      8  C   UNL     1       2.143  -0.412   0.000  0.00  0.00    +0.000 C 
ATOM      9  C   UNL     1       2.143  -1.238   0.000  0.00  0.00    +0.000 C 
ATOM     10  C   UNL     1       1.429  -1.650   0.000  0.00  0.00    +0.000 C 
ATOM     11  C   UNL     1       1.816  -2.378   0.000  0.00  0.00    +0.000 C 
ATOM     12  C   UNL     1       1.042  -2.378   0.000  0.00  0.00    +0.000 C 
ATOM     13  C   UNL     1       1.042   0.728   0.000  0.00  0.00    +0.000 C 
ATOM     14  C   UNL     1       1.816   0.728   0.000  0.00  0.00    +0.000 C 
ENDROOT
BRANCH   1  17
ATOM     15  C   UNL     1      -2.105  -0.473   0.000  0.00  0.00    +0.000 C 
ATOM     16  C   UNL     1      -2.177   0.349   0.000  0.00  0.00    +0.000 C 
ATOM     17  C   UNL     1      -1.429   0.000   0.000  0.00  0.00    +0.000 C 
ATOM     18  C   UNL     1      -0.797   0.530   0.000  0.00  0.00    +0.000 C 
BRANCH  15  20
ATOM     19  C   UNL     1      -3.275  -1.293   0.000  0.00  0.00    +0.000 C 
ATOM     20  C   UNL     1      -2.453  -1.221   0.000  0.00  0.00    +0.000 C 
BRANCH  19  22
ATOM     21  C   UNL     1      -3.151  -2.716   0.000  0.00  0.00    +0.000 C 
ATOM     22  C   UNL     1      -3.624  -2.041   0.000  0.00  0.00    +0.000 C 
ATOM     23  C   UNL     1      -4.446  -2.112   0.000  0.00  0.00    +0.000 C 
BRANCH  23  24
ATOM     24  C   UNL     1      -4.794  -2.860   0.000  0.00  0.00    +0.000 C 
ATOM     25  O   UNL     1      -5.616  -2.932   0.000  0.00  0.00    +0.000 OA
ATOM     26  O   UNL     1      -4.321  -3.536   0.000  0.00  0.00    +0.000 OA
ENDBRANCH  23  24
ENDBRANCH  19  22
ENDBRANCH  15  20
ENDBRANCH   1  17
TORSDOF 4
