REMARK  Name = 
REMARK  9 active torsions:
REMARK  status: ('A' for Active; 'I' for Inactive)
REMARK    1  A    between atoms: C_4  and  C_27
REMARK    2  A    between atoms: N_12  and  C_13
REMARK    3  A    between atoms: C_16  and  O_19
REMARK    4  A    between atoms: O_19  and  C_20
REMARK    5  A    between atoms: C_20  and  C_21
REMARK    6  A    between atoms: C_21  and  N_22
REMARK    7  A    between atoms: C_29  and  O_34
REMARK    8  A    between atoms: O_34  and  C_35
REMARK    9  A    between atoms: C_35  and  C_37
REMARK                            x       y       z     vdW  Elec       q    Type
REMARK                         _______ _______ _______ _____ _____    ______ ____
ROOT
ATOM      1  C   UNL     1       0.000   0.825   0.000  0.00  0.00    +0.000 C 
ATOM      2  C   UNL     1       0.000   0.000   0.000  0.00  0.00    +0.000 A 
ATOM      3  C   UNL     1      -0.715  -0.412   0.000  0.00  0.00    +0.000 A 
ATOM      4  C   UNL     1      -0.715  -1.238   0.000  0.00  0.00    +0.000 A 
ATOM      5  C   UNL     1       0.000  -1.650   0.000  0.00  0.00    +0.000 A 
ATOM      6  C   UNL     1       0.715  -1.238   0.000  0.00  0.00    +0.000 A 
ATOM      7  C   UNL     1       0.715  -0.412   0.000  0.00  0.00    +0.000 A 
ATOM      8  N   UNL     1       1.429   0.000   0.000  0.00  0.00    +0.000 NA
ATOM      9  C   UNL     1       2.143  -0.412   0.000  0.00  0.00    +0.000 A 
ATOM     10  N   UNL     1       2.143  -1.238   0.000  0.00  0.00    +0.000 NA
ATOM     11  N   UNL     1       1.429  -1.650   0.000  0.00  0.00    +0.000 NA
ATOM     12  N   UNL     1       2.858   0.000   0.000  0.00  0.00    +0.000 NA
ENDROOT
BRANCH   4  13
ATOM     13  C   UNL     1      -1.429  -1.650   0.000  0.00  0.00    +0.000 A 
ATOM     14  C   UNL     1      -1.429  -2.475   0.000  0.00  0.00    +0.000 A 
ATOM     15  C   UNL     1      -2.143  -2.888   0.000  0.00  0.00    +0.000 A 
ATOM     16  C   UNL     1      -2.858  -2.475   0.000  0.00  0.00    +0.000 A 
ATOM     17  C   UNL     1      -2.858  -1.650   0.000  0.00  0.00    +0.000 A 
ATOM     18  C   UNL     1      -2.143  -1.238   0.000  0.00  0.00    +0.000 A 
ATOM     19 CL   UNL     1      -2.143  -0.412   0.000  0.00  0.00    +0.000 Cl
BRANCH  15  20
ATOM     20  O   UNL     1      -2.143  -3.712   0.000  0.00  0.00    +0.000 OA
BRANCH  20  21
ATOM     21  C   UNL     1      -2.858  -4.125   0.000  0.00  0.00    +0.000 C 
ATOM     22  O   UNL     1      -2.858  -4.950   0.000  0.00  0.00    +0.000 OA
BRANCH  21  23
ATOM     23  C   UNL     1      -3.572  -3.712   0.000  0.00  0.00    +0.000 A 
ATOM     24  C   UNL     1      -4.287  -4.125   0.000  0.00  0.00    +0.000 A 
ATOM     25  C   UNL     1      -5.001  -3.712   0.000  0.00  0.00    +0.000 A 
ATOM     26  C   UNL     1      -5.001  -2.888   0.000  0.00  0.00    +0.000 A 
ATOM     27  C   UNL     1      -4.287  -2.475   0.000  0.00  0.00    +0.000 A 
ATOM     28  C   UNL     1      -3.572  -2.888   0.000  0.00  0.00    +0.000 A 
ENDBRANCH  21  23
ENDBRANCH  20  21
ENDBRANCH  15  20
ENDBRANCH   4  13
BRANCH  12  29
ATOM     29  C   UNL     1       3.572  -0.412   0.000  0.00  0.00    +0.000 A 
ATOM     30  C   UNL     1       4.287   0.000   0.000  0.00  0.00    +0.000 A 
ATOM     31  C   UNL     1       5.001  -0.412   0.000  0.00  0.00    +0.000 A 
ATOM     32  C   UNL     1       5.001  -1.238   0.000  0.00  0.00    +0.000 A 
ATOM     33  C   UNL     1       4.287  -1.650   0.000  0.00  0.00    +0.000 A 
ATOM     34  C   UNL     1       3.572  -1.238   0.000  0.00  0.00    +0.000 A 
BRANCH  32  35
ATOM     35  O   UNL     1       5.716  -1.650   0.000  0.00  0.00    +0.000 OA
BRANCH  35  36
ATOM     36  C   UNL     1       5.716  -2.475   0.000  0.00  0.00    +0.000 C 
BRANCH  36  37
ATOM     37  C   UNL     1       6.430  -2.888   0.000  0.00  0.00    +0.000 C 
BRANCH  37  38
ATOM     38  N   UNL     1       6.430  -3.712   0.000  0.00  0.00    +0.000 NA
ATOM     39  C   UNL     1       7.098  -4.197   0.000  0.00  0.00    +0.000 C 
ATOM     40  C   UNL     1       6.843  -4.982   0.000  0.00  0.00    +0.000 C 
ATOM     41  C   UNL     1       6.018  -4.982   0.000  0.00  0.00    +0.000 C 
ATOM     42  C   UNL     1       5.763  -4.197   0.000  0.00  0.00    +0.000 C 
ENDBRANCH  37  38
ENDBRANCH  36  37
ENDBRANCH  35  36
ENDBRANCH  32  35
ENDBRANCH  12  29
TORSDOF 9
