REMARK  Name = 
REMARK  2 active torsions:
REMARK  status: ('A' for Active; 'I' for Inactive)
REMARK    1  A    between atoms: C_4  and  O_17
REMARK    2  A    between atoms: C_6  and  N_30
REMARK                            x       y       z     vdW  Elec       q    Type
REMARK                         _______ _______ _______ _____ _____    ______ ____
ROOT
ATOM      1  C   UNL     1       1.869   1.410   0.000  0.00  0.00    +0.000 A 
ATOM      2  S   UNL     1       2.583   0.997   0.000  0.00  0.00    +0.000 S 
ATOM      3  N   UNL     1       3.197   1.548   0.000  0.00  0.00    +0.000 NA
ATOM      4  C   UNL     1       2.862   2.302   0.000  0.00  0.00    +0.000 A 
ATOM      5  N   UNL     1       2.042   2.217   0.000  0.00  0.00    +0.000 NA
ATOM      6  C   UNL     1      -2.594  -0.047   0.000  0.00  0.00    +0.000 C 
ATOM      7  C   UNL     1      -1.880  -0.461   0.000  0.00  0.00    +0.000 C 
ATOM      8  C   UNL     1      -2.422   0.759   0.000  0.00  0.00    +0.000 C 
ATOM      9  C   UNL     1      -1.601   0.845   0.000  0.00  0.00    +0.000 C 
ATOM     10  C   UNL     1      -1.264   0.091   0.000  0.00  0.00    +0.000 C 
ATOM     11  C   UNL     1      -0.444   0.179   0.000  0.00  0.00    +0.000 C 
ATOM     12  N   UNL     1      -0.273   0.986   0.000  0.00  0.00    +0.000 N 
ATOM     13  C   UNL     1      -0.989   1.398   0.000  0.00  0.00    +0.000 C 
ATOM     14  C   UNL     1       0.437   1.408   0.000  0.00  0.00    +0.000 C 
ATOM     15  N   UNL     1       1.151   0.995   0.000  0.00  0.00    +0.000 NA
ATOM     16  O   UNL     1       0.433   2.235   0.000  0.00  0.00    +0.000 OA
ENDROOT
BRANCH   6  26
ATOM     17  C   UNL     1      -3.177  -1.461   0.000  0.00  0.00    +0.000 A 
ATOM     18  N   UNL     1      -3.894  -1.868   0.000  0.00  0.00    +0.000 NA
ATOM     19  C   UNL     1      -3.899  -2.691   0.000  0.00  0.00    +0.000 A 
ATOM     20  N   UNL     1      -3.187  -3.107   0.000  0.00  0.00    +0.000 NA
ATOM     21  C   UNL     1      -2.468  -1.873   0.000  0.00  0.00    +0.000 A 
ATOM     22  C   UNL     1      -2.466  -2.695   0.000  0.00  0.00    +0.000 A 
ATOM     23  N   UNL     1      -1.684  -2.948   0.000  0.00  0.00    +0.000 NA
ATOM     24  C   UNL     1      -1.202  -2.282   0.000  0.00  0.00    +0.000 A 
ATOM     25  C   UNL     1      -1.687  -1.618   0.000  0.00  0.00    +0.000 A 
ATOM     26  N   UNL     1      -3.183  -0.634   0.000  0.00  0.00    +0.000 N 
ATOM     27  C   UNL     1      -3.771  -0.045   0.000  0.00  0.00    +0.000 C 
ENDBRANCH   6  26
BRANCH   4  28
ATOM     28  O   UNL     1       3.072   3.107   0.000  0.00  0.00    +0.000 OA
ATOM     29  C   UNL     1       3.899   3.107   0.000  0.00  0.00    +0.000 C 
ENDBRANCH   4  28
TORSDOF 2
