REMARK  Name = 
REMARK  1 active torsions:
REMARK  status: ('A' for Active; 'I' for Inactive)
REMARK    1  A    between atoms: C_6  and  C_7
REMARK                            x       y       z     vdW  Elec       q    Type
REMARK                         _______ _______ _______ _____ _____    ______ ____
ROOT
ATOM      1  C   UNL     1      -0.080  -0.825   0.000  0.00  0.00    +0.000 A 
ATOM      2  C   UNL     1      -0.794  -1.238   0.000  0.00  0.00    +0.000 A 
ATOM      3  C   UNL     1      -1.509  -0.825   0.000  0.00  0.00    +0.000 A 
ATOM      4  C   UNL     1      -1.509   0.000   0.000  0.00  0.00    +0.000 A 
ATOM      5  C   UNL     1      -0.794   0.412   0.000  0.00  0.00    +0.000 A 
ATOM      6  C   UNL     1      -0.080   0.000   0.000  0.00  0.00    +0.000 A 
ATOM      7  N   UNL     1      -2.293   0.255   0.000  0.00  0.00    +0.000 NA
ATOM      8  O   UNL     1      -2.778  -0.412   0.000  0.00  0.00    +0.000 OA
ATOM      9  N   UNL     1      -2.293  -1.080   0.000  0.00  0.00    +0.000 NA
ENDROOT
BRANCH   6  10
ATOM     10  C   UNL     1       0.635   0.412   0.000  0.00  0.00    +0.000 C 
ATOM     11  O   UNL     1       0.635   1.238   0.000  0.00  0.00    +0.000 OA
ATOM     12  N   UNL     1       1.349   0.000   0.000  0.00  0.00    +0.000 N 
ATOM     13  C   UNL     1       2.064   0.412   0.000  0.00  0.00    +0.000 C 
ATOM     14  C   UNL     1       2.778   0.000   0.000  0.00  0.00    +0.000 C 
ATOM     15  O   UNL     1       2.778  -0.825   0.000  0.00  0.00    +0.000 OA
ATOM     16  C   UNL     1       2.064  -1.238   0.000  0.00  0.00    +0.000 C 
ATOM     17  C   UNL     1       1.349  -0.825   0.000  0.00  0.00    +0.000 C 
ENDBRANCH   6  10
TORSDOF 1
