REMARK  Name = 
REMARK  2 active torsions:
REMARK  status: ('A' for Active; 'I' for Inactive)
REMARK    1  A    between atoms: C_5  and  C_20
REMARK    2  A    between atoms: N_10  and  C_11
REMARK                            x       y       z     vdW  Elec       q    Type
REMARK                         _______ _______ _______ _____ _____    ______ ____
ROOT
ATOM      1  C   UNL     1      -0.171  -0.698   0.000  0.00  0.00    +0.000 C 
ATOM      2  C   UNL     1       0.654  -0.698   0.000  0.00  0.00    +0.000 A 
ATOM      3  N   UNL     1       1.139  -0.030   0.000  0.00  0.00    +0.000 NA
ATOM      4  C   UNL     1       1.923  -0.285   0.000  0.00  0.00    +0.000 A 
ATOM      5  C   UNL     1       2.638   0.127   0.000  0.00  0.00    +0.000 A 
ATOM      6  N   UNL     1       3.352  -0.285   0.000  0.00  0.00    +0.000 NA
ATOM      7  C   UNL     1       3.352  -1.110   0.000  0.00  0.00    +0.000 A 
ATOM      8  N   UNL     1       2.638  -1.523   0.000  0.00  0.00    +0.000 NA
ATOM      9  C   UNL     1       1.923  -1.110   0.000  0.00  0.00    +0.000 A 
ATOM     10  N   UNL     1       1.139  -1.365   0.000  0.00  0.00    +0.000 N 
ATOM     11  N   UNL     1       4.067  -1.523   0.000  0.00  0.00    +0.000 N 
ATOM     12  C   UNL     1       4.781  -1.110   0.000  0.00  0.00    +0.000 C 
ATOM     13  C   UNL     1       5.496  -1.523   0.000  0.00  0.00    +0.000 C 
ATOM     14  O   UNL     1       5.496  -2.348   0.000  0.00  0.00    +0.000 OA
ATOM     15  C   UNL     1       4.781  -2.760   0.000  0.00  0.00    +0.000 C 
ATOM     16  C   UNL     1       4.067  -2.348   0.000  0.00  0.00    +0.000 C 
ENDROOT
BRANCH   5  17
ATOM     17  C   UNL     1       2.638   0.952   0.000  0.00  0.00    +0.000 A 
ATOM     18  C   UNL     1       1.923   1.365   0.000  0.00  0.00    +0.000 A 
ATOM     19  N   UNL     1       1.923   2.190   0.000  0.00  0.00    +0.000 NA
ATOM     20  C   UNL     1       2.638   2.602   0.000  0.00  0.00    +0.000 A 
ATOM     21  N   UNL     1       3.352   2.190   0.000  0.00  0.00    +0.000 NA
ATOM     22  C   UNL     1       3.352   1.365   0.000  0.00  0.00    +0.000 A 
ATOM     23  N   UNL     1       2.638   3.427   0.000  0.00  0.00    +0.000 NA
ENDBRANCH   5  17
BRANCH  10  24
ATOM     24  C   UNL     1       0.884  -2.150   0.000  0.00  0.00    +0.000 C 
ATOM     25  C   UNL     1       0.077  -2.321   0.000  0.00  0.00    +0.000 C 
ATOM     26  C   UNL     1       1.436  -2.763   0.000  0.00  0.00    +0.000 C 
ENDBRANCH  10  24
TORSDOF 2
