REMARK  Name = 
REMARK  13 active torsions:
REMARK  status: ('A' for Active; 'I' for Inactive)
REMARK    1  A    between atoms: C_2  and  C_3
REMARK    2  A    between atoms: C_3  and  C_4
REMARK    3  A    between atoms: C_3  and  N_18
REMARK    4  A    between atoms: C_4  and  O_6
REMARK    5  A    between atoms: O_6  and  C_7
REMARK    6  A    between atoms: C_8  and  O_16
REMARK    7  A    between atoms: C_12  and  O_13
REMARK    8  A    between atoms: N_18  and  C_19
REMARK    9  A    between atoms: N_18  and  C_23
REMARK   10  A    between atoms: C_19  and  C_20
REMARK   11  A    between atoms: C_20  and  O_21
REMARK   12  A    between atoms: C_23  and  C_24
REMARK   13  A    between atoms: C_24  and  O_25
REMARK                            x       y       z     vdW  Elec       q    Type
REMARK                         _______ _______ _______ _____ _____    ______ ____
ROOT
ATOM      1  C   UNL     1       5.001  -2.062   0.000  0.00  0.00    +0.000 C 
ATOM      2  O   UNL     1       5.716  -2.475   0.000  0.00  0.00    +0.000 OA
ENDROOT
BRANCH   1   3
ATOM      3  C   UNL     1       4.287  -2.475   0.000  0.00  0.00    +0.000 C 
BRANCH   3   5
ATOM      4  C   UNL     1       3.572  -1.238   0.000  0.00  0.00    +0.000 C 
ATOM      5  C   UNL     1       3.572  -2.062   0.000  0.00  0.00    +0.000 C 
ENDBRANCH   3   5
BRANCH   3   6
ATOM      6  N   UNL     1       4.287  -3.300   0.000  0.00  0.00    +0.000 NA
BRANCH   6   7
ATOM      7  C   UNL     1       3.572  -3.712   0.000  0.00  0.00    +0.000 C 
BRANCH   7   8
ATOM      8  C   UNL     1       3.572  -4.537   0.000  0.00  0.00    +0.000 C 
BRANCH   8   9
ATOM      9  O   UNL     1       2.858  -4.950   0.000  0.00  0.00    +0.000 OA
ATOM     10  C   UNL     1       2.858  -5.775   0.000  0.00  0.00    +0.000 C 
ENDBRANCH   8   9
ENDBRANCH   7   8
ENDBRANCH   6   7
BRANCH   6  11
ATOM     11  C   UNL     1       5.001  -3.712   0.000  0.00  0.00    +0.000 C 
BRANCH  11  12
ATOM     12  C   UNL     1       5.001  -4.537   0.000  0.00  0.00    +0.000 C 
BRANCH  12  13
ATOM     13  O   UNL     1       5.716  -4.950   0.000  0.00  0.00    +0.000 OA
ATOM     14  C   UNL     1       5.716  -5.775   0.000  0.00  0.00    +0.000 C 
ENDBRANCH  12  13
ENDBRANCH  11  12
ENDBRANCH   6  11
ENDBRANCH   3   6
ENDBRANCH   1   3
BRANCH   1  15
ATOM     15  O   UNL     1       5.001  -1.238   0.000  0.00  0.00    +0.000 OA
BRANCH  15  16
ATOM     16  C   UNL     1       5.716  -0.825   0.000  0.00  0.00    +0.000 A 
ATOM     17  C   UNL     1       5.716   0.000   0.000  0.00  0.00    +0.000 A 
ATOM     18  C   UNL     1       6.430   0.412   0.000  0.00  0.00    +0.000 A 
ATOM     19  C   UNL     1       7.145   0.000   0.000  0.00  0.00    +0.000 A 
ATOM     20  C   UNL     1       7.145  -0.825   0.000  0.00  0.00    +0.000 A 
ATOM     21  C   UNL     1       6.430  -1.238   0.000  0.00  0.00    +0.000 A 
ATOM     22  C   UNL     1       7.859   0.412   0.000  0.00  0.00    +0.000 C 
BRANCH  21  23
ATOM     23  O   UNL     1       6.430  -2.062   0.000  0.00  0.00    +0.000 OA
ATOM     24  C   UNL     1       7.145  -2.475   0.000  0.00  0.00    +0.000 C 
ENDBRANCH  21  23
BRANCH  17  25
ATOM     25  O   UNL     1       5.001   0.412   0.000  0.00  0.00    +0.000 OA
ATOM     26  C   UNL     1       4.287   0.000   0.000  0.00  0.00    +0.000 C 
ENDBRANCH  17  25
ENDBRANCH  15  16
ENDBRANCH   1  15
TORSDOF 13
