REMARK  Name = 
REMARK  3 active torsions:
REMARK  status: ('A' for Active; 'I' for Inactive)
REMARK    1  A    between atoms: N_1  and  C_10
REMARK    2  A    between atoms: C_2  and  C_4
REMARK    3  A    between atoms: C_9  and  C_16
REMARK                            x       y       z     vdW  Elec       q    Type
REMARK                         _______ _______ _______ _____ _____    ______ ____
ROOT
ATOM      1  N   UNL     1       1.690   0.619   0.000  0.00  0.00    +0.000 NA
ATOM      2  C   UNL     1       0.976   1.031   0.000  0.00  0.00    +0.000 C 
ATOM      3  O   UNL     1       0.976   1.856   0.000  0.00  0.00    +0.000 OA
ENDROOT
BRANCH   2   4
ATOM      4  C   UNL     1       0.262   0.619   0.000  0.00  0.00    +0.000 C 
ATOM      5  C   UNL     1      -0.453   1.031   0.000  0.00  0.00    +0.000 C 
ATOM      6  C   UNL     1       0.262  -0.206   0.000  0.00  0.00    +0.000 C 
ATOM      7  C   UNL     1      -1.167   0.619   0.000  0.00  0.00    +0.000 C 
ATOM      8  C   UNL     1      -0.453  -0.619   0.000  0.00  0.00    +0.000 C 
ATOM      9  C   UNL     1      -1.167  -0.206   0.000  0.00  0.00    +0.000 C 
BRANCH   9  10
ATOM     10  C   UNL     1      -1.992  -0.206   0.000  0.00  0.00    +0.000 C 
ATOM     11  N   UNL     1      -2.405  -0.921   0.000  0.00  0.00    +0.000 NA
ATOM     12  C   UNL     1      -2.405   0.508   0.000  0.00  0.00    +0.000 C 
ENDBRANCH   9  10
ENDBRANCH   2   4
BRANCH   1  13
ATOM     13  C   UNL     1       1.690  -0.206   0.000  0.00  0.00    +0.000 A 
ATOM     14  C   UNL     1       2.405  -0.619   0.000  0.00  0.00    +0.000 A 
ATOM     15  C   UNL     1       0.976  -0.619   0.000  0.00  0.00    +0.000 A 
ATOM     16  C   UNL     1       2.405  -1.444   0.000  0.00  0.00    +0.000 A 
ATOM     17  C   UNL     1       0.976  -1.444   0.000  0.00  0.00    +0.000 A 
ATOM     18  N   UNL     1       1.690  -1.856   0.000  0.00  0.00    +0.000 NA
ENDBRANCH   1  13
TORSDOF 3
