REMARK  Name = 
REMARK  23 active torsions:
REMARK  status: ('A' for Active; 'I' for Inactive)
REMARK    1  A    between atoms: S_1  and  C_50
REMARK    2  A    between atoms: S_1  and  C_51
REMARK    3  A    between atoms: P_2  and  O_6
REMARK    4  A    between atoms: P_3  and  O_8
REMARK    5  A    between atoms: P_3  and  O_11
REMARK    6  A    between atoms: P_4  and  O_11
REMARK    7  A    between atoms: P_4  and  O_13
REMARK    8  A    between atoms: O_6  and  C_30
REMARK    9  A    between atoms: O_8  and  C_34
REMARK   10  A    between atoms: O_13  and  C_40
REMARK   11  A    between atoms: N_23  and  C_33
REMARK   12  A    between atoms: N_27  and  C_41
REMARK   13  A    between atoms: N_28  and  C_46
REMARK   14  A    between atoms: N_29  and  C_49
REMARK   15  A    between atoms: C_32  and  C_34
REMARK   16  A    between atoms: C_38  and  C_39
REMARK   17  A    between atoms: C_38  and  C_40
REMARK   18  A    between atoms: C_39  and  C_45
REMARK   19  A    between atoms: C_46  and  C_47
REMARK   20  A    between atoms: C_47  and  C_48
REMARK   21  A    between atoms: C_49  and  C_50
REMARK   22  A    between atoms: C_51  and  C_52
REMARK   23  A    between atoms: C_52  and  C_53
REMARK                            x       y       z     vdW  Elec       q    Type
REMARK                         _______ _______ _______ _____ _____    ______ ____
ROOT
ATOM      1  P   UNL     1      -3.476   1.849   0.000  0.00  0.00    +0.000 P 
ATOM      2  O   UNL     1      -3.139   2.602   0.000  0.00  0.00    +0.000 OA
ATOM      3  O   UNL     1      -3.813   1.096   0.000  0.00  0.00    +0.000 OA
ENDROOT
BRANCH   1   4
ATOM      4  O   UNL     1      -2.723   1.512   0.000  0.00  0.00    +0.000 OA
BRANCH   4   5
ATOM      5  C   UNL     1      -2.054   1.996   0.000  0.00  0.00    +0.000 C 
BRANCH   5   6
ATOM      6  C   UNL     1      -1.301   1.659   0.000  0.00  0.00    +0.000 C 
ATOM      7  C   UNL     1      -0.964   2.412   0.000  0.00  0.00    +0.000 C 
ATOM      8  C   UNL     1      -1.638   0.906   0.000  0.00  0.00    +0.000 C 
BRANCH   6  10
ATOM      9  O   UNL     1      -0.463   0.501   0.000  0.00  0.00    +0.000 OA
ATOM     10  C   UNL     1      -0.548   1.322   0.000  0.00  0.00    +0.000 C 
BRANCH  10  13
ATOM     11  O   UNL     1       0.035   2.627   0.000  0.00  0.00    +0.000 OA
ATOM     12  N   UNL     1       0.873   1.469   0.000  0.00  0.00    +0.000 N 
ATOM     13  C   UNL     1       0.120   1.806   0.000  0.00  0.00    +0.000 C 
ATOM     14  H   UNL     1       0.926   0.960   0.000  0.00  0.00    +0.000 HD
BRANCH  12  15
ATOM     15  C   UNL     1       1.541   1.953   0.000  0.00  0.00    +0.000 C 
BRANCH  15  16
ATOM     16  C   UNL     1       2.294   1.616   0.000  0.00  0.00    +0.000 C 
BRANCH  16  19
ATOM     17  O   UNL     1       2.878   2.920   0.000  0.00  0.00    +0.000 OA
ATOM     18  N   UNL     1       3.716   1.763   0.000  0.00  0.00    +0.000 N 
ATOM     19  C   UNL     1       2.963   2.100   0.000  0.00  0.00    +0.000 C 
ATOM     20  H   UNL     1       3.768   1.254   0.000  0.00  0.00    +0.000 HD
BRANCH  18  21
ATOM     21  C   UNL     1       4.384   2.247   0.000  0.00  0.00    +0.000 C 
BRANCH  21  22
ATOM     22  C   UNL     1       5.137   1.910   0.000  0.00  0.00    +0.000 C 
BRANCH  22  23
ATOM     23  S   UNL     1       5.806   2.393   0.000  0.00  0.00    +0.000 S 
BRANCH  23  24
ATOM     24  C   UNL     1       6.559   2.057   0.000  0.00  0.00    +0.000 C 
BRANCH  24  26
ATOM     25  O   UNL     1       7.142   3.361   0.000  0.00  0.00    +0.000 OA
ATOM     26  C   UNL     1       7.227   2.540   0.000  0.00  0.00    +0.000 C 
BRANCH  26  28
ATOM     27  O   UNL     1      10.239   1.193   0.000  0.00  0.00    +0.000 OA
ATOM     28  C   UNL     1       7.980   2.204   0.000  0.00  0.00    +0.000 A 
ATOM     29  C   UNL     1       8.648   2.687   0.000  0.00  0.00    +0.000 A 
ATOM     30  C   UNL     1       8.065   1.383   0.000  0.00  0.00    +0.000 A 
ATOM     31  C   UNL     1       9.401   2.350   0.000  0.00  0.00    +0.000 A 
ATOM     32  C   UNL     1       8.818   1.046   0.000  0.00  0.00    +0.000 A 
ATOM     33  C   UNL     1       9.486   1.530   0.000  0.00  0.00    +0.000 A 
ENDBRANCH  26  28
ENDBRANCH  24  26
ENDBRANCH  23  24
ENDBRANCH  22  23
ENDBRANCH  21  22
ENDBRANCH  18  21
ENDBRANCH  16  19
ENDBRANCH  15  16
ENDBRANCH  12  15
ENDBRANCH  10  13
ENDBRANCH   6  10
ENDBRANCH   5   6
ENDBRANCH   4   5
ENDBRANCH   1   4
BRANCH   1  34
ATOM     34  O   UNL     1      -4.229   2.186   0.000  0.00  0.00    +0.000 OA
BRANCH  34  35
ATOM     35  P   UNL     1      -4.897   1.702   0.000  0.00  0.00    +0.000 P 
ATOM     36  O   UNL     1      -4.413   1.034   0.000  0.00  0.00    +0.000 OA
ATOM     37  O   UNL     1      -5.381   2.370   0.000  0.00  0.00    +0.000 OA
BRANCH  35  38
ATOM     38  O   UNL     1      -5.566   1.218   0.000  0.00  0.00    +0.000 OA
BRANCH  38  39
ATOM     39  C   UNL     1      -6.319   1.555   0.000  0.00  0.00    +0.000 C 
BRANCH  39  44
ATOM     40  O   UNL     1      -6.988   0.246   0.000  0.00  0.00    +0.000 OA
ATOM     41  O   UNL     1      -9.082   0.662   0.000  0.00  0.00    +0.000 OA
ATOM     42  C   UNL     1      -7.771   1.328   0.000  0.00  0.00    +0.000 C 
ATOM     43  C   UNL     1      -8.257   0.661   0.000  0.00  0.00    +0.000 C 
ATOM     44  C   UNL     1      -6.987   1.071   0.000  0.00  0.00    +0.000 C 
ATOM     45  C   UNL     1      -7.773  -0.007   0.000  0.00  0.00    +0.000 C 
BRANCH  45  46
ATOM     46  N   UNL     1      -8.030  -0.791   0.000  0.00  0.00    +0.000 N 
ATOM     47  N   UNL     1      -8.030  -2.119   0.000  0.00  0.00    +0.000 NA
ATOM     48  N   UNL     1      -9.525  -0.630   0.000  0.00  0.00    +0.000 NA
ATOM     49  N   UNL     1     -10.239  -1.868   0.000  0.00  0.00    +0.000 NA
ATOM     50  C   UNL     1      -8.810  -1.043   0.000  0.00  0.00    +0.000 A 
ATOM     51  C   UNL     1      -7.548  -1.455   0.000  0.00  0.00    +0.000 A 
ATOM     52  C   UNL     1      -8.810  -1.868   0.000  0.00  0.00    +0.000 A 
ATOM     53  C   UNL     1      -9.525  -2.280   0.000  0.00  0.00    +0.000 A 
ATOM     54  C   UNL     1     -10.239  -1.043   0.000  0.00  0.00    +0.000 A 
BRANCH  53  55
ATOM     55  N   UNL     1      -9.525  -3.105   0.000  0.00  0.00    +0.000 N 
ATOM     56  H   UNL     1      -9.968  -3.361   0.000  0.00  0.00    +0.000 HD
ATOM     57  H   UNL     1      -9.082  -3.361   0.000  0.00  0.00    +0.000 HD
ENDBRANCH  53  55
ENDBRANCH  45  46
BRANCH  42  58
ATOM     58  O   UNL     1      -8.025   2.113   0.000  0.00  0.00    +0.000 OA
BRANCH  58  59
ATOM     59  P   UNL     1      -7.472   2.725   0.000  0.00  0.00    +0.000 P 
ATOM     60  O   UNL     1      -6.918   3.337   0.000  0.00  0.00    +0.000 OA
ATOM     61  O   UNL     1      -8.084   3.278   0.000  0.00  0.00    +0.000 OA
ATOM     62  O   UNL     1      -6.859   2.172   0.000  0.00  0.00    +0.000 OA
ENDBRANCH  58  59
ENDBRANCH  42  58
ENDBRANCH  39  44
ENDBRANCH  38  39
ENDBRANCH  35  38
ENDBRANCH  34  35
ENDBRANCH   1  34
TORSDOF 23
