REMARK  Name = 
REMARK  13 active torsions:
REMARK  status: ('A' for Active; 'I' for Inactive)
REMARK    1  A    between atoms: C_1  and  C_11
REMARK    2  A    between atoms: C_4  and  O_14
REMARK    3  A    between atoms: N_13  and  C_21
REMARK    4  A    between atoms: N_13  and  C_25
REMARK    5  A    between atoms: O_14  and  C_15
REMARK    6  A    between atoms: C_15  and  C_16
REMARK    7  A    between atoms: C_16  and  C_17
REMARK    8  A    between atoms: C_17  and  C_18
REMARK    9  A    between atoms: C_18  and  C_19
REMARK   10  A    between atoms: C_21  and  C_22
REMARK   11  A    between atoms: C_22  and  C_23
REMARK   12  A    between atoms: C_25  and  C_26
REMARK   13  A    between atoms: C_26  and  C_27
REMARK                            x       y       z     vdW  Elec       q    Type
REMARK                         _______ _______ _______ _____ _____    ______ ____
ROOT
ATOM      1  C   UNL     1      -1.429   0.619   0.000  0.00  0.00    +0.000 A 
ATOM      2  C   UNL     1      -0.714   1.031   0.000  0.00  0.00    +0.000 A 
ATOM      3  C   UNL     1       0.000   0.619   0.000  0.00  0.00    +0.000 A 
ATOM      4  C   UNL     1       0.000  -0.206   0.000  0.00  0.00    +0.000 A 
ATOM      5  C   UNL     1      -0.714  -0.619   0.000  0.00  0.00    +0.000 A 
ATOM      6  C   UNL     1      -0.714  -1.444   0.000  0.00  0.00    +0.000 A 
ATOM      7  C   UNL     1      -1.429  -1.856   0.000  0.00  0.00    +0.000 A 
ATOM      8  C   UNL     1      -2.143  -1.444   0.000  0.00  0.00    +0.000 A 
ATOM      9  C   UNL     1      -2.143  -0.619   0.000  0.00  0.00    +0.000 A 
ATOM     10  C   UNL     1      -1.429  -0.206   0.000  0.00  0.00    +0.000 A 
ENDROOT
BRANCH   1  11
ATOM     11  C   UNL     1      -2.143   1.031   0.000  0.00  0.00    +0.000 C 
ATOM     12  N   UNL     1      -2.143   1.856   0.000  0.00  0.00    +0.000 NA
ATOM     13  N   UNL     1      -2.858   0.619   0.000  0.00  0.00    +0.000 N 
BRANCH  13  14
ATOM     14  C   UNL     1      -3.572   1.031   0.000  0.00  0.00    +0.000 C 
BRANCH  14  15
ATOM     15  C   UNL     1      -4.287   0.619   0.000  0.00  0.00    +0.000 C 
BRANCH  15  16
ATOM     16  C   UNL     1      -4.287  -0.206   0.000  0.00  0.00    +0.000 C 
ATOM     17  C   UNL     1      -5.001  -0.619   0.000  0.00  0.00    +0.000 C 
ENDBRANCH  15  16
ENDBRANCH  14  15
ENDBRANCH  13  14
BRANCH  13  18
ATOM     18  C   UNL     1      -2.858  -0.206   0.000  0.00  0.00    +0.000 C 
BRANCH  18  19
ATOM     19  C   UNL     1      -3.572  -0.619   0.000  0.00  0.00    +0.000 C 
BRANCH  19  20
ATOM     20  C   UNL     1      -3.572  -1.444   0.000  0.00  0.00    +0.000 C 
ATOM     21  C   UNL     1      -4.287  -1.856   0.000  0.00  0.00    +0.000 C 
ENDBRANCH  19  20
ENDBRANCH  18  19
ENDBRANCH  13  18
ENDBRANCH   1  11
BRANCH   4  22
ATOM     22  O   UNL     1       0.714  -0.619   0.000  0.00  0.00    +0.000 OA
BRANCH  22  23
ATOM     23  C   UNL     1       1.429  -0.206   0.000  0.00  0.00    +0.000 C 
BRANCH  23  24
ATOM     24  C   UNL     1       2.143  -0.619   0.000  0.00  0.00    +0.000 C 
BRANCH  24  25
ATOM     25  C   UNL     1       2.858  -0.206   0.000  0.00  0.00    +0.000 C 
BRANCH  25  26
ATOM     26  C   UNL     1       3.572  -0.619   0.000  0.00  0.00    +0.000 C 
BRANCH  26  27
ATOM     27  C   UNL     1       4.287  -0.206   0.000  0.00  0.00    +0.000 C 
ATOM     28  C   UNL     1       5.001  -0.619   0.000  0.00  0.00    +0.000 C 
ENDBRANCH  26  27
ENDBRANCH  25  26
ENDBRANCH  24  25
ENDBRANCH  23  24
ENDBRANCH  22  23
ENDBRANCH   4  22
TORSDOF 13
