REMARK  Name = 
REMARK  3 active torsions:
REMARK  status: ('A' for Active; 'I' for Inactive)
REMARK    1  A    between atoms: N_1  and  C_25
REMARK    2  A    between atoms: C_13  and  N_16
REMARK    3  A    between atoms: C_25  and  C_26
REMARK                            x       y       z     vdW  Elec       q    Type
REMARK                         _______ _______ _______ _____ _____    ______ ____
ROOT
ATOM      1  N   UNL     1      -1.423  -0.422   0.000  0.00  0.00    +0.000 N 
ATOM      2  C   UNL     1      -1.423   0.405   0.000  0.00  0.00    +0.000 A 
ATOM      3  N   UNL     1      -2.141   0.823   0.000  0.00  0.00    +0.000 NA
ATOM      4  C   UNL     1      -2.851  -0.422   0.000  0.00  0.00    +0.000 A 
ATOM      5  C   UNL     1      -2.848   0.403   0.000  0.00  0.00    +0.000 A 
ATOM      6  C   UNL     1      -3.560   0.816   0.000  0.00  0.00    +0.000 A 
ATOM      7  C   UNL     1      -4.276   0.405   0.000  0.00  0.00    +0.000 A 
ATOM      8  C   UNL     1      -4.274  -0.423   0.000  0.00  0.00    +0.000 A 
ATOM      9  C   UNL     1      -3.561  -0.832   0.000  0.00  0.00    +0.000 A 
ATOM     10  N   UNL     1      -0.712   0.823   0.000  0.00  0.00    +0.000 N 
ATOM     11  C   UNL     1       0.005   0.414   0.000  0.00  0.00    +0.000 C 
ATOM     12  C   UNL     1       0.714   0.828   0.000  0.00  0.00    +0.000 C 
ATOM     13  C   UNL     1       0.712   1.653   0.000  0.00  0.00    +0.000 C 
ATOM     14  C   UNL     1      -0.005   2.062   0.000  0.00  0.00    +0.000 C 
ATOM     15  C   UNL     1      -0.720   1.646   0.000  0.00  0.00    +0.000 C 
ENDROOT
BRANCH  13  16
ATOM     16  N   UNL     1       1.423   2.072   0.000  0.00  0.00    +0.000 N 
ATOM     17  C   UNL     1       1.418   2.899   0.000  0.00  0.00    +0.000 C 
ATOM     18  C   UNL     1       2.137   1.658   0.000  0.00  0.00    +0.000 A 
ATOM     19  N   UNL     1       2.134   0.832   0.000  0.00  0.00    +0.000 NA
ATOM     20  C   UNL     1       2.844   0.418   0.000  0.00  0.00    +0.000 A 
ATOM     21  C   UNL     1       3.562   0.827   0.000  0.00  0.00    +0.000 A 
ATOM     22  C   UNL     1       3.565   1.653   0.000  0.00  0.00    +0.000 A 
ATOM     23  N   UNL     1       2.850   2.071   0.000  0.00  0.00    +0.000 NA
ATOM     24  O   UNL     1       4.276   2.072   0.000  0.00  0.00    +0.000 OA
ENDBRANCH  13  16
BRANCH   1  25
ATOM     25  C   UNL     1      -1.430  -1.245   0.000  0.00  0.00    +0.000 C 
BRANCH  25  26
ATOM     26  C   UNL     1      -0.716  -1.658   0.000  0.00  0.00    +0.000 A 
ATOM     27  C   UNL     1      -0.720  -2.485   0.000  0.00  0.00    +0.000 A 
ATOM     28  C   UNL     1      -0.006  -2.898   0.000  0.00  0.00    +0.000 A 
ATOM     29  C   UNL     1       0.710  -2.486   0.000  0.00  0.00    +0.000 A 
ATOM     30  C   UNL     1       0.708  -1.657   0.000  0.00  0.00    +0.000 A 
ATOM     31  C   UNL     1      -0.006  -1.247   0.000  0.00  0.00    +0.000 A 
ATOM     32  F   UNL     1       1.423  -2.899   0.000  0.00  0.00    +0.000 F 
ENDBRANCH  25  26
ENDBRANCH   1  25
TORSDOF 3
