REMARK  Name = 
REMARK  2 active torsions:
REMARK  status: ('A' for Active; 'I' for Inactive)
REMARK    1  A    between atoms: C_2  and  C_3
REMARK    2  A    between atoms: C_3  and  C_13
REMARK                            x       y       z     vdW  Elec       q    Type
REMARK                         _______ _______ _______ _____ _____    ______ ____
ROOT
ATOM      1  C   UNL     1       0.654  -0.698   0.000  0.00  0.00    +0.000 C 
ATOM      2  C   UNL     1       1.139  -0.030   0.000  0.00  0.00    +0.000 C 
ATOM      3  C   UNL     1       1.923  -0.285   0.000  0.00  0.00    +0.000 A 
ATOM      4  C   UNL     1       2.638   0.127   0.000  0.00  0.00    +0.000 A 
ATOM      5  C   UNL     1       3.352  -0.285   0.000  0.00  0.00    +0.000 A 
ATOM      6  C   UNL     1       3.352  -1.110   0.000  0.00  0.00    +0.000 A 
ATOM      7  C   UNL     1       2.638  -1.523   0.000  0.00  0.00    +0.000 A 
ATOM      8  C   UNL     1       1.923  -1.110   0.000  0.00  0.00    +0.000 A 
ATOM      9  C   UNL     1       1.139  -1.365   0.000  0.00  0.00    +0.000 C 
ATOM     10  F   UNL     1       4.067  -1.523   0.000  0.00  0.00    +0.000 F 
ENDROOT
BRANCH   1  11
ATOM     11  C   UNL     1       0.041  -0.146   0.000  0.00  0.00    +0.000 A 
ATOM     12  C   UNL     1      -0.766  -0.317   0.000  0.00  0.00    +0.000 A 
ATOM     13  N   UNL     1      -1.179   0.397   0.000  0.00  0.00    +0.000 NA
ATOM     14  C   UNL     1      -0.627   1.010   0.000  0.00  0.00    +0.000 A 
ATOM     15  N   UNL     1       0.127   0.675   0.000  0.00  0.00    +0.000 NA
ENDBRANCH   1  11
BRANCH   1  17
ATOM     16  C   UNL     1       0.212  -2.057   0.000  0.00  0.00    +0.000 C 
ATOM     17  C   UNL     1       0.041  -1.250   0.000  0.00  0.00    +0.000 C 
ENDBRANCH   1  17
TORSDOF 2
