REMARK  Name = 
REMARK  4 active torsions:
REMARK  status: ('A' for Active; 'I' for Inactive)
REMARK    1  A    between atoms: C_1  and  C_2
REMARK    2  A    between atoms: C_1  and  C_3
REMARK    3  A    between atoms: N_18  and  C_21
REMARK    4  A    between atoms: C_21  and  C_22
REMARK                            x       y       z     vdW  Elec       q    Type
REMARK                         _______ _______ _______ _____ _____    ______ ____
ROOT
ATOM      1  C   UNL     1       0.723  -1.062   0.000  0.00  0.00    +0.000 C 
ATOM      2  C   UNL     1       1.436  -0.646   0.000  0.00  0.00    +0.000 C 
ATOM      3  C   UNL     1       0.720  -1.883   0.000  0.00  0.00    +0.000 C 
ATOM      4  N   UNL     1       2.148  -1.065   0.000  0.00  0.00    +0.000 NA
ATOM      5  O   UNL     1       1.436   0.175   0.000  0.00  0.00    +0.000 OA
ATOM      6  C   UNL     1       1.429  -2.295   0.000  0.00  0.00    +0.000 C 
ATOM      7  C   UNL     1       2.145  -1.886   0.000  0.00  0.00    +0.000 C 
ATOM      8  O   UNL     1       2.857  -2.302   0.000  0.00  0.00    +0.000 OA
ENDROOT
BRANCH   1   9
ATOM      9  C   UNL     1       0.011  -0.646   0.000  0.00  0.00    +0.000 C 
ATOM     10  C   UNL     1      -0.702  -1.058   0.000  0.00  0.00    +0.000 C 
ATOM     11  C   UNL     1       0.011   0.178   0.000  0.00  0.00    +0.000 C 
ATOM     12  C   UNL     1      -1.411  -0.650   0.000  0.00  0.00    +0.000 C 
ATOM     13  C   UNL     1      -0.706   0.590   0.000  0.00  0.00    +0.000 C 
ATOM     14  N   UNL     1      -1.411   0.175   0.000  0.00  0.00    +0.000 NA
BRANCH  14  15
ATOM     15  C   UNL     1      -2.127   0.583   0.000  0.00  0.00    +0.000 C 
BRANCH  15  16
ATOM     16  C   UNL     1      -2.127   1.418   0.000  0.00  0.00    +0.000 A 
ATOM     17  C   UNL     1      -1.404   1.837   0.000  0.00  0.00    +0.000 A 
ATOM     18  C   UNL     1      -2.850   1.830   0.000  0.00  0.00    +0.000 A 
ATOM     19  C   UNL     1      -1.408   2.672   0.000  0.00  0.00    +0.000 A 
ATOM     20  C   UNL     1      -2.857   2.662   0.000  0.00  0.00    +0.000 A 
ATOM     21  C   UNL     1      -2.131   3.088   0.000  0.00  0.00    +0.000 A 
ENDBRANCH  15  16
ENDBRANCH  14  15
ENDBRANCH   1   9
BRANCH   1  22
ATOM     22  C   UNL     1      -0.311  -1.851   0.000  0.00  0.00    +0.000 A 
ATOM     23  C   UNL     1      -0.307  -2.679   0.000  0.00  0.00    +0.000 A 
ATOM     24  C   UNL     1      -1.023  -1.439   0.000  0.00  0.00    +0.000 A 
ATOM     25  C   UNL     1      -1.023  -3.088   0.000  0.00  0.00    +0.000 A 
ATOM     26  C   UNL     1      -1.733  -1.855   0.000  0.00  0.00    +0.000 A 
ATOM     27  C   UNL     1      -1.736  -2.683   0.000  0.00  0.00    +0.000 A 
ENDBRANCH   1  22
TORSDOF 4
