REMARK  Name = 
REMARK  6 active torsions:
REMARK  status: ('A' for Active; 'I' for Inactive)
REMARK    1  A    between atoms: C_8  and  C_10
REMARK    2  A    between atoms: N_12  and  C_13
REMARK    3  A    between atoms: C_13  and  C_14
REMARK    4  A    between atoms: N_17  and  C_18
REMARK    5  A    between atoms: C_22  and  C_24
REMARK    6  A    between atoms: N_26  and  C_27
REMARK                            x       y       z     vdW  Elec       q    Type
REMARK                         _______ _______ _______ _____ _____    ______ ____
ROOT
ATOM      1  N   UNL     1       0.806  -2.695   0.000  0.00  0.00    +0.000 N 
ATOM      2  N   UNL     1       0.393  -3.409   0.000  0.00  0.00    +0.000 NA
ATOM      3  C   UNL     1      -0.432  -3.409   0.000  0.00  0.00    +0.000 A 
ATOM      4  N   UNL     1      -0.844  -2.695   0.000  0.00  0.00    +0.000 NA
ATOM      5  C   UNL     1      -0.432  -1.980   0.000  0.00  0.00    +0.000 A 
ATOM      6  C   UNL     1       0.393  -1.980   0.000  0.00  0.00    +0.000 A 
ATOM      7  C   UNL     1       0.945  -1.367   0.000  0.00  0.00    +0.000 A 
ATOM      8  C   UNL     1       1.699  -1.703   0.000  0.00  0.00    +0.000 A 
ATOM      9  C   UNL     1       1.613  -2.523   0.000  0.00  0.00    +0.000 A 
ATOM     10  C   UNL     1       0.774  -0.560   0.000  0.00  0.00    +0.000 C 
ATOM     11  N   UNL     1      -0.844  -1.266   0.000  0.00  0.00    +0.000 NA
ENDROOT
BRANCH  11  12
ATOM     12  C   UNL     1      -1.669  -1.266   0.000  0.00  0.00    +0.000 A 
ATOM     13  C   UNL     1      -2.082  -1.980   0.000  0.00  0.00    +0.000 A 
ATOM     14  C   UNL     1      -2.907  -1.980   0.000  0.00  0.00    +0.000 A 
ATOM     15  C   UNL     1      -3.319  -1.266   0.000  0.00  0.00    +0.000 A 
ATOM     16  C   UNL     1      -2.907  -0.551   0.000  0.00  0.00    +0.000 A 
ATOM     17  C   UNL     1      -2.082  -0.551   0.000  0.00  0.00    +0.000 A 
ATOM     18  C   UNL     1      -1.669  -2.695   0.000  0.00  0.00    +0.000 C 
BRANCH  16  19
ATOM     19  C   UNL     1      -3.319   0.163   0.000  0.00  0.00    +0.000 C 
ATOM     20  O   UNL     1      -2.907   0.878   0.000  0.00  0.00    +0.000 OA
ATOM     21  N   UNL     1      -4.144   0.163   0.000  0.00  0.00    +0.000 NA
BRANCH  21  22
ATOM     22  C   UNL     1      -4.557   0.878   0.000  0.00  0.00    +0.000 C 
ATOM     23  C   UNL     1      -4.557   1.703   0.000  0.00  0.00    +0.000 C 
ATOM     24  C   UNL     1      -5.271   1.290   0.000  0.00  0.00    +0.000 C 
ENDBRANCH  21  22
ENDBRANCH  16  19
ENDBRANCH  11  12
BRANCH   8  25
ATOM     25  C   UNL     1       2.413  -1.290   0.000  0.00  0.00    +0.000 C 
ATOM     26  O   UNL     1       2.413  -0.465   0.000  0.00  0.00    +0.000 OA
ATOM     27  N   UNL     1       3.128  -1.703   0.000  0.00  0.00    +0.000 NA
BRANCH  27  28
ATOM     28  C   UNL     1       3.842  -1.290   0.000  0.00  0.00    +0.000 C 
BRANCH  28  29
ATOM     29  C   UNL     1       4.557  -1.703   0.000  0.00  0.00    +0.000 C 
ATOM     30  C   UNL     1       5.271  -1.290   0.000  0.00  0.00    +0.000 C 
ENDBRANCH  28  29
ENDBRANCH  27  28
ENDBRANCH   8  25
TORSDOF 6
