REMARK  Name = 
REMARK  40 active torsions:
REMARK  status: ('A' for Active; 'I' for Inactive)
REMARK    1  A    between atoms: C_1  and  C_9
REMARK    2  A    between atoms: C_1  and  C_33
REMARK    3  A    between atoms: C_2  and  C_10
REMARK    4  A    between atoms: C_2  and  C_34
REMARK    5  A    between atoms: C_3  and  C_11
REMARK    6  A    between atoms: C_3  and  C_35
REMARK    7  A    between atoms: C_4  and  C_12
REMARK    8  A    between atoms: C_4  and  C_36
REMARK    9  A    between atoms: C_5  and  C_13
REMARK   10  A    between atoms: C_5  and  C_37
REMARK   11  A    between atoms: C_6  and  C_14
REMARK   12  A    between atoms: C_6  and  C_38
REMARK   13  A    between atoms: C_7  and  C_15
REMARK   14  A    between atoms: C_7  and  C_39
REMARK   15  A    between atoms: C_8  and  C_16
REMARK   16  A    between atoms: C_8  and  C_40
REMARK   17  A    between atoms: C_9  and  S_121
REMARK   18  A    between atoms: C_10  and  S_122
REMARK   19  A    between atoms: C_11  and  S_123
REMARK   20  A    between atoms: C_12  and  S_124
REMARK   21  A    between atoms: C_13  and  S_125
REMARK   22  A    between atoms: C_14  and  S_126
REMARK   23  A    between atoms: C_15  and  S_127
REMARK   24  A    between atoms: C_16  and  S_128
REMARK   25  A    between atoms: C_17  and  C_25
REMARK   26  A    between atoms: C_17  and  S_121
REMARK   27  A    between atoms: C_18  and  C_26
REMARK   28  A    between atoms: C_18  and  S_122
REMARK   29  A    between atoms: C_19  and  C_27
REMARK   30  A    between atoms: C_19  and  S_123
REMARK   31  A    between atoms: C_20  and  C_28
REMARK   32  A    between atoms: C_20  and  S_124
REMARK   33  A    between atoms: C_21  and  C_29
REMARK   34  A    between atoms: C_21  and  S_125
REMARK   35  A    between atoms: C_22  and  C_30
REMARK   36  A    between atoms: C_22  and  S_126
REMARK   37  A    between atoms: C_23  and  C_31
REMARK   38  A    between atoms: C_23  and  S_127
REMARK   39  A    between atoms: C_24  and  C_32
REMARK   40  A    between atoms: C_24  and  S_128
REMARK                            x       y       z     vdW  Elec       q    Type
REMARK                         _______ _______ _______ _____ _____    ______ ____
ROOT
ATOM      1  C   UNL     1      -0.325   3.413   0.000  0.00  0.00    +0.000 C 
ATOM      2  C   UNL     1       2.184   2.644   0.000  0.00  0.00    +0.000 C 
ATOM      3  C   UNL     1      -3.752   3.062   0.000  0.00  0.00    +0.000 C 
ATOM      4  C   UNL     1       3.413   0.325   0.000  0.00  0.00    +0.000 C 
ATOM      5  C   UNL     1      -3.413  -0.325   0.000  0.00  0.00    +0.000 C 
ATOM      6  C   UNL     1       3.752  -3.062   0.000  0.00  0.00    +0.000 C 
ATOM      7  C   UNL     1      -2.184  -2.644   0.000  0.00  0.00    +0.000 C 
ATOM      8  C   UNL     1       0.325  -3.413   0.000  0.00  0.00    +0.000 C 
ATOM      9  C   UNL     1      -0.488   4.818   0.000  0.00  0.00    +0.000 C 
ATOM     10  C   UNL     1      -2.644   2.184   0.000  0.00  0.00    +0.000 C 
ATOM     11  C   UNL     1       3.062   3.752   0.000  0.00  0.00    +0.000 C 
ATOM     12  C   UNL     1      -4.818  -0.488   0.000  0.00  0.00    +0.000 C 
ATOM     13  C   UNL     1       4.818   0.488   0.000  0.00  0.00    +0.000 C 
ATOM     14  C   UNL     1      -3.062  -3.752   0.000  0.00  0.00    +0.000 C 
ATOM     15  C   UNL     1       2.644  -2.184   0.000  0.00  0.00    +0.000 C 
ATOM     16  C   UNL     1       0.488  -4.818   0.000  0.00  0.00    +0.000 C 
ATOM     17  C   UNL     1       0.328   4.912   0.000  0.00  0.00    +0.000 C 
ATOM     18  C   UNL     1      -2.138   2.821   0.000  0.00  0.00    +0.000 C 
ATOM     19  C   UNL     1       3.706   3.241   0.000  0.00  0.00    +0.000 C 
ATOM     20  C   UNL     1      -4.912   0.328   0.000  0.00  0.00    +0.000 C 
ATOM     21  C   UNL     1       4.912  -0.328   0.000  0.00  0.00    +0.000 C 
ATOM     22  C   UNL     1      -3.706  -3.241   0.000  0.00  0.00    +0.000 C 
ATOM     23  C   UNL     1       2.138  -2.821   0.000  0.00  0.00    +0.000 C 
ATOM     24  C   UNL     1      -0.328  -4.912   0.000  0.00  0.00    +0.000 C 
ATOM     25  C   UNL     1      -0.831   4.066   0.000  0.00  0.00    +0.000 C 
ATOM     26  C   UNL     1       2.287   3.462   0.000  0.00  0.00    +0.000 C 
ATOM     27  C   UNL     1      -3.462   2.287   0.000  0.00  0.00    +0.000 C 
ATOM     28  C   UNL     1       4.066   0.831   0.000  0.00  0.00    +0.000 C 
ATOM     29  C   UNL     1      -4.066  -0.831   0.000  0.00  0.00    +0.000 C 
ATOM     30  C   UNL     1       3.462  -2.287   0.000  0.00  0.00    +0.000 C 
ATOM     31  C   UNL     1      -2.287  -3.462   0.000  0.00  0.00    +0.000 C 
ATOM     32  C   UNL     1       0.831  -4.066   0.000  0.00  0.00    +0.000 C 
ATOM     33  C   UNL     1       0.833   4.252   0.000  0.00  0.00    +0.000 C 
ATOM     34  C   UNL     1      -2.418   3.596   0.000  0.00  0.00    +0.000 C 
ATOM     35  C   UNL     1       3.596   2.418   0.000  0.00  0.00    +0.000 C 
ATOM     36  C   UNL     1      -4.252   0.833   0.000  0.00  0.00    +0.000 C 
ATOM     37  C   UNL     1       4.252  -0.833   0.000  0.00  0.00    +0.000 C 
ATOM     38  C   UNL     1      -3.596  -2.418   0.000  0.00  0.00    +0.000 C 
ATOM     39  C   UNL     1       2.418  -3.596   0.000  0.00  0.00    +0.000 C 
ATOM     40  C   UNL     1      -0.833  -4.252   0.000  0.00  0.00    +0.000 C 
ATOM     41  O   UNL     1      -0.863   5.577   0.000  0.00  0.00    +0.000 OA
ATOM     42  O   UNL     1      -2.160   1.811   0.000  0.00  0.00    +0.000 OA
ATOM     43  O   UNL     1       3.344   4.550   0.000  0.00  0.00    +0.000 OA
ATOM     44  O   UNL     1      -5.574  -0.873   0.000  0.00  0.00    +0.000 OA
ATOM     45  O   UNL     1       5.574   0.873   0.000  0.00  0.00    +0.000 OA
ATOM     46  O   UNL     1      -3.344  -4.550   0.000  0.00  0.00    +0.000 OA
ATOM     47  O   UNL     1       2.818  -1.479   0.000  0.00  0.00    +0.000 OA
ATOM     48  O   UNL     1       0.863  -5.577   0.000  0.00  0.00    +0.000 OA
ATOM     49  O   UNL     1       0.640   5.697   0.000  0.00  0.00    +0.000 OA
ATOM     50  O   UNL     1      -1.814   3.436   0.000  0.00  0.00    +0.000 OA
ATOM     51  O   UNL     1       4.481   3.579   0.000  0.00  0.00    +0.000 OA
ATOM     52  O   UNL     1      -5.711   0.611   0.000  0.00  0.00    +0.000 OA
ATOM     53  O   UNL     1       5.711  -0.611   0.000  0.00  0.00    +0.000 OA
ATOM     54  O   UNL     1      -4.482  -3.574   0.000  0.00  0.00    +0.000 OA
ATOM     55  O   UNL     1       1.841  -3.447   0.000  0.00  0.00    +0.000 OA
ATOM     56  O   UNL     1      -0.640  -5.697   0.000  0.00  0.00    +0.000 OA
ATOM     57  O   UNL     1       0.483   3.507   0.000  0.00  0.00    +0.000 OA
ATOM     58  O   UNL     1      -3.241   3.706   0.000  0.00  0.00    +0.000 OA
ATOM     59  O   UNL     1       2.821   2.138   0.000  0.00  0.00    +0.000 OA
ATOM     60  O   UNL     1      -3.507   0.483   0.000  0.00  0.00    +0.000 OA
ATOM     61  O   UNL     1       3.507  -0.483   0.000  0.00  0.00    +0.000 OA
ATOM     62  O   UNL     1      -2.821  -2.138   0.000  0.00  0.00    +0.000 OA
ATOM     63  O   UNL     1       3.241  -3.706   0.000  0.00  0.00    +0.000 OA
ATOM     64  O   UNL     1      -0.483  -3.507   0.000  0.00  0.00    +0.000 OA
ATOM     65  O   UNL     1      -1.668   3.974   0.000  0.00  0.00    +0.000 OA
ATOM     66  O   UNL     1       1.631   3.990   0.000  0.00  0.00    +0.000 OA
ATOM     67  O   UNL     1      -3.990   1.631   0.000  0.00  0.00    +0.000 OA
ATOM     68  O   UNL     1       3.974   1.668   0.000  0.00  0.00    +0.000 OA
ATOM     69  O   UNL     1      -3.974  -1.668   0.000  0.00  0.00    +0.000 OA
ATOM     70  O   UNL     1       3.990  -1.631   0.000  0.00  0.00    +0.000 OA
ATOM     71  O   UNL     1      -1.631  -3.990   0.000  0.00  0.00    +0.000 OA
ATOM     72  O   UNL     1       1.668  -3.974   0.000  0.00  0.00    +0.000 OA
ENDROOT
BRANCH   1  73
ATOM     73  C   UNL     1      -0.991   2.954   0.000  0.00  0.00    +0.000 C 
BRANCH  73  74
ATOM     74  S   UNL     1      -1.072   2.191   0.000  0.00  0.00    +0.000 S 
BRANCH  74  75
ATOM     75  C   UNL     1      -0.996   1.435   0.000  0.00  0.00    +0.000 C 
BRANCH  75  76
ATOM     76  C   UNL     1      -0.247   1.219   0.000  0.00  0.00    +0.000 C 
BRANCH  76  77
ATOM     77  C   UNL     1      -0.427   0.289   0.000  0.00  0.00    +0.000 C 
ATOM     78  O   UNL     1      -0.064  -0.399   0.000  0.00  0.00    +0.000 OA
ATOM     79  O   UNL     1      -1.163  -0.013   0.000  0.00  0.00    +0.000 OA
ENDBRANCH  76  77
ENDBRANCH  75  76
ENDBRANCH  74  75
ENDBRANCH  73  74
ENDBRANCH   1  73
BRANCH   2  80
ATOM     80  C   UNL     1       1.471   2.251   0.000  0.00  0.00    +0.000 C 
BRANCH  80  81
ATOM     81  S   UNL     1       1.181   1.559   0.000  0.00  0.00    +0.000 S 
BRANCH  81  82
ATOM     82  C   UNL     1       1.569   0.840   0.000  0.00  0.00    +0.000 C 
BRANCH  82  83
ATOM     83  C   UNL     1       1.795   0.094   0.000  0.00  0.00    +0.000 C 
BRANCH  83  84
ATOM     84  C   UNL     1       2.481  -0.291   0.000  0.00  0.00    +0.000 C 
ATOM     85  O   UNL     1       3.192  -0.125   0.000  0.00  0.00    +0.000 OA
ATOM     86  O   UNL     1       2.513  -1.022   0.000  0.00  0.00    +0.000 OA
ENDBRANCH  83  84
ENDBRANCH  82  83
ENDBRANCH  81  82
ENDBRANCH  80  81
ENDBRANCH   2  80
BRANCH   3  87
ATOM     87  C   UNL     1      -4.554   3.338   0.000  0.00  0.00    +0.000 C 
BRANCH  87  88
ATOM     88  S   UNL     1      -4.991   4.055   0.000  0.00  0.00    +0.000 S 
BRANCH  88  89
ATOM     89  C   UNL     1      -5.817   4.193   0.000  0.00  0.00    +0.000 C 
BRANCH  89  90
ATOM     90  C   UNL     1      -6.123   4.976   0.000  0.00  0.00    +0.000 C 
BRANCH  90  91
ATOM     91  C   UNL     1      -6.955   5.097   0.000  0.00  0.00    +0.000 C 
ATOM     92  O   UNL     1      -7.523   4.487   0.000  0.00  0.00    +0.000 OA
ATOM     93  O   UNL     1      -7.240   5.877   0.000  0.00  0.00    +0.000 OA
ENDBRANCH  90  91
ENDBRANCH  89  90
ENDBRANCH  88  89
ENDBRANCH  87  88
ENDBRANCH   3  87
BRANCH   4  94
ATOM     94  C   UNL     1       3.042   0.924   0.000  0.00  0.00    +0.000 C 
BRANCH  94  95
ATOM     95  S   UNL     1       2.657   1.572   0.000  0.00  0.00    +0.000 S 
BRANCH  95  96
ATOM     96  C   UNL     1       2.099   2.110   0.000  0.00  0.00    +0.000 C 
BRANCH  96  97
ATOM     97  C   UNL     1       1.574   2.747   0.000  0.00  0.00    +0.000 C 
BRANCH  97  98
ATOM     98  C   UNL     1       0.865   2.293   0.000  0.00  0.00    +0.000 C 
ATOM     99  O   UNL     1       0.656   1.465   0.000  0.00  0.00    +0.000 OA
ATOM    100  O   UNL     1       0.297   2.832   0.000  0.00  0.00    +0.000 OA
ENDBRANCH  97  98
ENDBRANCH  96  97
ENDBRANCH  95  96
ENDBRANCH  94  95
ENDBRANCH   4  94
BRANCH   5 101
ATOM    101  C   UNL     1      -3.002  -0.900   0.000  0.00  0.00    +0.000 C 
BRANCH 101 102
ATOM    102  S   UNL     1      -2.662  -1.567   0.000  0.00  0.00    +0.000 S 
BRANCH 102 103
ATOM    103  C   UNL     1      -2.103  -2.095   0.000  0.00  0.00    +0.000 C 
BRANCH 103 104
ATOM    104  C   UNL     1      -1.578  -2.726   0.000  0.00  0.00    +0.000 C 
BRANCH 104 105
ATOM    105  C   UNL     1      -0.876  -2.274   0.000  0.00  0.00    +0.000 C 
ATOM    106  O   UNL     1      -0.705  -1.453   0.000  0.00  0.00    +0.000 OA
ATOM    107  O   UNL     1      -0.327  -2.828   0.000  0.00  0.00    +0.000 OA
ENDBRANCH 104 105
ENDBRANCH 103 104
ENDBRANCH 102 103
ENDBRANCH 101 102
ENDBRANCH   5 101
BRANCH   6 108
ATOM    108  C   UNL     1       4.554  -3.338   0.000  0.00  0.00    +0.000 C 
BRANCH 108 109
ATOM    109  S   UNL     1       4.991  -4.055   0.000  0.00  0.00    +0.000 S 
BRANCH 109 110
ATOM    110  C   UNL     1       5.817  -4.193   0.000  0.00  0.00    +0.000 C 
BRANCH 110 111
ATOM    111  C   UNL     1       6.123  -4.976   0.000  0.00  0.00    +0.000 C 
BRANCH 111 112
ATOM    112  C   UNL     1       6.955  -5.097   0.000  0.00  0.00    +0.000 C 
ATOM    113  O   UNL     1       7.523  -4.487   0.000  0.00  0.00    +0.000 OA
ATOM    114  O   UNL     1       7.240  -5.877   0.000  0.00  0.00    +0.000 OA
ENDBRANCH 111 112
ENDBRANCH 110 111
ENDBRANCH 109 110
ENDBRANCH 108 109
ENDBRANCH   6 108
BRANCH   7 115
ATOM    115  C   UNL     1      -1.479  -2.227   0.000  0.00  0.00    +0.000 C 
BRANCH 115 116
ATOM    116  S   UNL     1      -1.226  -1.521   0.000  0.00  0.00    +0.000 S 
BRANCH 116 117
ATOM    117  C   UNL     1      -1.570  -0.773   0.000  0.00  0.00    +0.000 C 
BRANCH 117 118
ATOM    118  C   UNL     1      -1.930  -0.065   0.000  0.00  0.00    +0.000 C 
BRANCH 118 119
ATOM    119  C   UNL     1      -2.559   0.526   0.000  0.00  0.00    +0.000 C 
ATOM    120  O   UNL     1      -3.187   0.123   0.000  0.00  0.00    +0.000 OA
ATOM    121  O   UNL     1      -2.648   1.355   0.000  0.00  0.00    +0.000 OA
ENDBRANCH 118 119
ENDBRANCH 117 118
ENDBRANCH 116 117
ENDBRANCH 115 116
ENDBRANCH   7 115
BRANCH   8 122
ATOM    122  C   UNL     1       0.993  -3.012   0.000  0.00  0.00    +0.000 C 
BRANCH 122 123
ATOM    123  S   UNL     1       0.941  -2.255   0.000  0.00  0.00    +0.000 S 
BRANCH 123 124
ATOM    124  C   UNL     1       0.901  -1.488   0.000  0.00  0.00    +0.000 C 
BRANCH 124 125
ATOM    125  C   UNL     1       0.275  -1.088   0.000  0.00  0.00    +0.000 C 
BRANCH 125 126
ATOM    126  C   UNL     1       0.496  -0.259   0.000  0.00  0.00    +0.000 C 
ATOM    127  O   UNL     1       0.167   0.402   0.000  0.00  0.00    +0.000 OA
ATOM    128  O   UNL     1       1.212  -0.011   0.000  0.00  0.00    +0.000 OA
ENDBRANCH 125 126
ENDBRANCH 124 125
ENDBRANCH 123 124
ENDBRANCH 122 123
ENDBRANCH   8 122
TORSDOF 40
