REMARK  Name = 
REMARK  7 active torsions:
REMARK  status: ('A' for Active; 'I' for Inactive)
REMARK    1  A    between atoms: C_10  and  C_16
REMARK    2  A    between atoms: C_10  and  C_20
REMARK    3  A    between atoms: C_11  and  C_19
REMARK    4  A    between atoms: C_11  and  O_29
REMARK    5  A    between atoms: C_13  and  C_21
REMARK    6  A    between atoms: C_15  and  O_28
REMARK    7  A    between atoms: C_20  and  O_29
REMARK                            x       y       z     vdW  Elec       q    Type
REMARK                         _______ _______ _______ _____ _____    ______ ____
ROOT
ATOM      1  C   UNL     1       0.829   1.135   0.000  0.00  0.00    +0.000 C 
ATOM      2  C   UNL     1       1.158   4.667   0.000  0.00  0.00    +0.000 A 
ATOM      3  C   UNL     1       0.606   4.054   0.000  0.00  0.00    +0.000 A 
ATOM      4  C   UNL     1       2.220   3.711   0.000  0.00  0.00    +0.000 A 
ATOM      5  C   UNL     1       1.000   1.942   0.000  0.00  0.00    +0.000 A 
ATOM      6  C   UNL     1       1.965   4.495   0.000  0.00  0.00    +0.000 A 
ATOM      7  C   UNL     1       1.754   2.277   0.000  0.00  0.00    +0.000 A 
ATOM      8  C   UNL     1       1.668   3.098   0.000  0.00  0.00    +0.000 A 
ATOM      9  C   UNL     1       0.861   3.269   0.000  0.00  0.00    +0.000 A 
ATOM     10  C   UNL     1      -0.372   2.468   0.000  0.00  0.00    +0.000 C 
ATOM     11  N   UNL     1       0.448   2.555   0.000  0.00  0.00    +0.000 N 
ATOM     12  O   UNL     1      -0.708   1.715   0.000  0.00  0.00    +0.000 OA
ENDROOT
BRANCH  10  17
ATOM     13  C   UNL     1      -0.521   3.889   0.000  0.00  0.00    +0.000 A 
ATOM     14  C   UNL     1      -1.678   3.050   0.000  0.00  0.00    +0.000 A 
ATOM     15  C   UNL     1      -1.006   4.557   0.000  0.00  0.00    +0.000 A 
ATOM     16  C   UNL     1      -2.163   3.717   0.000  0.00  0.00    +0.000 A 
ATOM     17  C   UNL     1      -0.857   3.136   0.000  0.00  0.00    +0.000 A 
ATOM     18  C   UNL     1      -1.827   4.471   0.000  0.00  0.00    +0.000 A 
ATOM     19 CL   UNL     1      -2.312   5.138   0.000  0.00  0.00    +0.000 Cl
ENDBRANCH  10  17
BRANCH   6  21
ATOM     20  C   UNL     1       3.324   4.937   0.000  0.00  0.00    +0.000 C 
ATOM     21  O   UNL     1       2.517   5.108   0.000  0.00  0.00    +0.000 OA
ENDBRANCH   6  21
BRANCH   7  22
ATOM     22  C   UNL     1       2.469   1.865   0.000  0.00  0.00    +0.000 C 
BRANCH  22  23
ATOM     23  C   UNL     1       3.183   2.277   0.000  0.00  0.00    +0.000 C 
ATOM     24  O   UNL     1       3.183   3.102   0.000  0.00  0.00    +0.000 OA
BRANCH  23  25
ATOM     25  O   UNL     1       3.897   1.865   0.000  0.00  0.00    +0.000 OA
BRANCH  25  26
ATOM     26  C   UNL     1       4.612   2.277   0.000  0.00  0.00    +0.000 C 
BRANCH  26  27
ATOM     27  C   UNL     1       5.326   1.865   0.000  0.00  0.00    +0.000 C 
ATOM     28  O   UNL     1       6.041   2.277   0.000  0.00  0.00    +0.000 OA
ATOM     29  O   UNL     1       5.326   1.040   0.000  0.00  0.00    +0.000 OA
ENDBRANCH  26  27
ENDBRANCH  25  26
ENDBRANCH  23  25
ENDBRANCH  22  23
ENDBRANCH   7  22
TORSDOF 7
