REMARK  Name = 
REMARK  4 active torsions:
REMARK  status: ('A' for Active; 'I' for Inactive)
REMARK    1  A    between atoms: C_1  and  C_2
REMARK    2  A    between atoms: C_1  and  N_11
REMARK    3  A    between atoms: C_2  and  N_12
REMARK    4  A    between atoms: C_9  and  N_13
REMARK                            x       y       z     vdW  Elec       q    Type
REMARK                         _______ _______ _______ _____ _____    ______ ____
ROOT
ATOM      1  C   UNL     1      -3.489   3.298   0.000  0.00  0.00    +0.000 C 
ENDROOT
BRANCH   1   6
ATOM      2  C   UNL     1      -1.369   3.043   0.000  0.00  0.00    +0.000 A 
ATOM      3  C   UNL     1      -2.449   2.258   0.000  0.00  0.00    +0.000 A 
ATOM      4  C   UNL     1      -2.037   3.528   0.000  0.00  0.00    +0.000 A 
ATOM      5  N   UNL     1      -1.624   2.258   0.000  0.00  0.00    +0.000 NA
ATOM      6  N   UNL     1      -2.704   3.043   0.000  0.00  0.00    +0.000 N 
BRANCH   4   7
ATOM      7  N   UNL     1      -2.037   4.353   0.000  0.00  0.00    +0.000 N 
ATOM      8  O   UNL     1      -1.322   4.765   0.000  0.00  0.00    +0.000 OA
ATOM      9  O   UNL     1      -2.751   4.765   0.000  0.00  0.00    +0.000 OA
ENDBRANCH   4   7
ENDBRANCH   1   6
BRANCH   1  10
ATOM     10  C   UNL     1      -3.660   4.105   0.000  0.00  0.00    +0.000 C 
BRANCH  10  15
ATOM     11  C   UNL     1      -4.616   5.167   0.000  0.00  0.00    +0.000 C 
ATOM     12  C   UNL     1      -5.058   3.808   0.000  0.00  0.00    +0.000 C 
ATOM     13  C   UNL     1      -5.401   5.421   0.000  0.00  0.00    +0.000 C 
ATOM     14  C   UNL     1      -5.843   4.062   0.000  0.00  0.00    +0.000 C 
ATOM     15  N   UNL     1      -4.445   4.360   0.000  0.00  0.00    +0.000 NA
ATOM     16  O   UNL     1      -6.014   4.870   0.000  0.00  0.00    +0.000 OA
ENDBRANCH  10  15
ENDBRANCH   1  10
TORSDOF 4
