REMARK  Name = 
REMARK  6 active torsions:
REMARK  status: ('A' for Active; 'I' for Inactive)
REMARK    1  A    between atoms: C_6  and  O_13
REMARK    2  A    between atoms: C_8  and  C_21
REMARK    3  A    between atoms: O_13  and  C_14
REMARK    4  A    between atoms: C_14  and  C_15
REMARK    5  A    between atoms: C_15  and  C_17
REMARK    6  A    between atoms: C_17  and  C_18
REMARK                            x       y       z     vdW  Elec       q    Type
REMARK                         _______ _______ _______ _____ _____    ______ ____
ROOT
ATOM      1  C   UNL     1      -3.136   1.257   0.000  0.00  0.00    +0.000 A 
ATOM      2  C   UNL     1      -3.137   0.429   0.000  0.00  0.00    +0.000 A 
ATOM      3  C   UNL     1      -2.424   0.016   0.000  0.00  0.00    +0.000 A 
ATOM      4  C   UNL     1      -2.426   1.670   0.000  0.00  0.00    +0.000 A 
ATOM      5  N   UNL     1      -0.289   0.121   0.000  0.00  0.00    +0.000 NA
ATOM      6  C   UNL     1       0.043   0.881   0.000  0.00  0.00    +0.000 C 
ATOM      7  C   UNL     1      -0.334   1.571   0.000  0.00  0.00    +0.000 C 
ATOM      8  C   UNL     1      -1.076  -0.073   0.000  0.00  0.00    +0.000 C 
ATOM      9  C   UNL     1      -1.705   0.424   0.000  0.00  0.00    +0.000 A 
ATOM     10  C   UNL     1      -1.708   1.261   0.000  0.00  0.00    +0.000 A 
ATOM     11  N   UNL     1      -1.106   1.742   0.000  0.00  0.00    +0.000 NA
ATOM     12  O   UNL     1       0.161   2.231   0.000  0.00  0.00    +0.000 OA
ATOM     13 BR   UNL     1      -3.846   0.018   0.000  0.00  0.00    +0.000 Br
ENDROOT
BRANCH   8  14
ATOM     14  C   UNL     1      -1.481  -0.795   0.000  0.00  0.00    +0.000 A 
ATOM     15  C   UNL     1      -2.307  -0.802   0.000  0.00  0.00    +0.000 A 
ATOM     16  C   UNL     1      -2.712  -1.520   0.000  0.00  0.00    +0.000 A 
ATOM     17  C   UNL     1      -2.292  -2.231   0.000  0.00  0.00    +0.000 A 
ATOM     18  C   UNL     1      -1.463  -2.220   0.000  0.00  0.00    +0.000 A 
ATOM     19  C   UNL     1      -1.062  -1.502   0.000  0.00  0.00    +0.000 A 
ATOM     20 CL   UNL     1      -0.237  -1.491   0.000  0.00  0.00    +0.000 Cl
ENDBRANCH   8  14
BRANCH   6  21
ATOM     21  O   UNL     1       0.867   0.918   0.000  0.00  0.00    +0.000 OA
BRANCH  21  22
ATOM     22  C   UNL     1       1.311   0.222   0.000  0.00  0.00    +0.000 C 
ATOM     23  O   UNL     1       0.930  -0.510   0.000  0.00  0.00    +0.000 OA
BRANCH  22  24
ATOM     24  C   UNL     1       2.135   0.259   0.000  0.00  0.00    +0.000 C 
BRANCH  24  25
ATOM     25  C   UNL     1       2.578  -0.437   0.000  0.00  0.00    +0.000 C 
BRANCH  25  26
ATOM     26  C   UNL     1       3.403  -0.400   0.000  0.00  0.00    +0.000 C 
ATOM     27  O   UNL     1       3.846  -1.096   0.000  0.00  0.00    +0.000 OA
ATOM     28  O   UNL     1       3.783   0.332   0.000  0.00  0.00    +0.000 OA
ENDBRANCH  25  26
ENDBRANCH  24  25
ENDBRANCH  22  24
ENDBRANCH  21  22
ENDBRANCH   6  21
TORSDOF 6
