REMARK  Name = 
REMARK  6 active torsions:
REMARK  status: ('A' for Active; 'I' for Inactive)
REMARK    1  A    between atoms: C_5  and  O_15
REMARK    2  A    between atoms: C_7  and  C_21
REMARK    3  A    between atoms: O_15  and  C_18
REMARK    4  A    between atoms: C_18  and  C_30
REMARK    5  A    between atoms: C_20  and  S_25
REMARK    6  A    between atoms: S_25  and  C_30
REMARK                            x       y       z     vdW  Elec       q    Type
REMARK                         _______ _______ _______ _____ _____    ______ ____
ROOT
ATOM      1  C   UNL     1       2.931  -1.001   0.000  0.00  0.00    +0.000 C 
ATOM      2  C   UNL     1       2.891  -0.177   0.000  0.00  0.00    +0.000 C 
ATOM      3  C   UNL     1       2.279   0.374   0.000  0.00  0.00    +0.000 C 
ATOM      4  C   UNL     1       1.455   0.328   0.000  0.00  0.00    +0.000 C 
ATOM      5  C   UNL     1       2.377  -1.610   0.000  0.00  0.00    +0.000 C 
ATOM      6  C   UNL     1       0.942  -1.105   0.000  0.00  0.00    +0.000 C 
ATOM      7  C   UNL     1       1.553  -1.656   0.000  0.00  0.00    +0.000 C 
ATOM      8  C   UNL     1       0.902  -0.281   0.000  0.00  0.00    +0.000 C 
ATOM      9  C   UNL     1       3.664   0.111   0.000  0.00  0.00    +0.000 C 
ATOM     10  C   UNL     1       3.722  -1.221   0.000  0.00  0.00    +0.000 C 
ATOM     11  C   UNL     1       2.277  -1.037   0.000  0.00  0.00    +0.000 C 
ATOM     12  C   UNL     1       1.728  -0.332   0.000  0.00  0.00    +0.000 C 
ATOM     13  C   UNL     1       4.180  -0.533   0.000  0.00  0.00    +0.000 C 
ATOM     14  C   UNL     1       2.364  -0.486   0.000  0.00  0.00    +0.000 C 
ATOM     15  O   UNL     1       3.828   0.914   0.000  0.00  0.00    +0.000 OA
ATOM     16  O   UNL     1       1.279  -2.426   0.000  0.00  0.00    +0.000 OA
ATOM     17  C   UNL     1       2.274   1.232   0.000  0.00  0.00    +0.000 C 
ATOM     18  C   UNL     1       0.388  -1.714   0.000  0.00  0.00    +0.000 C 
ATOM     19  C   UNL     1       2.624  -2.397   0.000  0.00  0.00    +0.000 C 
ATOM     20  C   UNL     1       1.671  -0.975   0.000  0.00  0.00    +0.000 C 
ENDROOT
BRANCH   6  21
ATOM     21  C   UNL     1       0.115  -1.149   0.000  0.00  0.00    +0.000 C 
ATOM     22  C   UNL     1      -0.496  -0.598   0.000  0.00  0.00    +0.000 C 
ENDBRANCH   6  21
BRANCH   4  23
ATOM     23  O   UNL     1       0.905   0.939   0.000  0.00  0.00    +0.000 OA
BRANCH  23  24
ATOM     24  C   UNL     1       0.190   1.350   0.000  0.00  0.00    +0.000 C 
ATOM     25  O   UNL     1       0.186   2.173   0.000  0.00  0.00    +0.000 OA
BRANCH  24  26
ATOM     26  C   UNL     1      -0.524   0.939   0.000  0.00  0.00    +0.000 C 
BRANCH  26  27
ATOM     27  S   UNL     1      -1.239   1.350   0.000  0.00  0.00    +0.000 S 
BRANCH  27  33
ATOM     28  N   UNL     1      -2.838   1.317   0.000  0.00  0.00    +0.000 NA
ATOM     29  C   UNL     1      -3.416   0.249   0.000  0.00  0.00    +0.000 C 
ATOM     30  C   UNL     1      -3.420   2.426   0.000  0.00  0.00    +0.000 C 
ATOM     31  C   UNL     1      -2.477   2.218   0.000  0.00  0.00    +0.000 C 
ATOM     32  C   UNL     1      -2.469   0.473   0.000  0.00  0.00    +0.000 C 
ATOM     33  C   UNL     1      -2.061   1.346   0.000  0.00  0.00    +0.000 C 
ATOM     34  C   UNL     1      -4.180   1.815   0.000  0.00  0.00    +0.000 C 
ATOM     35  C   UNL     1      -4.180   0.856   0.000  0.00  0.00    +0.000 C 
ATOM     36  C   UNL     1      -3.597   1.307   0.000  0.00  0.00    +0.000 C 
ENDBRANCH  27  33
ENDBRANCH  26  27
ENDBRANCH  24  26
ENDBRANCH  23  24
ENDBRANCH   4  23
TORSDOF 6
