REMARK  Name = 
REMARK  5 active torsions:
REMARK  status: ('A' for Active; 'I' for Inactive)
REMARK    1  A    between atoms: C_13  and  C_20
REMARK    2  A    between atoms: N_14  and  C_15
REMARK    3  A    between atoms: C_15  and  C_16
REMARK    4  A    between atoms: C_24  and  C_25
REMARK    5  A    between atoms: C_26  and  C_27
REMARK                            x       y       z     vdW  Elec       q    Type
REMARK                         _______ _______ _______ _____ _____    ______ ____
ROOT
ATOM      1  C   UNL     1       4.258  -0.814   0.000  0.00  0.00    +0.000 C 
ATOM      2  C   UNL     1       3.705  -0.201   0.000  0.00  0.00    +0.000 C 
ATOM      3  C   UNL     1       2.898  -0.372   0.000  0.00  0.00    +0.000 C 
ATOM      4  C   UNL     1       2.346   0.241   0.000  0.00  0.00    +0.000 A 
ATOM      5  C   UNL     1       2.601   1.026   0.000  0.00  0.00    +0.000 A 
ATOM      6  N   UNL     1       1.934   1.510   0.000  0.00  0.00    +0.000 NA
ATOM      7  C   UNL     1       1.266   1.026   0.000  0.00  0.00    +0.000 A 
ATOM      8  C   UNL     1       1.521   0.241   0.000  0.00  0.00    +0.000 A 
ATOM      9  C   UNL     1       0.969  -0.372   0.000  0.00  0.00    +0.000 A 
ATOM     10  C   UNL     1       0.162  -0.201   0.000  0.00  0.00    +0.000 A 
ATOM     11  C   UNL     1      -0.092   0.584   0.000  0.00  0.00    +0.000 A 
ATOM     12  C   UNL     1       0.460   1.197   0.000  0.00  0.00    +0.000 A 
ATOM     13  C   UNL     1       3.408   1.197   0.000  0.00  0.00    +0.000 C 
ATOM     14  N   UNL     1       3.960   0.584   0.000  0.00  0.00    +0.000 NA
ENDROOT
BRANCH  13  15
ATOM     15  C   UNL     1       3.663   1.982   0.000  0.00  0.00    +0.000 A 
ATOM     16  C   UNL     1       3.111   2.595   0.000  0.00  0.00    +0.000 A 
ATOM     17  F   UNL     1       2.304   2.423   0.000  0.00  0.00    +0.000 F 
ATOM     18  C   UNL     1       3.366   3.380   0.000  0.00  0.00    +0.000 A 
ATOM     19  C   UNL     1       4.173   3.551   0.000  0.00  0.00    +0.000 A 
ATOM     20  C   UNL     1       4.725   2.938   0.000  0.00  0.00    +0.000 A 
ATOM     21  C   UNL     1       4.470   2.153   0.000  0.00  0.00    +0.000 A 
ATOM     22  F   UNL     1       5.022   1.540   0.000  0.00  0.00    +0.000 F 
BRANCH  19  23
ATOM     23  C   UNL     1       4.428   4.336   0.000  0.00  0.00    +0.000 C 
ATOM     24  C   UNL     1       5.235   4.507   0.000  0.00  0.00    +0.000 C 
BRANCH  24  25
ATOM     25  C   UNL     1       5.490   5.292   0.000  0.00  0.00    +0.000 C 
ATOM     26  O   UNL     1       4.938   5.905   0.000  0.00  0.00    +0.000 OA
ATOM     27  O   UNL     1       6.297   5.463   0.000  0.00  0.00    +0.000 OA
ENDBRANCH  24  25
ENDBRANCH  19  23
ENDBRANCH  13  15
BRANCH  14  28
ATOM     28  C   UNL     1       4.767   0.756   0.000  0.00  0.00    +0.000 C 
BRANCH  28  29
ATOM     29  C   UNL     1       5.319   0.142   0.000  0.00  0.00    +0.000 C 
ATOM     30  C   UNL     1       4.706  -0.410   0.000  0.00  0.00    +0.000 C 
ATOM     31  C   UNL     1       5.933   0.695   0.000  0.00  0.00    +0.000 C 
ATOM     32  F   UNL     1       5.871  -0.471   0.000  0.00  0.00    +0.000 F 
ENDBRANCH  28  29
ENDBRANCH  14  28
TORSDOF 5
