REMARK  Name = 
REMARK  5 active torsions:
REMARK  status: ('A' for Active; 'I' for Inactive)
REMARK    1  A    between atoms: O_2  and  C_3
REMARK    2  A    between atoms: C_5  and  C_18
REMARK    3  A    between atoms: C_8  and  O_9
REMARK    4  A    between atoms: C_12  and  C_15
REMARK    5  A    between atoms: C_18  and  C_19
REMARK                            x       y       z     vdW  Elec       q    Type
REMARK                         _______ _______ _______ _____ _____    ______ ____
ROOT
ATOM      1  C   UNL     1      -0.715  -0.412   0.000  0.00  0.00    +0.000 A 
ATOM      2  C   UNL     1      -0.715  -1.238   0.000  0.00  0.00    +0.000 A 
ATOM      3  C   UNL     1       0.000  -1.650   0.000  0.00  0.00    +0.000 A 
ATOM      4  C   UNL     1       0.715  -1.238   0.000  0.00  0.00    +0.000 A 
ATOM      5  C   UNL     1       0.715  -0.412   0.000  0.00  0.00    +0.000 A 
ATOM      6  C   UNL     1       0.000   0.000   0.000  0.00  0.00    +0.000 A 
ATOM      7  O   UNL     1       1.429   0.000   0.000  0.00  0.00    +0.000 OA
ATOM      8  C   UNL     1       2.143  -0.412   0.000  0.00  0.00    +0.000 C 
ATOM      9  C   UNL     1       2.143  -1.238   0.000  0.00  0.00    +0.000 C 
ATOM     10  C   UNL     1       1.429  -1.650   0.000  0.00  0.00    +0.000 C 
ENDROOT
BRANCH   8  11
ATOM     11  C   UNL     1       2.858   0.000   0.000  0.00  0.00    +0.000 C 
ATOM     12  C   UNL     1       3.270   0.715   0.000  0.00  0.00    +0.000 C 
ATOM     13  C   UNL     1       3.683   0.000   0.000  0.00  0.00    +0.000 C 
ENDBRANCH   8  11
BRANCH   1  15
ATOM     14  C   UNL     1      -1.429   0.825   0.000  0.00  0.00    +0.000 C 
ATOM     15  O   UNL     1      -1.429   0.000   0.000  0.00  0.00    +0.000 OA
ENDBRANCH   1  15
BRANCH   6  16
ATOM     16  O   UNL     1       0.000   0.825   0.000  0.00  0.00    +0.000 OA
ATOM     17  C   UNL     1      -0.715   1.238   0.000  0.00  0.00    +0.000 C 
ENDBRANCH   6  16
BRANCH   3  18
ATOM     18  C   UNL     1       0.000  -2.475   0.000  0.00  0.00    +0.000 C 
BRANCH  18  19
ATOM     19  C   UNL     1      -0.715  -2.888   0.000  0.00  0.00    +0.000 A 
ATOM     20  C   UNL     1      -0.715  -3.712   0.000  0.00  0.00    +0.000 A 
ATOM     21  N   UNL     1      -1.429  -4.125   0.000  0.00  0.00    +0.000 NA
ATOM     22  C   UNL     1      -2.143  -3.712   0.000  0.00  0.00    +0.000 A 
ATOM     23  N   UNL     1      -2.143  -2.888   0.000  0.00  0.00    +0.000 NA
ATOM     24  C   UNL     1      -1.429  -2.475   0.000  0.00  0.00    +0.000 A 
ATOM     25  N   UNL     1      -1.429  -1.650   0.000  0.00  0.00    +0.000 NA
ATOM     26  N   UNL     1      -2.858  -4.125   0.000  0.00  0.00    +0.000 NA
ENDBRANCH  18  19
ENDBRANCH   3  18
TORSDOF 5
