REMARK  Name = 
REMARK  9 active torsions:
REMARK  status: ('A' for Active; 'I' for Inactive)
REMARK    1  A    between atoms: C_3  and  C_15
REMARK    2  A    between atoms: N_6  and  C_9
REMARK    3  A    between atoms: C_15  and  N_16
REMARK    4  A    between atoms: C_15  and  S_35
REMARK    5  A    between atoms: N_16  and  C_17
REMARK    6  A    between atoms: C_20  and  S_23
REMARK    7  A    between atoms: S_23  and  N_26
REMARK    8  A    between atoms: N_26  and  C_27
REMARK    9  A    between atoms: C_30  and  O_33
REMARK                            x       y       z     vdW  Elec       q    Type
REMARK                         _______ _______ _______ _____ _____    ______ ____
ROOT
ATOM      1  C   UNL     1       7.776  -3.179   0.000  0.00  0.00    +0.000 C 
ENDROOT
BRANCH   1   4
ATOM      2  C   UNL     1       6.324  -2.124   0.000  0.00  0.00    +0.000 C 
ATOM      3  C   UNL     1       6.324  -2.949   0.000  0.00  0.00    +0.000 A 
ATOM      4  C   UNL     1       6.991  -3.434   0.000  0.00  0.00    +0.000 A 
ATOM      5  C   UNL     1       6.736  -4.219   0.000  0.00  0.00    +0.000 A 
ATOM      6  O   UNL     1       7.221  -4.886   0.000  0.00  0.00    +0.000 OA
ATOM      7  N   UNL     1       5.911  -4.219   0.000  0.00  0.00    +0.000 N 
ATOM      8  N   UNL     1       5.656  -3.434   0.000  0.00  0.00    +0.000 N 
ATOM      9  C   UNL     1       4.872  -3.179   0.000  0.00  0.00    +0.000 C 
BRANCH   7  10
ATOM     10  C   UNL     1       5.426  -4.886   0.000  0.00  0.00    +0.000 A 
ATOM     11  C   UNL     1       5.762  -5.640   0.000  0.00  0.00    +0.000 A 
ATOM     12  C   UNL     1       5.277  -6.307   0.000  0.00  0.00    +0.000 A 
ATOM     13  C   UNL     1       4.456  -6.221   0.000  0.00  0.00    +0.000 A 
ATOM     14  C   UNL     1       4.121  -5.467   0.000  0.00  0.00    +0.000 A 
ATOM     15  C   UNL     1       4.606  -4.800   0.000  0.00  0.00    +0.000 A 
ENDBRANCH   7  10
ENDBRANCH   1   4
BRANCH   1  16
ATOM     16  S   UNL     1       8.389  -3.731   0.000  0.00  0.00    +0.000 S 
ATOM     17  O   UNL     1       9.002  -4.283   0.000  0.00  0.00    +0.000 OA
ATOM     18  O   UNL     1       8.941  -3.118   0.000  0.00  0.00    +0.000 OA
ATOM     19  O   UNL     1       7.837  -4.344   0.000  0.00  0.00    +0.000 OA
ENDBRANCH   1  16
BRANCH   1  20
ATOM     20  N   UNL     1       7.947  -2.372   0.000  0.00  0.00    +0.000 NA
BRANCH  20  21
ATOM     21  C   UNL     1       8.732  -2.117   0.000  0.00  0.00    +0.000 A 
ATOM     22  C   UNL     1       8.903  -1.310   0.000  0.00  0.00    +0.000 A 
ATOM     23  C   UNL     1       9.688  -1.055   0.000  0.00  0.00    +0.000 A 
ATOM     24  C   UNL     1      10.301  -1.607   0.000  0.00  0.00    +0.000 A 
ATOM     25  C   UNL     1      10.130  -2.414   0.000  0.00  0.00    +0.000 A 
ATOM     26  C   UNL     1       9.345  -2.669   0.000  0.00  0.00    +0.000 A 
BRANCH  24  27
ATOM     27  S   UNL     1      11.086  -1.352   0.000  0.00  0.00    +0.000 S 
ATOM     28  O   UNL     1      11.341  -2.137   0.000  0.00  0.00    +0.000 OA
ATOM     29  O   UNL     1      10.831  -0.568   0.000  0.00  0.00    +0.000 OA
BRANCH  27  30
ATOM     30  N   UNL     1      11.870  -1.097   0.000  0.00  0.00    +0.000 NA
BRANCH  30  31
ATOM     31  C   UNL     1      12.483  -1.649   0.000  0.00  0.00    +0.000 A 
ATOM     32  C   UNL     1      13.268  -1.395   0.000  0.00  0.00    +0.000 A 
ATOM     33  C   UNL     1      13.881  -1.946   0.000  0.00  0.00    +0.000 A 
ATOM     34  C   UNL     1      13.710  -2.753   0.000  0.00  0.00    +0.000 A 
ATOM     35  N   UNL     1      12.925  -3.009   0.000  0.00  0.00    +0.000 NA
ATOM     36  N   UNL     1      12.312  -2.456   0.000  0.00  0.00    +0.000 NA
BRANCH  34  37
ATOM     37  O   UNL     1      14.323  -3.306   0.000  0.00  0.00    +0.000 OA
ATOM     38  C   UNL     1      15.107  -3.051   0.000  0.00  0.00    +0.000 C 
ENDBRANCH  34  37
ENDBRANCH  30  31
ENDBRANCH  27  30
ENDBRANCH  24  27
ENDBRANCH  20  21
ENDBRANCH   1  20
TORSDOF 9
