REMARK  Name = 
REMARK  6 active torsions:
REMARK  status: ('A' for Active; 'I' for Inactive)
REMARK    1  A    between atoms: C_1  and  C_2
REMARK    2  A    between atoms: C_2  and  C_3
REMARK    3  A    between atoms: C_3  and  C_4
REMARK    4  A    between atoms: C_10  and  C_11
REMARK    5  A    between atoms: C_11  and  C_12
REMARK    6  A    between atoms: C_12  and  C_13
REMARK                            x       y       z     vdW  Elec       q    Type
REMARK                         _______ _______ _______ _____ _____    ______ ____
ROOT
ATOM      1  C   UNL     1       0.000   0.247   0.000  0.00  0.00    +0.000 C 
ATOM      2  O   UNL     1       0.000   1.073   0.000  0.00  0.00    +0.000 OA
ENDROOT
BRANCH   1   3
ATOM      3  C   UNL     1       0.715  -0.165   0.000  0.00  0.00    +0.000 C 
ATOM      4  O   UNL     1       0.715  -0.990   0.000  0.00  0.00    +0.000 OA
ATOM      5  O   UNL     1       1.429   0.247   0.000  0.00  0.00    +0.000 OA
ENDBRANCH   1   3
BRANCH   1   6
ATOM      6  C   UNL     1      -0.715  -0.165   0.000  0.00  0.00    +0.000 C 
ATOM      7  O   UNL     1      -0.715  -0.990   0.000  0.00  0.00    +0.000 OA
BRANCH   6   8
ATOM      8  C   UNL     1      -1.429   0.247   0.000  0.00  0.00    +0.000 C 
ATOM      9  O   UNL     1      -2.143  -0.165   0.000  0.00  0.00    +0.000 OA
ENDBRANCH   6   8
ENDBRANCH   1   6
TORSDOF 3
REMARK  Name = 
REMARK  6 active torsions:
REMARK  status: ('A' for Active; 'I' for Inactive)
REMARK    1  A    between atoms: C_1  and  C_2
REMARK    2  A    between atoms: C_2  and  C_3
REMARK    3  A    between atoms: C_3  and  C_4
REMARK    4  A    between atoms: C_10  and  C_11
REMARK    5  A    between atoms: C_11  and  C_12
REMARK    6  A    between atoms: C_12  and  C_13
REMARK                            x       y       z     vdW  Elec       q    Type
REMARK                         _______ _______ _______ _____ _____    ______ ____
ROOT
ATOM      1  C   UNL     1       6.173   0.321   0.000  0.00  0.00    +0.000 C 
ATOM      2  O   UNL     1       6.173   1.146   0.000  0.00  0.00    +0.000 OA
ENDROOT
BRANCH   1   3
ATOM      3  C   UNL     1       6.887  -0.092   0.000  0.00  0.00    +0.000 C 
ATOM      4  O   UNL     1       7.601   0.321   0.000  0.00  0.00    +0.000 OA
ATOM      5  O   UNL     1       6.887  -0.917   0.000  0.00  0.00    +0.000 OA
ENDBRANCH   1   3
BRANCH   1   6
ATOM      6  C   UNL     1       5.458  -0.092   0.000  0.00  0.00    +0.000 C 
ATOM      7  O   UNL     1       5.458  -0.917   0.000  0.00  0.00    +0.000 OA
BRANCH   6   8
ATOM      8  C   UNL     1       4.744   0.321   0.000  0.00  0.00    +0.000 C 
ATOM      9  O   UNL     1       4.029  -0.092   0.000  0.00  0.00    +0.000 OA
ENDBRANCH   6   8
ENDBRANCH   1   6
TORSDOF 3
REMARK  Name = 
REMARK  6 active torsions:
REMARK  status: ('A' for Active; 'I' for Inactive)
REMARK    1  A    between atoms: C_1  and  C_2
REMARK    2  A    between atoms: C_2  and  C_3
REMARK    3  A    between atoms: C_3  and  C_4
REMARK    4  A    between atoms: C_10  and  C_11
REMARK    5  A    between atoms: C_11  and  C_12
REMARK    6  A    between atoms: C_12  and  C_13
REMARK                            x       y       z     vdW  Elec       q    Type
REMARK                         _______ _______ _______ _____ _____    ______ ____
ROOT
ATOM      1 CA   UNL     1       2.143   0.660   0.000  0.00  0.00    +0.000 Ca
ENDROOT
TORSDOF 0
