REMARK  Name = 
REMARK  14 active torsions:
REMARK  status: ('A' for Active; 'I' for Inactive)
REMARK    1  A    between atoms: C_2  and  N_3
REMARK    2  A    between atoms: N_3  and  C_4
REMARK    3  A    between atoms: N_3  and  C_6
REMARK    4  A    between atoms: C_6  and  C_7
REMARK    5  A    between atoms: C_10  and  O_15
REMARK    6  A    between atoms: C_11  and  O_13
REMARK    7  A    between atoms: O_15  and  C_16
REMARK    8  A    between atoms: C_16  and  C_17
REMARK    9  A    between atoms: C_17  and  C_18
REMARK   10  A    between atoms: C_38  and  C_39
REMARK   11  A    between atoms: C_38  and  C_42
REMARK   12  A    between atoms: C_42  and  C_43
REMARK   13  A    between atoms: C_42  and  C_47
REMARK   14  A    between atoms: C_43  and  C_44
REMARK                            x       y       z     vdW  Elec       q    Type
REMARK                         _______ _______ _______ _____ _____    ______ ____
ROOT
ATOM      1  C   UNL     1      -0.389  -0.184   0.000  0.00  0.00    +0.000 C 
ATOM      2  C   UNL     1      -0.160   0.609   0.000  0.00  0.00    +0.000 C 
ATOM      3  C   UNL     1      -0.843   1.072   0.000  0.00  0.00    +0.000 C 
ATOM      4  C   UNL     1      -1.494   0.566   0.000  0.00  0.00    +0.000 C 
ATOM      5  C   UNL     1      -1.214  -0.210   0.000  0.00  0.00    +0.000 C 
ATOM      6  C   UNL     1      -1.746  -0.841   0.000  0.00  0.00    +0.000 C 
ATOM      7  C   UNL     1      -2.558  -0.696   0.000  0.00  0.00    +0.000 C 
ATOM      8  C   UNL     1      -2.838   0.080   0.000  0.00  0.00    +0.000 C 
ATOM      9  C   UNL     1      -2.306   0.711   0.000  0.00  0.00    +0.000 C 
ATOM     10  C   UNL     1      -2.587   1.487   0.000  0.00  0.00    +0.000 C 
ATOM     11  C   UNL     1      -3.399   1.632   0.000  0.00  0.00    +0.000 C 
ATOM     12  C   UNL     1      -3.931   1.001   0.000  0.00  0.00    +0.000 A 
ATOM     13  C   UNL     1      -3.650   0.225   0.000  0.00  0.00    +0.000 A 
ATOM     14  C   UNL     1      -4.182  -0.405   0.000  0.00  0.00    +0.000 A 
ATOM     15  C   UNL     1      -4.994  -0.260   0.000  0.00  0.00    +0.000 A 
ATOM     16  C   UNL     1      -5.275   0.516   0.000  0.00  0.00    +0.000 A 
ATOM     17  C   UNL     1      -4.743   1.146   0.000  0.00  0.00    +0.000 A 
ATOM     18  O   UNL     1      -6.087   0.661   0.000  0.00  0.00    +0.000 OA
ATOM     19  C   UNL     1      -2.055   2.117   0.000  0.00  0.00    +0.000 C 
ATOM     20  C   UNL     1      -0.854  -0.953   0.000  0.00  0.00    +0.000 C 
ENDROOT
BRANCH   1  21
ATOM     21  C   UNL     1       0.117  -0.835   0.000  0.00  0.00    +0.000 C 
BRANCH  21  22
ATOM     22  C   UNL     1       0.934  -0.722   0.000  0.00  0.00    +0.000 C 
BRANCH  22  23
ATOM     23  O   UNL     1       1.441  -1.373   0.000  0.00  0.00    +0.000 OA
BRANCH  23  27
ATOM     24  C   UNL     1       3.892  -1.035   0.000  0.00  0.00    +0.000 A 
ATOM     25  C   UNL     1       3.581  -1.799   0.000  0.00  0.00    +0.000 A 
ATOM     26  C   UNL     1       2.764  -1.912   0.000  0.00  0.00    +0.000 A 
ATOM     27  C   UNL     1       2.258  -1.260   0.000  0.00  0.00    +0.000 A 
ATOM     28  C   UNL     1       2.569  -0.496   0.000  0.00  0.00    +0.000 A 
ATOM     29  C   UNL     1       3.386  -0.384   0.000  0.00  0.00    +0.000 A 
BRANCH  28  30
ATOM     30  O   UNL     1       2.062   0.155   0.000  0.00  0.00    +0.000 OA
ATOM     31  C   UNL     1       2.373   0.919   0.000  0.00  0.00    +0.000 C 
ENDBRANCH  28  30
BRANCH  24  32
ATOM     32  C   UNL     1       4.710  -0.922   0.000  0.00  0.00    +0.000 C 
BRANCH  32  33
ATOM     33  N   UNL     1       5.020  -0.158   0.000  0.00  0.00    +0.000 NA
BRANCH  33  34
ATOM     34  C   UNL     1       4.514   0.493   0.000  0.00  0.00    +0.000 C 
ATOM     35  C   UNL     1       3.697   0.381   0.000  0.00  0.00    +0.000 C 
ENDBRANCH  33  34
BRANCH  33  37
ATOM     36  C   UNL     1       6.149   0.719   0.000  0.00  0.00    +0.000 C 
ATOM     37  C   UNL     1       5.838  -0.045   0.000  0.00  0.00    +0.000 C 
ENDBRANCH  33  37
ENDBRANCH  32  33
ENDBRANCH  24  32
ENDBRANCH  23  27
ENDBRANCH  22  23
ENDBRANCH  21  22
ENDBRANCH   1  21
TORSDOF 9
REMARK  Name = 
REMARK  14 active torsions:
REMARK  status: ('A' for Active; 'I' for Inactive)
REMARK    1  A    between atoms: C_2  and  N_3
REMARK    2  A    between atoms: N_3  and  C_4
REMARK    3  A    between atoms: N_3  and  C_6
REMARK    4  A    between atoms: C_6  and  C_7
REMARK    5  A    between atoms: C_10  and  O_15
REMARK    6  A    between atoms: C_11  and  O_13
REMARK    7  A    between atoms: O_15  and  C_16
REMARK    8  A    between atoms: C_16  and  C_17
REMARK    9  A    between atoms: C_17  and  C_18
REMARK   10  A    between atoms: C_38  and  C_39
REMARK   11  A    between atoms: C_38  and  C_42
REMARK   12  A    between atoms: C_42  and  C_43
REMARK   13  A    between atoms: C_42  and  C_47
REMARK   14  A    between atoms: C_43  and  C_44
REMARK                            x       y       z     vdW  Elec       q    Type
REMARK                         _______ _______ _______ _____ _____    ______ ____
ROOT
ATOM      1  C   UNL     1       9.463   0.000   0.000  0.00  0.00    +0.000 C 
ATOM      2  O   UNL     1       8.638   0.000   0.000  0.00  0.00    +0.000 OA
ENDROOT
BRANCH   1   3
ATOM      3  C   UNL     1      10.288   0.000   0.000  0.00  0.00    +0.000 C 
ATOM      4  O   UNL     1      10.701   0.715   0.000  0.00  0.00    +0.000 OA
ATOM      5  O   UNL     1      10.701  -0.715   0.000  0.00  0.00    +0.000 OA
ENDBRANCH   1   3
BRANCH   1   6
ATOM      6  C   UNL     1       9.463  -0.825   0.000  0.00  0.00    +0.000 C 
BRANCH   6   7
ATOM      7  C   UNL     1       8.749  -1.238   0.000  0.00  0.00    +0.000 C 
ATOM      8  O   UNL     1       8.749  -2.062   0.000  0.00  0.00    +0.000 OA
ATOM      9  O   UNL     1       8.034  -0.825   0.000  0.00  0.00    +0.000 OA
ENDBRANCH   6   7
ENDBRANCH   1   6
BRANCH   1  10
ATOM     10  C   UNL     1       9.463   0.825   0.000  0.00  0.00    +0.000 C 
BRANCH  10  11
ATOM     11  C   UNL     1       8.749   1.238   0.000  0.00  0.00    +0.000 C 
ATOM     12  O   UNL     1       8.749   2.062   0.000  0.00  0.00    +0.000 OA
ATOM     13  O   UNL     1       8.034   0.825   0.000  0.00  0.00    +0.000 OA
ENDBRANCH  10  11
ENDBRANCH   1  10
TORSDOF 5
