REMARK  Name = 
REMARK  44 active torsions:
REMARK  status: ('A' for Active; 'I' for Inactive)
REMARK    1  A    between atoms: C_1  and  C_93
REMARK    2  A    between atoms: C_3  and  C_4
REMARK    3  A    between atoms: N_6  and  C_7
REMARK    4  A    between atoms: C_7  and  C_8
REMARK    5  A    between atoms: C_7  and  C_55
REMARK    6  A    between atoms: N_9  and  C_10
REMARK    7  A    between atoms: C_10  and  C_11
REMARK    8  A    between atoms: C_11  and  C_12
REMARK    9  A    between atoms: C_12  and  C_13
REMARK   10  A    between atoms: N_14  and  C_15
REMARK   11  A    between atoms: C_15  and  C_16
REMARK   12  A    between atoms: C_15  and  C_47
REMARK   13  A    between atoms: N_17  and  C_18
REMARK   14  A    between atoms: C_18  and  C_19
REMARK   15  A    between atoms: C_19  and  C_20
REMARK   16  A    between atoms: C_23  and  C_25
REMARK   17  A    between atoms: C_28  and  C_30
REMARK   18  A    between atoms: N_31  and  C_32
REMARK   19  A    between atoms: C_32  and  C_33
REMARK   20  A    between atoms: C_33  and  C_34
REMARK   21  A    between atoms: C_34  and  N_35
REMARK   22  A    between atoms: N_35  and  C_36
REMARK   23  A    between atoms: C_36  and  C_37
REMARK   24  A    between atoms: C_37  and  C_38
REMARK   25  A    between atoms: C_38  and  C_39
REMARK   26  A    between atoms: C_39  and  N_40
REMARK   27  A    between atoms: N_40  and  C_41
REMARK   28  A    between atoms: C_41  and  C_42
REMARK   29  A    between atoms: C_42  and  C_43
REMARK   30  A    between atoms: C_55  and  O_56
REMARK   31  A    between atoms: C_55  and  C_83
REMARK   32  A    between atoms: O_56  and  C_57
REMARK   33  A    between atoms: C_59  and  C_60
REMARK   34  A    between atoms: C_64  and  O_65
REMARK   35  A    between atoms: O_65  and  C_66
REMARK   36  A    between atoms: C_68  and  C_78
REMARK   37  A    between atoms: C_70  and  O_73
REMARK   38  A    between atoms: O_73  and  C_74
REMARK   39  A    between atoms: C_93  and  C_94
REMARK   40  A    between atoms: C_93  and  N_98
REMARK   41  A    between atoms: C_94  and  C_95
REMARK   42  A    between atoms: N_98  and  C_99
REMARK   43  A    between atoms: C_99  and  C_100
REMARK   44  A    between atoms: C_100  and  C_102
REMARK                            x       y       z     vdW  Elec       q    Type
REMARK                         _______ _______ _______ _____ _____    ______ ____
ROOT
ATOM      1  C   UNL     1       1.357  -4.656   0.000  0.00  0.00    +0.000 C 
ENDROOT
BRANCH   1   4
ATOM      2  C   UNL     1      -0.068  -4.661   0.000  0.00  0.00    +0.000 C 
ATOM      3  O   UNL     1      -0.068  -3.836   0.000  0.00  0.00    +0.000 OA
ATOM      4  N   UNL     1       0.642  -5.073   0.000  0.00  0.00    +0.000 NA
BRANCH   2   7
ATOM      5  C   UNL     1      -2.210  -5.078   0.000  0.00  0.00    +0.000 A 
ATOM      6  N   UNL     1      -1.500  -4.665   0.000  0.00  0.00    +0.000 NA
ATOM      7  C   UNL     1      -0.779  -5.074   0.000  0.00  0.00    +0.000 A 
ATOM      8  C   UNL     1      -0.779  -5.910   0.000  0.00  0.00    +0.000 A 
ATOM      9  C   UNL     1      -1.498  -6.323   0.000  0.00  0.00    +0.000 A 
ATOM     10  N   UNL     1      -1.498  -7.148   0.000  0.00  0.00    +0.000 NA
ATOM     11  N   UNL     1      -2.210  -5.910   0.000  0.00  0.00    +0.000 NA
ATOM     12  C   UNL     1      -0.066  -6.321   0.000  0.00  0.00    +0.000 C 
BRANCH   5  13
ATOM     13  C   UNL     1      -2.928  -4.665   0.000  0.00  0.00    +0.000 C 
BRANCH  13  14
ATOM     14  C   UNL     1      -3.639  -5.078   0.000  0.00  0.00    +0.000 C 
BRANCH  14  15
ATOM     15  C   UNL     1      -4.354  -4.670   0.000  0.00  0.00    +0.000 C 
ATOM     16  O   UNL     1      -4.354  -3.845   0.000  0.00  0.00    +0.000 OA
ATOM     17  N   UNL     1      -5.069  -5.085   0.000  0.00  0.00    +0.000 NA
ENDBRANCH  14  15
ENDBRANCH  13  14
BRANCH  13  18
ATOM     18  N   UNL     1      -2.928  -3.840   0.000  0.00  0.00    +0.000 NA
BRANCH  18  19
ATOM     19  C   UNL     1      -2.213  -3.427   0.000  0.00  0.00    +0.000 C 
BRANCH  19  20
ATOM     20  C   UNL     1      -2.213  -2.602   0.000  0.00  0.00    +0.000 C 
ATOM     21  N   UNL     1      -1.501  -2.189   0.000  0.00  0.00    +0.000 NA
BRANCH  20  22
ATOM     22  C   UNL     1      -2.930  -2.190   0.000  0.00  0.00    +0.000 C 
ATOM     23  O   UNL     1      -2.930  -1.365   0.000  0.00  0.00    +0.000 OA
ATOM     24  N   UNL     1      -3.643  -2.603   0.000  0.00  0.00    +0.000 NA
ENDBRANCH  20  22
ENDBRANCH  19  20
ENDBRANCH  18  19
ENDBRANCH  13  18
ENDBRANCH   5  13
ENDBRANCH   2   7
ENDBRANCH   1   4
BRANCH   1  25
ATOM     25  C   UNL     1       1.357  -3.836   0.000  0.00  0.00    +0.000 C 
ATOM     26  N   UNL     1       2.068  -3.423   0.000  0.00  0.00    +0.000 NA
ATOM     27  O   UNL     1       0.640  -3.424   0.000  0.00  0.00    +0.000 OA
BRANCH  26  28
ATOM     28  C   UNL     1       2.068  -2.603   0.000  0.00  0.00    +0.000 C 
ATOM     29  C   UNL     1       1.355  -2.191   0.000  0.00  0.00    +0.000 C 
BRANCH  28  30
ATOM     30  C   UNL     1       2.783  -2.190   0.000  0.00  0.00    +0.000 C 
ATOM     31  O   UNL     1       3.500  -2.602   0.000  0.00  0.00    +0.000 OA
BRANCH  30  32
ATOM     32  C   UNL     1       2.783  -1.365   0.000  0.00  0.00    +0.000 C 
ATOM     33  C   UNL     1       2.065  -0.953   0.000  0.00  0.00    +0.000 C 
BRANCH  32  34
ATOM     34  C   UNL     1       3.498  -0.953   0.000  0.00  0.00    +0.000 C 
ATOM     35  N   UNL     1       3.498  -0.133   0.000  0.00  0.00    +0.000 NA
ATOM     36  O   UNL     1       4.211  -1.365   0.000  0.00  0.00    +0.000 OA
BRANCH  35  37
ATOM     37  C   UNL     1       4.208   0.280   0.000  0.00  0.00    +0.000 C 
BRANCH  37  38
ATOM     38  C   UNL     1       4.208   1.100   0.000  0.00  0.00    +0.000 C 
ATOM     39  N   UNL     1       4.923   1.513   0.000  0.00  0.00    +0.000 NA
ATOM     40  O   UNL     1       3.495   1.512   0.000  0.00  0.00    +0.000 OA
BRANCH  39  41
ATOM     41  C   UNL     1       4.923   2.338   0.000  0.00  0.00    +0.000 C 
BRANCH  41  42
ATOM     42  C   UNL     1       5.634   2.750   0.000  0.00  0.00    +0.000 C 
BRANCH  42  43
ATOM     43  C   UNL     1       5.634   3.571   0.000  0.00  0.00    +0.000 A 
ATOM     44  S   UNL     1       6.297   4.055   0.000  0.00  0.00    +0.000 S 
ATOM     45  C   UNL     1       6.045   4.841   0.000  0.00  0.00    +0.000 A 
ATOM     46  C   UNL     1       5.220   4.841   0.000  0.00  0.00    +0.000 A 
ATOM     47  N   UNL     1       4.969   4.055   0.000  0.00  0.00    +0.000 NA
BRANCH  46  48
ATOM     48  C   UNL     1       4.737   5.506   0.000  0.00  0.00    +0.000 A 
ATOM     49  S   UNL     1       4.986   6.290   0.000  0.00  0.00    +0.000 S 
ATOM     50  C   UNL     1       4.320   6.778   0.000  0.00  0.00    +0.000 A 
ATOM     51  C   UNL     1       3.650   6.290   0.000  0.00  0.00    +0.000 A 
ATOM     52  N   UNL     1       3.908   5.506   0.000  0.00  0.00    +0.000 NA
BRANCH  51  53
ATOM     53  C   UNL     1       2.939   6.706   0.000  0.00  0.00    +0.000 C 
ATOM     54  N   UNL     1       2.224   6.293   0.000  0.00  0.00    +0.000 NA
ATOM     55  O   UNL     1       2.939   7.531   0.000  0.00  0.00    +0.000 OA
BRANCH  54  56
ATOM     56  C   UNL     1       1.509   6.701   0.000  0.00  0.00    +0.000 C 
BRANCH  56  57
ATOM     57  C   UNL     1       0.798   6.289   0.000  0.00  0.00    +0.000 C 
BRANCH  57  58
ATOM     58  C   UNL     1       0.083   6.697   0.000  0.00  0.00    +0.000 C 
BRANCH  58  59
ATOM     59  N   UNL     1      -0.628   6.282   0.000  0.00  0.00    +0.000 NA
BRANCH  59  60
ATOM     60  C   UNL     1      -1.347   6.696   0.000  0.00  0.00    +0.000 C 
BRANCH  60  61
ATOM     61  C   UNL     1      -2.058   6.277   0.000  0.00  0.00    +0.000 C 
BRANCH  61  62
ATOM     62  C   UNL     1      -2.776   6.691   0.000  0.00  0.00    +0.000 C 
BRANCH  62  63
ATOM     63  C   UNL     1      -3.492   6.280   0.000  0.00  0.00    +0.000 C 
BRANCH  63  64
ATOM     64  N   UNL     1      -4.202   6.692   0.000  0.00  0.00    +0.000 NA
BRANCH  64  65
ATOM     65  C   UNL     1      -4.917   6.280   0.000  0.00  0.00    +0.000 C 
BRANCH  65  66
ATOM     66  C   UNL     1      -5.632   6.692   0.000  0.00  0.00    +0.000 C 
BRANCH  66  67
ATOM     67  C   UNL     1      -6.345   6.276   0.000  0.00  0.00    +0.000 C 
ATOM     68  N   UNL     1      -7.062   6.694   0.000  0.00  0.00    +0.000 NA
ENDBRANCH  66  67
ENDBRANCH  65  66
ENDBRANCH  64  65
ENDBRANCH  63  64
ENDBRANCH  62  63
ENDBRANCH  61  62
ENDBRANCH  60  61
ENDBRANCH  59  60
ENDBRANCH  58  59
ENDBRANCH  57  58
ENDBRANCH  56  57
ENDBRANCH  54  56
ENDBRANCH  51  53
ENDBRANCH  46  48
ENDBRANCH  42  43
ENDBRANCH  41  42
ENDBRANCH  39  41
ENDBRANCH  37  38
BRANCH  37  69
ATOM     69  C   UNL     1       4.926  -0.132   0.000  0.00  0.00    +0.000 C 
ATOM     70  C   UNL     1       5.721   0.083   0.000  0.00  0.00    +0.000 C 
ATOM     71  O   UNL     1       4.819  -0.949   0.000  0.00  0.00    +0.000 OA
ENDBRANCH  37  69
ENDBRANCH  35  37
ENDBRANCH  32  34
ENDBRANCH  30  32
ENDBRANCH  28  30
ENDBRANCH  26  28
ENDBRANCH   1  25
BRANCH   1  72
ATOM     72  C   UNL     1       2.068  -5.069   0.000  0.00  0.00    +0.000 C 
BRANCH  72  73
ATOM     73  C   UNL     1       2.068  -5.894   0.000  0.00  0.00    +0.000 A 
ATOM     74  N   UNL     1       1.410  -6.381   0.000  0.00  0.00    +0.000 NA
ATOM     75  C   UNL     1       1.665  -7.166   0.000  0.00  0.00    +0.000 A 
ATOM     76  N   UNL     1       2.490  -7.166   0.000  0.00  0.00    +0.000 NA
ATOM     77  C   UNL     1       2.746  -6.378   0.000  0.00  0.00    +0.000 A 
ENDBRANCH  72  73
BRANCH  72  78
ATOM     78  O   UNL     1       2.783  -4.656   0.000  0.00  0.00    +0.000 OA
BRANCH  78  79
ATOM     79  C   UNL     1       3.498  -5.064   0.000  0.00  0.00    +0.000 C 
ATOM     80  O   UNL     1       3.498  -5.886   0.000  0.00  0.00    +0.000 OA
ATOM     81  C   UNL     1       4.204  -6.294   0.000  0.00  0.00    +0.000 C 
ATOM     82  C   UNL     1       4.919  -5.885   0.000  0.00  0.00    +0.000 C 
ATOM     83  C   UNL     1       4.919  -5.063   0.000  0.00  0.00    +0.000 C 
ATOM     84  C   UNL     1       4.203  -4.650   0.000  0.00  0.00    +0.000 C 
ATOM     85  O   UNL     1       5.636  -4.651   0.000  0.00  0.00    +0.000 OA
ATOM     86  O   UNL     1       5.636  -6.298   0.000  0.00  0.00    +0.000 OA
BRANCH  81  87
ATOM     87  C   UNL     1       4.204  -7.119   0.000  0.00  0.00    +0.000 C 
ATOM     88  O   UNL     1       3.491  -7.531   0.000  0.00  0.00    +0.000 OA
ENDBRANCH  81  87
BRANCH  84  89
ATOM     89  O   UNL     1       4.203  -3.825   0.000  0.00  0.00    +0.000 OA
BRANCH  89  90
ATOM     90  C   UNL     1       4.917  -3.406   0.000  0.00  0.00    +0.000 C 
ATOM     91  O   UNL     1       5.632  -3.822   0.000  0.00  0.00    +0.000 OA
ATOM     92  C   UNL     1       6.341  -3.411   0.000  0.00  0.00    +0.000 C 
ATOM     93  C   UNL     1       6.341  -2.586   0.000  0.00  0.00    +0.000 C 
ATOM     94  C   UNL     1       5.631  -2.173   0.000  0.00  0.00    +0.000 C 
ATOM     95  C   UNL     1       4.917  -2.585   0.000  0.00  0.00    +0.000 C 
ATOM     96  O   UNL     1       4.196  -2.175   0.000  0.00  0.00    +0.000 OA
ATOM     97  O   UNL     1       7.062  -2.175   0.000  0.00  0.00    +0.000 OA
BRANCH  92  98
ATOM     98  C   UNL     1       7.058  -3.825   0.000  0.00  0.00    +0.000 C 
ATOM     99  O   UNL     1       7.058  -4.655   0.000  0.00  0.00    +0.000 OA
ENDBRANCH  92  98
BRANCH  94 100
ATOM    100  O   UNL     1       5.631  -1.348   0.000  0.00  0.00    +0.000 OA
BRANCH 100 101
ATOM    101  C   UNL     1       6.345  -0.936   0.000  0.00  0.00    +0.000 C 
ATOM    102  O   UNL     1       6.345  -0.111   0.000  0.00  0.00    +0.000 OA
ATOM    103  N   UNL     1       7.062  -1.350   0.000  0.00  0.00    +0.000 NA
ENDBRANCH 100 101
ENDBRANCH  94 100
ENDBRANCH  89  90
ENDBRANCH  84  89
ENDBRANCH  78  79
ENDBRANCH  72  78
ENDBRANCH   1  72
TORSDOF 44
