REMARK  Name = 
REMARK  3 active torsions:
REMARK  status: ('A' for Active; 'I' for Inactive)
REMARK    1  A    between atoms: C_1  and  C_11
REMARK    2  A    between atoms: N_2  and  C_3
REMARK    3  A    between atoms: C_3  and  N_4
REMARK                            x       y       z     vdW  Elec       q    Type
REMARK                         _______ _______ _______ _____ _____    ______ ____
ROOT
ATOM      1  C   UNL     1      -0.357   1.031   0.000  0.00  0.00    +0.000 C 
ATOM      2  N   UNL     1      -0.357   0.206   0.000  0.00  0.00    +0.000 NA
ATOM      3  O   UNL     1      -1.072   1.444   0.000  0.00  0.00    +0.000 OA
ENDROOT
BRANCH   1   4
ATOM      4  C   UNL     1       0.357   1.444   0.000  0.00  0.00    +0.000 A 
ATOM      5  C   UNL     1       0.357   2.269   0.000  0.00  0.00    +0.000 A 
ATOM      6  N   UNL     1       1.072   2.681   0.000  0.00  0.00    +0.000 NA
ATOM      7  C   UNL     1       1.786   2.269   0.000  0.00  0.00    +0.000 A 
ATOM      8  C   UNL     1       1.786   1.444   0.000  0.00  0.00    +0.000 A 
ATOM      9  N   UNL     1       1.072   1.031   0.000  0.00  0.00    +0.000 NA
ENDBRANCH   1   4
BRANCH   2  10
ATOM     10  C   UNL     1      -1.072  -0.206   0.000  0.00  0.00    +0.000 C 
BRANCH  10  11
ATOM     11  N   UNL     1      -1.072  -1.031   0.000  0.00  0.00    +0.000 NA
ATOM     12  C   UNL     1      -0.357  -1.444   0.000  0.00  0.00    +0.000 C 
ATOM     13  C   UNL     1      -0.357  -2.269   0.000  0.00  0.00    +0.000 C 
ATOM     14  O   UNL     1      -1.072  -2.681   0.000  0.00  0.00    +0.000 OA
ATOM     15  C   UNL     1      -1.786  -2.269   0.000  0.00  0.00    +0.000 C 
ATOM     16  C   UNL     1      -1.786  -1.444   0.000  0.00  0.00    +0.000 C 
ENDBRANCH  10  11
ENDBRANCH   2  10
TORSDOF 3
