REMARK  Name = 
REMARK  8 active torsions:
REMARK  status: ('A' for Active; 'I' for Inactive)
REMARK    1  A    between atoms: C_2  and  C_3
REMARK    2  A    between atoms: C_2  and  N_9
REMARK    3  A    between atoms: C_3  and  C_4
REMARK    4  A    between atoms: N_12  and  C_13
REMARK    5  A    between atoms: C_13  and  C_14
REMARK    6  A    between atoms: C_14  and  N_15
REMARK    7  A    between atoms: C_14  and  C_18
REMARK    8  A    between atoms: C_18  and  C_19
REMARK                            x       y       z     vdW  Elec       q    Type
REMARK                         _______ _______ _______ _____ _____    ______ ____
ROOT
ATOM      1  C   UNL     1      -0.643  -0.327   0.000  0.00  0.00    +0.000 C 
ENDROOT
BRANCH   1   5
ATOM      2  N   UNL     1       1.504   0.079   0.000  0.00  0.00    +0.000 NA
ATOM      3  C   UNL     1       0.782  -0.336   0.000  0.00  0.00    +0.000 C 
ATOM      4  O   UNL     1       0.782  -1.158   0.000  0.00  0.00    +0.000 OA
ATOM      5  N   UNL     1       0.069   0.079   0.000  0.00  0.00    +0.000 NA
BRANCH   2   7
ATOM      6  C   UNL     1       2.207  -1.168   0.000  0.00  0.00    +0.000 C 
ATOM      7  C   UNL     1       2.217  -0.336   0.000  0.00  0.00    +0.000 C 
BRANCH   7   8
ATOM      8  C   UNL     1       2.930   0.069   0.000  0.00  0.00    +0.000 C 
BRANCH   8   9
ATOM      9  C   UNL     1       3.642  -0.346   0.000  0.00  0.00    +0.000 A 
ATOM     10  C   UNL     1       3.731  -1.168   0.000  0.00  0.00    +0.000 A 
ATOM     11  S   UNL     1       4.533  -1.346   0.000  0.00  0.00    +0.000 S 
ATOM     12  C   UNL     1       4.949  -0.633   0.000  0.00  0.00    +0.000 A 
ATOM     13  C   UNL     1       4.404  -0.010   0.000  0.00  0.00    +0.000 A 
ENDBRANCH   8   9
ENDBRANCH   7   8
ENDBRANCH   2   7
ENDBRANCH   1   5
BRANCH   1  14
ATOM     14  C   UNL     1      -1.366   0.089   0.000  0.00  0.00    +0.000 C 
BRANCH  14  15
ATOM     15  N   UNL     1      -1.356   0.920   0.000  0.00  0.00    +0.000 NA
ATOM     16  C   UNL     1      -2.068   1.336   0.000  0.00  0.00    +0.000 C 
ATOM     17  C   UNL     1      -0.643   1.326   0.000  0.00  0.00    +0.000 C 
ENDBRANCH  14  15
BRANCH  14  18
ATOM     18  C   UNL     1      -2.078  -0.317   0.000  0.00  0.00    +0.000 C 
BRANCH  18  19
ATOM     19  C   UNL     1      -2.791   0.099   0.000  0.00  0.00    +0.000 A 
ATOM     20  C   UNL     1      -3.504  -0.317   0.000  0.00  0.00    +0.000 A 
ATOM     21  C   UNL     1      -4.216   0.089   0.000  0.00  0.00    +0.000 A 
ATOM     22  C   UNL     1      -4.226   0.930   0.000  0.00  0.00    +0.000 A 
ATOM     23  C   UNL     1      -3.514   1.346   0.000  0.00  0.00    +0.000 A 
ATOM     24  C   UNL     1      -2.781   0.910   0.000  0.00  0.00    +0.000 A 
ATOM     25  O   UNL     1      -4.949   1.346   0.000  0.00  0.00    +0.000 OA
ENDBRANCH  18  19
ENDBRANCH  14  18
ENDBRANCH   1  14
TORSDOF 8
