REMARK  Name = 
REMARK  6 active torsions:
REMARK  status: ('A' for Active; 'I' for Inactive)
REMARK    1  A    between atoms: C_1  and  N_2
REMARK    2  A    between atoms: C_1  and  C_3
REMARK    3  A    between atoms: N_13  and  C_38
REMARK    4  A    between atoms: C_21  and  C_22
REMARK    5  A    between atoms: C_32  and  C_33
REMARK    6  A    between atoms: C_38  and  C_39
REMARK                            x       y       z     vdW  Elec       q    Type
REMARK                         _______ _______ _______ _____ _____    ______ ____
ROOT
ATOM      1  C   UNL     1       0.824  -3.348   0.000  0.00  0.00    +0.000 A 
ATOM      2  C   UNL     1       0.426  -4.060   0.000  0.00  0.00    +0.000 A 
ATOM      3  C   UNL     1       1.662  -3.343   0.000  0.00  0.00    +0.000 A 
ATOM      4  C   UNL     1       2.069  -2.627   0.000  0.00  0.00    +0.000 C 
ATOM      5  C   UNL     1       2.881  -2.571   0.000  0.00  0.00    +0.000 C 
ATOM      6  N   UNL     1       3.483  -2.029   0.000  0.00  0.00    +0.000 NA
ATOM      7  C   UNL     1       4.154  -3.349   0.000  0.00  0.00    +0.000 C 
ATOM      8  C   UNL     1       3.303  -3.336   0.000  0.00  0.00    +0.000 C 
ATOM      9  C   UNL     1       3.671  -3.861   0.000  0.00  0.00    +0.000 C 
ATOM     10  C   UNL     1       4.063  -2.604   0.000  0.00  0.00    +0.000 C 
ATOM     11  C   UNL     1       2.918  -4.069   0.000  0.00  0.00    +0.000 C 
ATOM     12  C   UNL     1       3.272  -4.791   0.000  0.00  0.00    +0.000 C 
ATOM     13  C   UNL     1       4.157  -4.777   0.000  0.00  0.00    +0.000 C 
ATOM     14  C   UNL     1       4.561  -4.058   0.000  0.00  0.00    +0.000 C 
ATOM     15  O   UNL     1       4.668  -5.486   0.000  0.00  0.00    +0.000 OA
ATOM     16  C   UNL     1       2.074  -4.063   0.000  0.00  0.00    +0.000 A 
ATOM     17  O   UNL     1       2.462  -5.146   0.000  0.00  0.00    +0.000 OA
ATOM     18  C   UNL     1       1.665  -4.776   0.000  0.00  0.00    +0.000 A 
ATOM     19  C   UNL     1       0.834  -4.782   0.000  0.00  0.00    +0.000 A 
ATOM     20  O   UNL     1       0.275  -5.486   0.000  0.00  0.00    +0.000 OA
ATOM     21  O   UNL     1       2.478  -3.336   0.000  0.00  0.00    +0.000 OA
ENDROOT
BRANCH  14  23
ATOM     22  N   UNL     1       5.669  -4.766   0.000  0.00  0.00    +0.000 NA
ATOM     23  C   UNL     1       5.360  -4.060   0.000  0.00  0.00    +0.000 C 
ATOM     24  O   UNL     1       5.787  -3.326   0.000  0.00  0.00    +0.000 OA
BRANCH  22  25
ATOM     25  C   UNL     1       6.647  -4.776   0.000  0.00  0.00    +0.000 C 
ATOM     26  C   UNL     1       7.561  -4.766   0.000  0.00  0.00    +0.000 C 
ATOM     27  C   UNL     1       7.155  -5.486   0.000  0.00  0.00    +0.000 C 
BRANCH  25  28
ATOM     28  C   UNL     1       7.050  -4.065   0.000  0.00  0.00    +0.000 A 
ATOM     29  O   UNL     1       6.769  -3.260   0.000  0.00  0.00    +0.000 OA
ATOM     30  N   UNL     1       7.869  -4.046   0.000  0.00  0.00    +0.000 NA
ATOM     31  N   UNL     1       7.450  -2.776   0.000  0.00  0.00    +0.000 NA
ATOM     32  C   UNL     1       8.135  -3.278   0.000  0.00  0.00    +0.000 A 
BRANCH  32  33
ATOM     33  C   UNL     1       8.936  -3.004   0.000  0.00  0.00    +0.000 A 
ATOM     34  C   UNL     1      10.494  -2.529   0.000  0.00  0.00    +0.000 A 
ATOM     35  C   UNL     1       9.874  -2.008   0.000  0.00  0.00    +0.000 A 
ATOM     36  C   UNL     1       9.545  -3.567   0.000  0.00  0.00    +0.000 A 
ATOM     37  C   UNL     1      10.325  -3.303   0.000  0.00  0.00    +0.000 A 
ATOM     38  C   UNL     1       9.068  -2.286   0.000  0.00  0.00    +0.000 A 
ENDBRANCH  32  33
ENDBRANCH  25  28
ENDBRANCH  22  25
ENDBRANCH  14  23
BRANCH   6  39
ATOM     39  C   UNL     1       3.483  -1.216   0.000  0.00  0.00    +0.000 C 
BRANCH  39  40
ATOM     40  C   UNL     1       2.749  -0.795   0.000  0.00  0.00    +0.000 C 
ATOM     41  C   UNL     1       1.972  -0.797   0.000  0.00  0.00    +0.000 C 
ATOM     42  C   UNL     1       2.362  -0.099   0.000  0.00  0.00    +0.000 C 
ENDBRANCH  39  40
ENDBRANCH   6  39
TORSDOF 6
