REMARK  Name = 
REMARK  7 active torsions:
REMARK  status: ('A' for Active; 'I' for Inactive)
REMARK    1  A    between atoms: C_2  and  O_25
REMARK    2  A    between atoms: C_10  and  C_14
REMARK    3  A    between atoms: C_11  and  C_15
REMARK    4  A    between atoms: C_11  and  N_21
REMARK    5  A    between atoms: C_16  and  C_17
REMARK    6  A    between atoms: C_16  and  O_25
REMARK    7  A    between atoms: C_18  and  N_21
REMARK                            x       y       z     vdW  Elec       q    Type
REMARK                         _______ _______ _______ _____ _____    ______ ____
ROOT
ATOM      1  C   UNL     1      -1.367  -1.285   0.000  0.00  0.00    +0.000 C 
ATOM      2  C   UNL     1       0.062  -1.285   0.000  0.00  0.00    +0.000 C 
ATOM      3  C   UNL     1      -0.790  -1.148   0.000  0.00  0.00    +0.000 C 
ATOM      4  C   UNL     1      -1.367  -0.460   0.000  0.00  0.00    +0.000 C 
ATOM      5  C   UNL     1       0.062  -0.460   0.000  0.00  0.00    +0.000 C 
ATOM      6  C   UNL     1      -0.790  -0.598   0.000  0.00  0.00    +0.000 C 
ATOM      7  C   UNL     1      -0.653  -1.698   0.000  0.00  0.00    +0.000 C 
ATOM      8  C   UNL     1      -0.653  -0.048   0.000  0.00  0.00    +0.000 C 
ENDROOT
BRANCH   7   9
ATOM      9  C   UNL     1      -0.653  -2.523   0.000  0.00  0.00    +0.000 C 
ATOM     10  O   UNL     1       0.062  -2.935   0.000  0.00  0.00    +0.000 OA
BRANCH   9  11
ATOM     11  O   UNL     1      -1.367  -2.935   0.000  0.00  0.00    +0.000 OA
BRANCH  11  13
ATOM     12  C   UNL     1      -2.082  -4.173   0.000  0.00  0.00    +0.000 C 
ATOM     13  C   UNL     1      -1.367  -3.760   0.000  0.00  0.00    +0.000 C 
ENDBRANCH  11  13
ENDBRANCH   9  11
ENDBRANCH   7   9
BRANCH   8  14
ATOM     14  N   UNL     1      -0.653   0.777   0.000  0.00  0.00    +0.000 NA
BRANCH  14  15
ATOM     15  C   UNL     1       0.062   1.190   0.000  0.00  0.00    +0.000 C 
BRANCH  15  20
ATOM     16  C   UNL     1       2.082   2.705   0.000  0.00  0.00    +0.000 C 
ATOM     17  C   UNL     1       0.862   3.248   0.000  0.00  0.00    +0.000 C 
ATOM     18  C   UNL     1       1.669   3.419   0.000  0.00  0.00    +0.000 C 
ATOM     19  C   UNL     1       1.530   2.092   0.000  0.00  0.00    +0.000 C 
ATOM     20  C   UNL     1       0.062   2.015   0.000  0.00  0.00    +0.000 C 
ATOM     21  F   UNL     1       2.005   4.173   0.000  0.00  0.00    +0.000 F 
ATOM     22  N   UNL     1       0.776   2.427   0.000  0.00  0.00    +0.000 N 
ATOM     23  O   UNL     1      -0.653   2.427   0.000  0.00  0.00    +0.000 OA
BRANCH  19  24
ATOM     24  C   UNL     1       1.701   1.285   0.000  0.00  0.00    +0.000 C 
ATOM     25  N   UNL     1       1.873   0.478   0.000  0.00  0.00    +0.000 NA
ENDBRANCH  19  24
ENDBRANCH  15  20
ENDBRANCH  14  15
ENDBRANCH   8  14
TORSDOF 7
