REMARK  Name = 
REMARK  4 active torsions:
REMARK  status: ('A' for Active; 'I' for Inactive)
REMARK    1  A    between atoms: S_1  and  C_17
REMARK    2  A    between atoms: C_7  and  C_12
REMARK    3  A    between atoms: C_8  and  C_11
REMARK    4  A    between atoms: C_9  and  C_10
REMARK                            x       y       z     vdW  Elec       q    Type
REMARK                         _______ _______ _______ _____ _____    ______ ____
ROOT
ATOM      1  N   UNL     1       0.667   0.593   0.000  0.00  0.00    +0.000 NA
ATOM      2  N   UNL     1      -0.667   0.593   0.000  0.00  0.00    +0.000 NA
ATOM      3  C   UNL     1       0.412   1.378   0.000  0.00  0.00    +0.000 A 
ATOM      4  C   UNL     1      -0.412   1.378   0.000  0.00  0.00    +0.000 A 
ATOM      5  C   UNL     1       0.000   0.108   0.000  0.00  0.00    +0.000 A 
ENDROOT
BRANCH   4   7
ATOM      6  F   UNL     1      -2.352   4.047   0.000  0.00  0.00    +0.000 F 
ATOM      7  C   UNL     1      -0.897   2.045   0.000  0.00  0.00    +0.000 A 
ATOM      8  C   UNL     1      -1.718   1.959   0.000  0.00  0.00    +0.000 A 
ATOM      9  C   UNL     1      -0.562   2.799   0.000  0.00  0.00    +0.000 A 
ATOM     10  C   UNL     1      -2.203   2.626   0.000  0.00  0.00    +0.000 A 
ATOM     11  C   UNL     1      -1.047   3.466   0.000  0.00  0.00    +0.000 A 
ATOM     12  C   UNL     1      -1.867   3.380   0.000  0.00  0.00    +0.000 A 
ENDBRANCH   4   7
BRANCH   3  14
ATOM     13  N   UNL     1       1.867   3.380   0.000  0.00  0.00    +0.000 NA
ATOM     14  C   UNL     1       0.897   2.045   0.000  0.00  0.00    +0.000 A 
ATOM     15  C   UNL     1       0.562   2.799   0.000  0.00  0.00    +0.000 A 
ATOM     16  C   UNL     1       1.718   1.959   0.000  0.00  0.00    +0.000 A 
ATOM     17  C   UNL     1       1.047   3.466   0.000  0.00  0.00    +0.000 A 
ATOM     18  C   UNL     1       2.203   2.626   0.000  0.00  0.00    +0.000 A 
ENDBRANCH   3  14
BRANCH   5  19
ATOM     19  C   UNL     1       0.000  -0.717   0.000  0.00  0.00    +0.000 A 
ATOM     20  C   UNL     1       0.715  -1.129   0.000  0.00  0.00    +0.000 A 
ATOM     21  C   UNL     1      -0.715  -1.129   0.000  0.00  0.00    +0.000 A 
ATOM     22  C   UNL     1       0.000  -2.367   0.000  0.00  0.00    +0.000 A 
ATOM     23  C   UNL     1       0.715  -1.954   0.000  0.00  0.00    +0.000 A 
ATOM     24  C   UNL     1      -0.715  -1.954   0.000  0.00  0.00    +0.000 A 
BRANCH  22  25
ATOM     25  S   UNL     1       0.000  -3.192   0.000  0.00  0.00    +0.000 S 
ATOM     26  O   UNL     1       0.715  -3.604   0.000  0.00  0.00    +0.000 OA
ATOM     27  C   UNL     1      -0.715  -3.604   0.000  0.00  0.00    +0.000 C 
ENDBRANCH  22  25
ENDBRANCH   5  19
TORSDOF 4
