REMARK  Name = 
REMARK  6 active torsions:
REMARK  status: ('A' for Active; 'I' for Inactive)
REMARK    1  A    between atoms: N_8  and  C_12
REMARK    2  A    between atoms: N_9  and  C_14
REMARK    3  A    between atoms: C_13  and  C_16
REMARK    4  A    between atoms: C_16  and  C_18
REMARK    5  A    between atoms: C_17  and  C_19
REMARK    6  A    between atoms: C_18  and  C_20
REMARK                            x       y       z     vdW  Elec       q    Type
REMARK                         _______ _______ _______ _____ _____    ______ ____
ROOT
ATOM      1  O   UNL     1       0.357  -0.825   0.000  0.00  0.00    +0.000 OA
ATOM      2  C   UNL     1      -0.357   0.412   0.000  0.00  0.00    +0.000 C 
ATOM      3  C   UNL     1       0.357   0.000   0.000  0.00  0.00    +0.000 C 
ATOM      4  C   UNL     1      -1.072   0.000   0.000  0.00  0.00    +0.000 C 
ATOM      5  C   UNL     1      -1.072  -0.825   0.000  0.00  0.00    +0.000 C 
ATOM      6  C   UNL     1      -0.357  -1.238   0.000  0.00  0.00    +0.000 C 
ENDROOT
BRANCH   4   7
ATOM      7  N   UNL     1      -1.786   0.412   0.000  0.00  0.00    +0.000 NA
ATOM      8  N   UNL     1      -3.215   0.412   0.000  0.00  0.00    +0.000 NA
ATOM      9  N   UNL     1      -2.501  -0.825   0.000  0.00  0.00    +0.000 NA
ATOM     10  C   UNL     1      -2.501   0.000   0.000  0.00  0.00    +0.000 C 
ENDBRANCH   4   7
BRANCH   2  12
ATOM     11  O   UNL     1      -1.786   1.238   0.000  0.00  0.00    +0.000 OA
ATOM     12  N   UNL     1      -0.357   1.238   0.000  0.00  0.00    +0.000 NA
ATOM     13  C   UNL     1      -1.072   1.650   0.000  0.00  0.00    +0.000 C 
ATOM     14  C   UNL     1      -1.072   2.475   0.000  0.00  0.00    +0.000 C 
ENDBRANCH   2  12
BRANCH   6  17
ATOM     15  O   UNL     1      -1.072  -2.475   0.000  0.00  0.00    +0.000 OA
ATOM     16  O   UNL     1       0.357  -2.475   0.000  0.00  0.00    +0.000 OA
ATOM     17  C   UNL     1      -0.357  -2.062   0.000  0.00  0.00    +0.000 C 
ENDBRANCH   6  17
BRANCH   3  19
ATOM     18  O   UNL     1       1.072   1.238   0.000  0.00  0.00    +0.000 OA
ATOM     19  C   UNL     1       1.072   0.412   0.000  0.00  0.00    +0.000 C 
BRANCH  19  21
ATOM     20  O   UNL     1       1.786  -0.825   0.000  0.00  0.00    +0.000 OA
ATOM     21  C   UNL     1       1.786   0.000   0.000  0.00  0.00    +0.000 C 
BRANCH  21  23
ATOM     22  O   UNL     1       3.215   0.000   0.000  0.00  0.00    +0.000 OA
ATOM     23  C   UNL     1       2.501   0.412   0.000  0.00  0.00    +0.000 C 
ENDBRANCH  21  23
ENDBRANCH  19  21
ENDBRANCH   3  19
TORSDOF 6
