REMARK  Name = 
REMARK  10 active torsions:
REMARK  status: ('A' for Active; 'I' for Inactive)
REMARK    1  A    between atoms: N_7  and  C_8
REMARK    2  A    between atoms: C_8  and  C_9
REMARK    3  A    between atoms: C_9  and  C_10
REMARK    4  A    between atoms: C_10  and  C_11
REMARK    5  A    between atoms: C_15  and  C_16
REMARK    6  A    between atoms: C_16  and  C_17
REMARK    7  A    between atoms: C_17  and  C_18
REMARK    8  A    between atoms: C_18  and  C_19
REMARK    9  A    between atoms: CA_25  and  CB_26
REMARK   10  A    between atoms: CB_26  and  CG_27
REMARK                            x       y       z     vdW  Elec       q    Type
REMARK                         _______ _______ _______ _____ _____    ______ ____
ROOT
ATOM      1  C   UNK A   1       1.762  -0.672   0.000  0.00  0.00    +0.000 C 
ATOM      2  N   UNK A   1       0.998  -0.397   0.000  0.00  0.00    +0.000 NA
ATOM      3  C   UNK A   5       0.214  -0.428   0.000  0.00  0.00    +0.000 C 
ATOM      4  O   UNK A   5       0.214   0.397   0.000  0.00  0.00    +0.000 OA
ATOM      5  C   UNK A   5      -0.519  -0.784   0.000  0.00  0.00    +0.000 C 
ATOM      6  N   UNK A   5      -1.018  -1.436   0.000  0.00  0.00    +0.000 NA
ATOM      7  C   HIS A   4      -1.263  -2.271   0.000  0.00  0.00    +0.000 C 
ATOM      8  O   HIS A   4      -1.935  -1.924   0.000  0.00  0.00    +0.000 OA
ATOM      9  CA  HIS A   4      -1.100  -3.126   0.000  0.00  0.00    +0.000 C 
ATOM     10  N   ASN A   3      -0.611  -3.798   0.000  0.00  0.00    +0.000 N 
ATOM     11  CG  ASN A   3      -0.845  -4.572   0.000  0.00  0.00    +0.000 C 
ATOM     12  OD1 ASN A   3      -1.700  -5.010   0.000  0.00  0.00    +0.000 OA
ATOM     13  CB  ASN A   3       0.173  -5.091   0.000  0.00  0.00    +0.000 C 
ATOM     14  CA  ASN A   3       0.713  -4.327   0.000  0.00  0.00    +0.000 C 
ATOM     15  N   ASN A   3       1.558  -4.154   0.000  0.00  0.00    +0.000 NA
ATOM     16  C   PRO A   2       2.230  -3.594   0.000  0.00  0.00    +0.000 C 
ATOM     17  O   PRO A   2       2.861  -4.134   0.000  0.00  0.00    +0.000 OA
ATOM     18  CA  PRO A   2       2.627  -2.841   0.000  0.00  0.00    +0.000 C 
ATOM     19  CB  PRO A   2       3.462  -3.085   0.000  0.00  0.00    +0.000 C 
ATOM     20  CG  PRO A   2       3.940  -2.444   0.000  0.00  0.00    +0.000 C 
ATOM     21  CD  PRO A   2       3.462  -1.772   0.000  0.00  0.00    +0.000 C 
ATOM     22  N   PRO A   2       2.698  -2.016   0.000  0.00  0.00    +0.000 N 
ATOM     23  C   UNK A   1       2.362  -1.222   0.000  0.00  0.00    +0.000 C 
ATOM     24  O   UNK A   1       3.055  -0.723   0.000  0.00  0.00    +0.000 OA
ATOM     25  C   ASN A   3       0.163  -3.655   0.000  0.00  0.00    +0.000 C 
ATOM     26  O   ASN A   3       0.580  -2.810   0.000  0.00  0.00    +0.000 OA
ENDROOT
BRANCH   1  27
ATOM     27  C   UNK A   1       2.148   0.071   0.000  0.00  0.00    +0.000 C 
BRANCH  27  28
ATOM     28  C   UNK A   1       1.823   0.845   0.000  0.00  0.00    +0.000 C 
BRANCH  28  29
ATOM     29  C   UNK A   1       2.260   1.527   0.000  0.00  0.00    +0.000 C 
BRANCH  29  36
ATOM     30  C   UNK A   1       3.116   4.358   0.000  0.00  0.00    +0.000 C 
ATOM     31  C   UNK A   1       2.301   4.378   0.000  0.00  0.00    +0.000 C 
ATOM     32  O   UNK A   1       1.894   5.091   0.000  0.00  0.00    +0.000 OA
ATOM     33  N   UNK A   1       1.873   3.666   0.000  0.00  0.00    +0.000 NA
ATOM     34  C   UNK A   1       2.281   2.953   0.000  0.00  0.00    +0.000 C 
ATOM     35  N   UNK A   1       3.095   2.933   0.000  0.00  0.00    +0.000 NA
ATOM     36  N   UNK A   1       1.853   2.240   0.000  0.00  0.00    +0.000 NA
ENDBRANCH  29  36
ENDBRANCH  28  29
ENDBRANCH  27  28
ENDBRANCH   1  27
BRANCH   9  37
ATOM     37  CB  HIS A   4      -1.924  -3.279   0.000  0.00  0.00    +0.000 C 
BRANCH  37  38
ATOM     38  CG  HIS A   4      -2.617  -2.810   0.000  0.00  0.00    +0.000 A 
ATOM     39  CD2 HIS A   4      -2.688  -2.036   0.000  0.00  0.00    +0.000 A 
ATOM     40  NE2 HIS A   4      -3.503  -1.843   0.000  0.00  0.00    +0.000 NA
ATOM     41  CE1 HIS A   4      -3.940  -2.556   0.000  0.00  0.00    +0.000 A 
ATOM     42  ND1 HIS A   4      -3.421  -3.146   0.000  0.00  0.00    +0.000 NA
ENDBRANCH  37  38
ENDBRANCH   9  37
BRANCH   5  43
ATOM     43  C   UNK A   5      -1.069  -0.183   0.000  0.00  0.00    +0.000 C 
BRANCH  43  44
ATOM     44  C   UNK A   5      -0.906   0.601   0.000  0.00  0.00    +0.000 C 
BRANCH  44  45
ATOM     45  C   UNK A   5      -1.385   1.273   0.000  0.00  0.00    +0.000 C 
BRANCH  45  46
ATOM     46  C   UNK A   5      -1.039   2.016   0.000  0.00  0.00    +0.000 C 
ATOM     47  O   UNK A   5      -0.224   2.138   0.000  0.00  0.00    +0.000 OA
ATOM     48  O   UNK A   5      -1.609   2.607   0.000  0.00  0.00    +0.000 OA
ENDBRANCH  45  46
ENDBRANCH  44  45
ENDBRANCH  43  44
ENDBRANCH   5  43
TORSDOF 10
