REMARK  Name = 
REMARK  3 active torsions:
REMARK  status: ('A' for Active; 'I' for Inactive)
REMARK    1  A    between atoms: C_12  and  C_14
REMARK    2  A    between atoms: C_17  and  O_18
REMARK    3  A    between atoms: O_18  and  C_19
REMARK                            x       y       z     vdW  Elec       q    Type
REMARK                         _______ _______ _______ _____ _____    ______ ____
ROOT
ATOM      1  C   UNL     1       0.000   0.000   0.000  0.00  0.00    +0.000 C 
ATOM      2  C   UNL     1       0.715  -0.412   0.000  0.00  0.00    +0.000 C 
ATOM      3  C   UNL     1       1.429   0.000   0.000  0.00  0.00    +0.000 C 
ATOM      4  N   UNL     1       2.143  -0.412   0.000  0.00  0.00    +0.000 N 
ATOM      5  C   UNL     1       2.858   0.000   0.000  0.00  0.00    +0.000 C 
ATOM      6  C   UNL     1       3.572  -0.412   0.000  0.00  0.00    +0.000 C 
ATOM      7  S   UNL     1       3.572  -1.238   0.000  0.00  0.00    +0.000 S 
ATOM      8  O   UNL     1       4.385  -1.094   0.000  0.00  0.00    +0.000 OA
ATOM      9  O   UNL     1       3.854  -2.013   0.000  0.00  0.00    +0.000 OA
ATOM     10  N   UNL     1       2.858  -1.650   0.000  0.00  0.00    +0.000 NA
ATOM     11  C   UNL     1       2.143  -1.238   0.000  0.00  0.00    +0.000 C 
ATOM     12  C   UNL     1       1.429  -1.650   0.000  0.00  0.00    +0.000 C 
ATOM     13  N   UNL     1       0.715  -1.238   0.000  0.00  0.00    +0.000 NA
ENDROOT
BRANCH  12  14
ATOM     14  C   UNL     1       1.429  -2.475   0.000  0.00  0.00    +0.000 A 
ATOM     15  C   UNL     1       2.143  -2.888   0.000  0.00  0.00    +0.000 A 
ATOM     16  C   UNL     1       2.143  -3.712   0.000  0.00  0.00    +0.000 A 
ATOM     17  C   UNL     1       1.429  -4.125   0.000  0.00  0.00    +0.000 A 
ATOM     18  C   UNL     1       0.715  -3.712   0.000  0.00  0.00    +0.000 A 
ATOM     19  C   UNL     1       0.715  -2.888   0.000  0.00  0.00    +0.000 A 
BRANCH  17  20
ATOM     20  O   UNL     1       1.429  -4.950   0.000  0.00  0.00    +0.000 OA
BRANCH  20  21
ATOM     21  C   UNL     1       0.715  -5.362   0.000  0.00  0.00    +0.000 C 
ATOM     22  C   UNL     1       0.715  -6.188   0.000  0.00  0.00    +0.000 C 
ATOM     23  C   UNL     1       0.000  -6.600   0.000  0.00  0.00    +0.000 C 
ATOM     24  C   UNL     1      -0.715  -6.188   0.000  0.00  0.00    +0.000 C 
ATOM     25  C   UNL     1      -0.715  -5.362   0.000  0.00  0.00    +0.000 C 
ATOM     26  C   UNL     1       0.000  -4.950   0.000  0.00  0.00    +0.000 C 
ENDBRANCH  20  21
ENDBRANCH  17  20
ENDBRANCH  12  14
TORSDOF 3
