REMARK  Name = 
REMARK  6 active torsions:
REMARK  status: ('A' for Active; 'I' for Inactive)
REMARK    1  A    between atoms: C_2  and  N_4
REMARK    2  A    between atoms: N_4  and  C_5
REMARK    3  A    between atoms: C_5  and  C_6
REMARK    4  A    between atoms: C_6  and  C_7
REMARK    5  A    between atoms: C_7  and  O_8
REMARK    6  A    between atoms: O_8  and  C_9
REMARK                            x       y       z     vdW  Elec       q    Type
REMARK                         _______ _______ _______ _____ _____    ______ ____
ROOT
ATOM      1  C   UNL     1       4.287  -4.125   0.000  0.00  0.00    +0.000 C 
ENDROOT
BRANCH   1   2
ATOM      2  C   UNL     1       3.572  -3.712   0.000  0.00  0.00    +0.000 C 
ATOM      3  O   UNL     1       3.572  -2.888   0.000  0.00  0.00    +0.000 OA
BRANCH   2   4
ATOM      4  C   UNL     1       2.858  -4.125   0.000  0.00  0.00    +0.000 C 
BRANCH   4   5
ATOM      5  N   UNL     1       2.143  -3.712   0.000  0.00  0.00    +0.000 NA
BRANCH   5   7
ATOM      6  C   UNL     1       0.715  -3.712   0.000  0.00  0.00    +0.000 C 
ATOM      7  C   UNL     1       1.429  -4.125   0.000  0.00  0.00    +0.000 C 
ATOM      8  C   UNL     1       1.429  -4.950   0.000  0.00  0.00    +0.000 C 
ENDBRANCH   5   7
ENDBRANCH   4   5
ENDBRANCH   2   4
ENDBRANCH   1   2
BRANCH   1   9
ATOM      9  O   UNL     1       5.001  -3.712   0.000  0.00  0.00    +0.000 OA
BRANCH   9  10
ATOM     10  C   UNL     1       5.716  -4.125   0.000  0.00  0.00    +0.000 A 
ATOM     11  C   UNL     1       6.430  -3.712   0.000  0.00  0.00    +0.000 A 
ATOM     12  C   UNL     1       7.145  -4.125   0.000  0.00  0.00    +0.000 A 
ATOM     13  C   UNL     1       7.145  -4.950   0.000  0.00  0.00    +0.000 A 
ATOM     14  C   UNL     1       6.430  -5.362   0.000  0.00  0.00    +0.000 A 
ATOM     15  C   UNL     1       5.716  -4.950   0.000  0.00  0.00    +0.000 A 
ATOM     16  O   UNL     1       7.859  -5.362   0.000  0.00  0.00    +0.000 OA
ENDBRANCH   9  10
ENDBRANCH   1   9
TORSDOF 6
