REMARK  Name = 
REMARK  3 active torsions:
REMARK  status: ('A' for Active; 'I' for Inactive)
REMARK    1  A    between atoms: C_7  and  O_14
REMARK    2  A    between atoms: C_13  and  C_21
REMARK    3  A    between atoms: O_14  and  C_16
REMARK                            x       y       z     vdW  Elec       q    Type
REMARK                         _______ _______ _______ _____ _____    ______ ____
ROOT
ATOM      1  O   UNL     1      -0.719   1.047   0.000  0.00  0.00    +0.000 OA
ENDROOT
BRANCH   1  10
ATOM      2  C   UNL     1       1.411   0.625   0.000  0.00  0.00    +0.000 A 
ATOM      3  C   UNL     1       1.410  -0.205   0.000  0.00  0.00    +0.000 A 
ATOM      4  C   UNL     1       2.127  -0.619   0.000  0.00  0.00    +0.000 A 
ATOM      5  C   UNL     1       2.845  -0.204   0.000  0.00  0.00    +0.000 A 
ATOM      6  C   UNL     1       2.842   0.628   0.000  0.00  0.00    +0.000 A 
ATOM      7  O   UNL     1       2.125   1.039   0.000  0.00  0.00    +0.000 OA
ATOM      8  C   UNL     1       0.702  -0.625   0.000  0.00  0.00    +0.000 A 
ATOM      9  C   UNL     1      -0.008  -0.207   0.000  0.00  0.00    +0.000 A 
ATOM     10  C   UNL     1      -0.008   0.629   0.000  0.00  0.00    +0.000 A 
ATOM     11  C   UNL     1       0.702   1.047   0.000  0.00  0.00    +0.000 A 
ATOM     12  O   UNL     1       3.556   1.047   0.000  0.00  0.00    +0.000 OA
ATOM     13  C   UNL     1       2.119  -1.444   0.000  0.00  0.00    +0.000 C 
ENDBRANCH   1  10
BRANCH   1  14
ATOM     14  C   UNL     1      -1.429   0.629   0.000  0.00  0.00    +0.000 C 
ATOM     15  C   UNL     1      -2.139   1.047   0.000  0.00  0.00    +0.000 C 
ATOM     16  C   UNL     1      -2.850   0.629   0.000  0.00  0.00    +0.000 C 
ATOM     17  O   UNL     1      -1.429  -0.207   0.000  0.00  0.00    +0.000 OA
ATOM     18  C   UNL     1      -2.850  -0.207   0.000  0.00  0.00    +0.000 C 
ATOM     19  C   UNL     1      -2.139  -0.625   0.000  0.00  0.00    +0.000 C 
ATOM     20  O   UNL     1      -2.139   1.878   0.000  0.00  0.00    +0.000 OA
ATOM     21  O   UNL     1      -3.556   1.047   0.000  0.00  0.00    +0.000 OA
ATOM     22  O   UNL     1      -3.556  -0.625   0.000  0.00  0.00    +0.000 OA
BRANCH  19  23
ATOM     23  C   UNL     1      -2.139  -1.460   0.000  0.00  0.00    +0.000 C 
ATOM     24  O   UNL     1      -1.429  -1.878   0.000  0.00  0.00    +0.000 OA
ENDBRANCH  19  23
ENDBRANCH   1  14
TORSDOF 3
