REMARK  Name = 
REMARK  3 active torsions:
REMARK  status: ('A' for Active; 'I' for Inactive)
REMARK    1  A    between atoms: C_5  and  S_8
REMARK    2  A    between atoms: S_8  and  C_9
REMARK    3  A    between atoms: C_14  and  C_15
REMARK                            x       y       z     vdW  Elec       q    Type
REMARK                         _______ _______ _______ _____ _____    ______ ____
ROOT
ATOM      1  C   UNL     1       4.287  -4.125   0.000  0.00  0.00    +0.000 A 
ATOM      2  C   UNL     1       5.001  -3.712   0.000  0.00  0.00    +0.000 A 
ATOM      3  C   UNL     1       5.716  -4.125   0.000  0.00  0.00    +0.000 A 
ATOM      4  C   UNL     1       5.716  -4.950   0.000  0.00  0.00    +0.000 A 
ATOM      5  C   UNL     1       5.001  -5.362   0.000  0.00  0.00    +0.000 A 
ATOM      6  C   UNL     1       4.287  -4.950   0.000  0.00  0.00    +0.000 A 
ENDROOT
BRANCH   6   7
ATOM      7  C   UNL     1       3.572  -5.362   0.000  0.00  0.00    +0.000 C 
ATOM      8  C   UNL     1       3.572  -6.188   0.000  0.00  0.00    +0.000 C 
ATOM      9  C   UNL     1       2.858  -6.600   0.000  0.00  0.00    +0.000 C 
ATOM     10  N   UNL     1       2.143  -6.188   0.000  0.00  0.00    +0.000 NA
ATOM     11  C   UNL     1       2.143  -5.362   0.000  0.00  0.00    +0.000 C 
ATOM     12  C   UNL     1       2.858  -4.950   0.000  0.00  0.00    +0.000 C 
ENDBRANCH   6   7
BRANCH   1  13
ATOM     13  S   UNL     1       3.572  -3.712   0.000  0.00  0.00    +0.000 S 
BRANCH  13  18
ATOM     14  C   UNL     1       3.572  -0.412   0.000  0.00  0.00    +0.000 C 
ATOM     15  C   UNL     1       3.572  -1.238   0.000  0.00  0.00    +0.000 A 
ATOM     16  C   UNL     1       4.287  -1.650   0.000  0.00  0.00    +0.000 A 
ATOM     17  C   UNL     1       4.287  -2.475   0.000  0.00  0.00    +0.000 A 
ATOM     18  C   UNL     1       3.572  -2.888   0.000  0.00  0.00    +0.000 A 
ATOM     19  C   UNL     1       2.858  -2.475   0.000  0.00  0.00    +0.000 A 
ATOM     20  C   UNL     1       2.858  -1.650   0.000  0.00  0.00    +0.000 A 
ENDBRANCH  13  18
ENDBRANCH   1  13
TORSDOF 3
