REMARK  Name = 
REMARK  2 active torsions:
REMARK  status: ('A' for Active; 'I' for Inactive)
REMARK    1  A    between atoms: O_6  and  C_10
REMARK    2  A    between atoms: C_9  and  C_12
REMARK                            x       y       z     vdW  Elec       q    Type
REMARK                         _______ _______ _______ _____ _____    ______ ____
ROOT
ATOM      1 CL   UNL     1       1.430  -0.772   0.000  0.00  0.00    +0.000 Cl
ATOM      2 CL   UNL     1      -1.430  -0.772   0.000  0.00  0.00    +0.000 Cl
ATOM      3  O   UNL     1       0.000  -1.595   0.000  0.00  0.00    +0.000 OA
ATOM      4  N   UNL     1       0.000   0.880   0.000  0.00  0.00    +0.000 N 
ATOM      5  C   UNL     1       0.715   0.469   0.000  0.00  0.00    +0.000 A 
ATOM      6  C   UNL     1      -0.715   0.469   0.000  0.00  0.00    +0.000 A 
ATOM      7  C   UNL     1       0.715  -0.355   0.000  0.00  0.00    +0.000 A 
ATOM      8  C   UNL     1      -0.715  -0.355   0.000  0.00  0.00    +0.000 A 
ATOM      9  C   UNL     1       0.000  -0.772   0.000  0.00  0.00    +0.000 A 
ATOM     10  H   UNL     1       0.000   1.392   0.000  0.00  0.00    +0.000 HD
ENDROOT
BRANCH   5  14
ATOM     11 CL   UNL     1       1.841   0.166   0.000  0.00  0.00    +0.000 Cl
ATOM     12 CL   UNL     1       1.018   1.595   0.000  0.00  0.00    +0.000 Cl
ATOM     13 CL   UNL     1       2.144   1.292   0.000  0.00  0.00    +0.000 Cl
ATOM     14  C   UNL     1       1.430   0.880   0.000  0.00  0.00    +0.000 C 
ENDBRANCH   5  14
BRANCH   6  15
ATOM     15  O   UNL     1      -1.430   0.880   0.000  0.00  0.00    +0.000 OA
ATOM     16  C   UNL     1      -2.144   0.469   0.000  0.00  0.00    +0.000 C 
ENDBRANCH   6  15
TORSDOF 2
