REMARK  Name = 
REMARK  4 active torsions:
REMARK  status: ('A' for Active; 'I' for Inactive)
REMARK    1  A    between atoms: C_3  and  C_22
REMARK    2  A    between atoms: C_6  and  O_20
REMARK    3  A    between atoms: C_11  and  C_13
REMARK    4  A    between atoms: C_22  and  C_23
REMARK                            x       y       z     vdW  Elec       q    Type
REMARK                         _______ _______ _______ _____ _____    ______ ____
ROOT
ATOM      1  C   UNL     1      -0.171  -0.698   0.000  0.00  0.00    +0.000 C 
ATOM      2  C   UNL     1       0.654  -0.698   0.000  0.00  0.00    +0.000 A 
ATOM      3  C   UNL     1       1.139  -0.030   0.000  0.00  0.00    +0.000 A 
ATOM      4  C   UNL     1       1.923  -0.285   0.000  0.00  0.00    +0.000 A 
ATOM      5  C   UNL     1       2.638   0.127   0.000  0.00  0.00    +0.000 A 
ATOM      6  C   UNL     1       3.352  -0.285   0.000  0.00  0.00    +0.000 A 
ATOM      7  C   UNL     1       3.352  -1.110   0.000  0.00  0.00    +0.000 A 
ATOM      8  C   UNL     1       2.638  -1.523   0.000  0.00  0.00    +0.000 A 
ATOM      9  C   UNL     1       1.923  -1.110   0.000  0.00  0.00    +0.000 A 
ATOM     10  N   UNL     1       1.139  -1.365   0.000  0.00  0.00    +0.000 N 
ATOM     11  C   UNL     1       0.884  -2.150   0.000  0.00  0.00    +0.000 C 
ATOM     12  O   UNL     1       1.436  -2.763   0.000  0.00  0.00    +0.000 OA
ENDROOT
BRANCH  11  13
ATOM     13  C   UNL     1       0.077  -2.321   0.000  0.00  0.00    +0.000 A 
ATOM     14  C   UNL     1      -0.178  -3.106   0.000  0.00  0.00    +0.000 A 
ATOM     15  C   UNL     1      -0.985  -3.278   0.000  0.00  0.00    +0.000 A 
ATOM     16  C   UNL     1      -1.537  -2.665   0.000  0.00  0.00    +0.000 A 
ATOM     17  C   UNL     1      -1.282  -1.880   0.000  0.00  0.00    +0.000 A 
ATOM     18  C   UNL     1      -0.475  -1.708   0.000  0.00  0.00    +0.000 A 
ATOM     19 CL   UNL     1      -2.344  -2.836   0.000  0.00  0.00    +0.000 Cl
ENDBRANCH  11  13
BRANCH   6  20
ATOM     20  O   UNL     1       4.067   0.127   0.000  0.00  0.00    +0.000 OA
ATOM     21  C   UNL     1       4.067   0.952   0.000  0.00  0.00    +0.000 C 
ENDBRANCH   6  20
BRANCH   3  22
ATOM     22  C   UNL     1       0.884   0.754   0.000  0.00  0.00    +0.000 C 
BRANCH  22  23
ATOM     23  C   UNL     1       1.436   1.367   0.000  0.00  0.00    +0.000 C 
ATOM     24  O   UNL     1       2.243   1.196   0.000  0.00  0.00    +0.000 OA
ATOM     25  N   UNL     1       1.181   2.152   0.000  0.00  0.00    +0.000 NA
ATOM     26  O   UNL     1       1.733   2.765   0.000  0.00  0.00    +0.000 OA
ENDBRANCH  22  23
ENDBRANCH   3  22
TORSDOF 4
