REMARK  Name = 
REMARK  6 active torsions:
REMARK  status: ('A' for Active; 'I' for Inactive)
REMARK    1  A    between atoms: C_2  and  N_3
REMARK    2  A    between atoms: C_2  and  C_16
REMARK    3  A    between atoms: C_4  and  C_6
REMARK    4  A    between atoms: N_22  and  C_23
REMARK    5  A    between atoms: C_29  and  C_33
REMARK    6  A    between atoms: C_34  and  C_35
REMARK                            x       y       z     vdW  Elec       q    Type
REMARK                         _______ _______ _______ _____ _____    ______ ____
ROOT
ATOM      1  C   UNL     1      -0.715  -1.238   0.000  0.00  0.00    +0.000 A 
ATOM      2  C   UNL     1       0.000  -1.650   0.000  0.00  0.00    +0.000 A 
ATOM      3  C   UNL     1       0.715  -1.238   0.000  0.00  0.00    +0.000 A 
ATOM      4  C   UNL     1       0.715  -0.412   0.000  0.00  0.00    +0.000 A 
ATOM      5  C   UNL     1       0.000   0.000   0.000  0.00  0.00    +0.000 A 
ATOM      6  O   UNL     1       0.000   0.825   0.000  0.00  0.00    +0.000 OA
ATOM      7  N   UNL     1      -0.715  -0.412   0.000  0.00  0.00    +0.000 N 
ATOM      8  C   UNL     1       1.429   0.000   0.000  0.00  0.00    +0.000 A 
ATOM      9  C   UNL     1       2.143  -0.412   0.000  0.00  0.00    +0.000 A 
ATOM     10  C   UNL     1       2.143  -1.238   0.000  0.00  0.00    +0.000 A 
ATOM     11  C   UNL     1       1.429  -1.650   0.000  0.00  0.00    +0.000 A 
ENDROOT
BRANCH   7  12
ATOM     12  C   UNL     1      -1.429   0.000   0.000  0.00  0.00    +0.000 A 
ATOM     13  C   UNL     1      -2.143  -0.412   0.000  0.00  0.00    +0.000 A 
ATOM     14  C   UNL     1      -2.858   0.000   0.000  0.00  0.00    +0.000 A 
ATOM     15  C   UNL     1      -2.858   0.825   0.000  0.00  0.00    +0.000 A 
ATOM     16  C   UNL     1      -2.143   1.238   0.000  0.00  0.00    +0.000 A 
ATOM     17  C   UNL     1      -1.429   0.825   0.000  0.00  0.00    +0.000 A 
ENDBRANCH   7  12
BRANCH   8  18
ATOM     18  C   UNL     1       1.429   0.825   0.000  0.00  0.00    +0.000 C 
ATOM     19  C   UNL     1       1.429   1.650   0.000  0.00  0.00    +0.000 C 
BRANCH  19  20
ATOM     20  C   UNL     1       1.429   2.475   0.000  0.00  0.00    +0.000 A 
ATOM     21  C   UNL     1       2.096   2.960   0.000  0.00  0.00    +0.000 A 
ATOM     22  N   UNL     1       1.841   3.744   0.000  0.00  0.00    +0.000 N 
ATOM     23  C   UNL     1       2.326   4.412   0.000  0.00  0.00    +0.000 C 
ATOM     24  N   UNL     1       1.016   3.744   0.000  0.00  0.00    +0.000 NA
ATOM     25  C   UNL     1       0.761   2.960   0.000  0.00  0.00    +0.000 A 
ENDBRANCH  19  20
ENDBRANCH   8  18
BRANCH   1  27
ATOM     26  C   UNL     1      -2.143  -1.238   0.000  0.00  0.00    +0.000 C 
ATOM     27  C   UNL     1      -1.429  -1.650   0.000  0.00  0.00    +0.000 C 
BRANCH  27  28
ATOM     28  N   UNL     1      -1.429  -2.475   0.000  0.00  0.00    +0.000 NA
ATOM     29  C   UNL     1      -0.715  -2.888   0.000  0.00  0.00    +0.000 C 
ATOM     30  O   UNL     1       0.000  -2.475   0.000  0.00  0.00    +0.000 OA
BRANCH  29  31
ATOM     31  C   UNL     1      -0.715  -3.712   0.000  0.00  0.00    +0.000 A 
ATOM     32  C   UNL     1      -0.047  -4.197   0.000  0.00  0.00    +0.000 A 
ATOM     33  N   UNL     1       0.760  -4.026   0.000  0.00  0.00    +0.000 NA
ATOM     34  C   UNL     1       1.312  -4.639   0.000  0.00  0.00    +0.000 A 
ATOM     35  C   UNL     1       1.057  -5.424   0.000  0.00  0.00    +0.000 A 
ATOM     36  C   UNL     1       0.250  -5.595   0.000  0.00  0.00    +0.000 A 
ATOM     37  N   UNL     1      -0.302  -4.982   0.000  0.00  0.00    +0.000 N 
ATOM     38  N   UNL     1      -1.127  -4.982   0.000  0.00  0.00    +0.000 NA
ATOM     39  C   UNL     1      -1.382  -4.197   0.000  0.00  0.00    +0.000 A 
ATOM     40  N   UNL     1      -2.167  -3.942   0.000  0.00  0.00    +0.000 NA
ENDBRANCH  29  31
ENDBRANCH  27  28
ENDBRANCH   1  27
TORSDOF 6
