REMARK  Name = 
REMARK  1 active torsions:
REMARK  status: ('A' for Active; 'I' for Inactive)
REMARK    1  A    between atoms: C_5  and  C_17
REMARK                            x       y       z     vdW  Elec       q    Type
REMARK                         _______ _______ _______ _____ _____    ______ ____
ROOT
ATOM      1  C   UNL     1      -3.091  -0.395   0.000  0.00  0.00    +0.000 C 
ATOM      2  C   UNL     1      -2.267  -0.395   0.000  0.00  0.00    +0.000 A 
ATOM      3  C   UNL     1      -1.782   0.273   0.000  0.00  0.00    +0.000 A 
ATOM      4  C   UNL     1      -0.997   0.018   0.000  0.00  0.00    +0.000 A 
ATOM      5  C   UNL     1      -0.282   0.430   0.000  0.00  0.00    +0.000 A 
ATOM      6  N   UNL     1       0.432   0.018   0.000  0.00  0.00    +0.000 NA
ATOM      7  C   UNL     1       0.432  -0.807   0.000  0.00  0.00    +0.000 A 
ATOM      8  N   UNL     1      -0.282  -1.220   0.000  0.00  0.00    +0.000 NA
ATOM      9  C   UNL     1      -0.997  -0.807   0.000  0.00  0.00    +0.000 A 
ATOM     10  S   UNL     1      -1.782  -1.062   0.000  0.00  0.00    +0.000 S 
ATOM     11  N   UNL     1       1.146  -1.220   0.000  0.00  0.00    +0.000 N 
ATOM     12  C   UNL     1       1.861  -0.807   0.000  0.00  0.00    +0.000 C 
ATOM     13  C   UNL     1       2.575  -1.220   0.000  0.00  0.00    +0.000 C 
ATOM     14  N   UNL     1       2.575  -2.045   0.000  0.00  0.00    +0.000 NA
ATOM     15  C   UNL     1       1.861  -2.457   0.000  0.00  0.00    +0.000 C 
ATOM     16  C   UNL     1       1.146  -2.045   0.000  0.00  0.00    +0.000 C 
ENDROOT
BRANCH   5  17
ATOM     17  C   UNL     1      -0.282   1.255   0.000  0.00  0.00    +0.000 A 
ATOM     18  C   UNL     1      -0.997   1.668   0.000  0.00  0.00    +0.000 A 
ATOM     19  C   UNL     1      -0.997   2.493   0.000  0.00  0.00    +0.000 A 
ATOM     20  C   UNL     1      -0.282   2.905   0.000  0.00  0.00    +0.000 A 
ATOM     21  C   UNL     1       0.432   2.493   0.000  0.00  0.00    +0.000 A 
ATOM     22  C   UNL     1       0.432   1.668   0.000  0.00  0.00    +0.000 A 
ATOM     23  F   UNL     1       1.146   1.255   0.000  0.00  0.00    +0.000 F 
ENDBRANCH   5  17
TORSDOF 1
REMARK  Name = 
REMARK  1 active torsions:
REMARK  status: ('A' for Active; 'I' for Inactive)
REMARK    1  A    between atoms: C_5  and  C_17
REMARK                            x       y       z     vdW  Elec       q    Type
REMARK                         _______ _______ _______ _____ _____    ______ ____
ROOT
ATOM      1  O   HOH     1       4.933   0.000   0.000  0.00  0.00    +0.000 OA
ENDROOT
TORSDOF 0
REMARK  Name = 
REMARK  1 active torsions:
REMARK  status: ('A' for Active; 'I' for Inactive)
REMARK    1  A    between atoms: C_5  and  C_17
REMARK                            x       y       z     vdW  Elec       q    Type
REMARK                         _______ _______ _______ _____ _____    ______ ____
ROOT
ATOM      1 CL   UNL     1       0.000  -4.107   0.000  0.00  0.00    +0.000 Cl
ENDROOT
TORSDOF 0
