REMARK  Name = 
REMARK  9 active torsions:
REMARK  status: ('A' for Active; 'I' for Inactive)
REMARK    1  A    between atoms: C_17  and  C_18
REMARK    2  A    between atoms: C_21  and  N_37
REMARK    3  A    between atoms: C_22  and  N_38
REMARK    4  A    between atoms: C_23  and  N_39
REMARK    5  A    between atoms: C_24  and  N_40
REMARK    6  A    between atoms: C_25  and  S_55
REMARK    7  A    between atoms: C_26  and  S_56
REMARK    8  A    between atoms: C_27  and  S_57
REMARK    9  A    between atoms: C_28  and  S_58
REMARK                            x       y       z     vdW  Elec       q    Type
REMARK                         _______ _______ _______ _____ _____    ______ ____
ROOT
ATOM      1  C   UNL     1      -2.858  -4.950   0.000  0.00  0.00    +0.000 C 
ATOM      2  C   UNL     1      -2.858  -2.475   0.000  0.00  0.00    +0.000 A 
ATOM      3  C   UNL     1      -3.572  -2.888   0.000  0.00  0.00    +0.000 A 
ATOM      4  C   UNL     1      -2.143  -3.712   0.000  0.00  0.00    +0.000 A 
ATOM      5  C   UNL     1      -2.858  -4.125   0.000  0.00  0.00    +0.000 A 
ATOM      6  C   UNL     1      -2.143  -2.888   0.000  0.00  0.00    +0.000 A 
ATOM      7  C   UNL     1      -3.572  -3.712   0.000  0.00  0.00    +0.000 A 
ENDROOT
BRANCH   6  13
ATOM      8  C   UNL     1      -0.715  -0.412   0.000  0.00  0.00    +0.000 C 
ATOM      9  C   UNL     1      -0.715  -2.888   0.000  0.00  0.00    +0.000 A 
ATOM     10  C   UNL     1       0.000  -2.475   0.000  0.00  0.00    +0.000 A 
ATOM     11  C   UNL     1      -1.429  -1.650   0.000  0.00  0.00    +0.000 A 
ATOM     12  C   UNL     1      -0.715  -1.238   0.000  0.00  0.00    +0.000 A 
ATOM     13  C   UNL     1      -1.429  -2.475   0.000  0.00  0.00    +0.000 A 
ATOM     14  C   UNL     1       0.000  -1.650   0.000  0.00  0.00    +0.000 A 
BRANCH  14  15
ATOM     15  N   UNL     1       0.715  -1.238   0.000  0.00  0.00    +0.000 NA
ATOM     16  N   UNL     1       0.715  -0.412   0.000  0.00  0.00    +0.000 NA
BRANCH  16  21
ATOM     17  C   UNL     1       2.143   1.238   0.000  0.00  0.00    +0.000 A 
ATOM     18  C   UNL     1       1.429   0.825   0.000  0.00  0.00    +0.000 A 
ATOM     19  C   UNL     1       4.287   0.825   0.000  0.00  0.00    +0.000 A 
ATOM     20  C   UNL     1       2.858   0.825   0.000  0.00  0.00    +0.000 A 
ATOM     21  C   UNL     1       1.429   0.000   0.000  0.00  0.00    +0.000 A 
ATOM     22  C   UNL     1       3.572   1.238   0.000  0.00  0.00    +0.000 A 
ATOM     23  C   UNL     1       4.287   0.000   0.000  0.00  0.00    +0.000 A 
ATOM     24  C   UNL     1       2.858   0.000   0.000  0.00  0.00    +0.000 A 
ATOM     25  C   UNL     1       3.572  -0.412   0.000  0.00  0.00    +0.000 A 
ATOM     26  C   UNL     1       2.143  -0.412   0.000  0.00  0.00    +0.000 A 
ATOM     27  N   UNL     1       3.572  -1.238   0.000  0.00  0.00    +0.000 NA
ATOM     28  O   UNL     1       2.143  -1.238   0.000  0.00  0.00    +0.000 OA
BRANCH  23  32
ATOM     29  O   UNL     1       5.716  -0.825   0.000  0.00  0.00    +0.000 OA
ATOM     30  O   UNL     1       4.589  -1.127   0.000  0.00  0.00    +0.000 OA
ATOM     31  O   UNL     1       5.414   0.302   0.000  0.00  0.00    +0.000 OA
ATOM     32  S   UNL     1       5.001  -0.412   0.000  0.00  0.00    +0.000 S 
ENDBRANCH  23  32
BRANCH  22  36
ATOM     33  O   UNL     1       3.572   2.888   0.000  0.00  0.00    +0.000 OA
ATOM     34  O   UNL     1       4.397   2.062   0.000  0.00  0.00    +0.000 OA
ATOM     35  O   UNL     1       2.747   2.062   0.000  0.00  0.00    +0.000 OA
ATOM     36  S   UNL     1       3.572   2.062   0.000  0.00  0.00    +0.000 S 
ENDBRANCH  22  36
ENDBRANCH  16  21
ENDBRANCH  14  15
ENDBRANCH   6  13
BRANCH   7  37
ATOM     37  N   UNL     1      -4.287  -4.125   0.000  0.00  0.00    +0.000 NA
ATOM     38  N   UNL     1      -4.287  -4.950   0.000  0.00  0.00    +0.000 NA
BRANCH  38  43
ATOM     39  C   UNL     1      -5.716  -6.600   0.000  0.00  0.00    +0.000 A 
ATOM     40  C   UNL     1      -5.001  -6.188   0.000  0.00  0.00    +0.000 A 
ATOM     41  C   UNL     1      -7.859  -6.188   0.000  0.00  0.00    +0.000 A 
ATOM     42  C   UNL     1      -6.430  -6.188   0.000  0.00  0.00    +0.000 A 
ATOM     43  C   UNL     1      -5.001  -5.362   0.000  0.00  0.00    +0.000 A 
ATOM     44  C   UNL     1      -7.145  -6.600   0.000  0.00  0.00    +0.000 A 
ATOM     45  C   UNL     1      -7.859  -5.362   0.000  0.00  0.00    +0.000 A 
ATOM     46  C   UNL     1      -6.430  -5.362   0.000  0.00  0.00    +0.000 A 
ATOM     47  C   UNL     1      -7.145  -4.950   0.000  0.00  0.00    +0.000 A 
ATOM     48  C   UNL     1      -5.716  -4.950   0.000  0.00  0.00    +0.000 A 
ATOM     49  N   UNL     1      -7.145  -4.125   0.000  0.00  0.00    +0.000 NA
ATOM     50  O   UNL     1      -5.716  -4.125   0.000  0.00  0.00    +0.000 OA
BRANCH  44  54
ATOM     51  O   UNL     1      -7.145  -8.250   0.000  0.00  0.00    +0.000 OA
ATOM     52  O   UNL     1      -6.320  -7.425   0.000  0.00  0.00    +0.000 OA
ATOM     53  O   UNL     1      -7.970  -7.425   0.000  0.00  0.00    +0.000 OA
ATOM     54  S   UNL     1      -7.145  -7.425   0.000  0.00  0.00    +0.000 S 
ENDBRANCH  44  54
BRANCH  45  58
ATOM     55  O   UNL     1      -9.288  -4.537   0.000  0.00  0.00    +0.000 OA
ATOM     56  O   UNL     1      -8.161  -4.236   0.000  0.00  0.00    +0.000 OA
ATOM     57  O   UNL     1      -8.986  -5.665   0.000  0.00  0.00    +0.000 OA
ATOM     58  S   UNL     1      -8.574  -4.950   0.000  0.00  0.00    +0.000 S 
ENDBRANCH  45  58
ENDBRANCH  38  43
ENDBRANCH   7  37
TORSDOF 9
REMARK  Name = 
REMARK  9 active torsions:
REMARK  status: ('A' for Active; 'I' for Inactive)
REMARK    1  A    between atoms: C_17  and  C_18
REMARK    2  A    between atoms: C_21  and  N_37
REMARK    3  A    between atoms: C_22  and  N_38
REMARK    4  A    between atoms: C_23  and  N_39
REMARK    5  A    between atoms: C_24  and  N_40
REMARK    6  A    between atoms: C_25  and  S_55
REMARK    7  A    between atoms: C_26  and  S_56
REMARK    8  A    between atoms: C_27  and  S_57
REMARK    9  A    between atoms: C_28  and  S_58
REMARK                            x       y       z     vdW  Elec       q    Type
REMARK                         _______ _______ _______ _____ _____    ______ ____
ROOT
ATOM      1 NA   UNL     1      -5.716  -3.300   0.000  0.00  0.00    +0.000 Na
ENDROOT
TORSDOF 0
REMARK  Name = 
REMARK  9 active torsions:
REMARK  status: ('A' for Active; 'I' for Inactive)
REMARK    1  A    between atoms: C_17  and  C_18
REMARK    2  A    between atoms: C_21  and  N_37
REMARK    3  A    between atoms: C_22  and  N_38
REMARK    4  A    between atoms: C_23  and  N_39
REMARK    5  A    between atoms: C_24  and  N_40
REMARK    6  A    between atoms: C_25  and  S_55
REMARK    7  A    between atoms: C_26  and  S_56
REMARK    8  A    between atoms: C_27  and  S_57
REMARK    9  A    between atoms: C_28  and  S_58
REMARK                            x       y       z     vdW  Elec       q    Type
REMARK                         _______ _______ _______ _____ _____    ______ ____
ROOT
ATOM      1 NA   UNL     1       2.143  -2.062   0.000  0.00  0.00    +0.000 Na
ENDROOT
TORSDOF 0
REMARK  Name = 
REMARK  9 active torsions:
REMARK  status: ('A' for Active; 'I' for Inactive)
REMARK    1  A    between atoms: C_17  and  C_18
REMARK    2  A    between atoms: C_21  and  N_37
REMARK    3  A    between atoms: C_22  and  N_38
REMARK    4  A    between atoms: C_23  and  N_39
REMARK    5  A    between atoms: C_24  and  N_40
REMARK    6  A    between atoms: C_25  and  S_55
REMARK    7  A    between atoms: C_26  and  S_56
REMARK    8  A    between atoms: C_27  and  S_57
REMARK    9  A    between atoms: C_28  and  S_58
REMARK                            x       y       z     vdW  Elec       q    Type
REMARK                         _______ _______ _______ _____ _____    ______ ____
ROOT
ATOM      1 NA   UNL     1      -7.145  -9.075   0.000  0.00  0.00    +0.000 Na
ENDROOT
TORSDOF 0
REMARK  Name = 
REMARK  9 active torsions:
REMARK  status: ('A' for Active; 'I' for Inactive)
REMARK    1  A    between atoms: C_17  and  C_18
REMARK    2  A    between atoms: C_21  and  N_37
REMARK    3  A    between atoms: C_22  and  N_38
REMARK    4  A    between atoms: C_23  and  N_39
REMARK    5  A    between atoms: C_24  and  N_40
REMARK    6  A    between atoms: C_25  and  S_55
REMARK    7  A    between atoms: C_26  and  S_56
REMARK    8  A    between atoms: C_27  and  S_57
REMARK    9  A    between atoms: C_28  and  S_58
REMARK                            x       y       z     vdW  Elec       q    Type
REMARK                         _______ _______ _______ _____ _____    ______ ____
ROOT
ATOM      1 NA   UNL     1       3.572   3.712   0.000  0.00  0.00    +0.000 Na
ENDROOT
TORSDOF 0
