REMARK  Name = 
REMARK  8 active torsions:
REMARK  status: ('A' for Active; 'I' for Inactive)
REMARK    1  A    between atoms: N_4  and  C_15
REMARK    2  A    between atoms: N_6  and  C_19
REMARK    3  A    between atoms: C_9  and  C_14
REMARK    4  A    between atoms: C_15  and  C_16
REMARK    5  A    between atoms: C_15  and  C_18
REMARK    6  A    between atoms: C_16  and  C_17
REMARK    7  A    between atoms: C_17  and  C_19
REMARK    8  A    between atoms: C_18  and  C_20
REMARK                            x       y       z     vdW  Elec       q    Type
REMARK                         _______ _______ _______ _____ _____    ______ ____
ROOT
ATOM      1  C   UNL     1       0.298   1.595   0.000  0.00  0.00    +0.000 C 
ENDROOT
BRANCH   1   3
ATOM      2  O   UNL     1       1.123   0.166   0.000  0.00  0.00    +0.000 OA
ATOM      3  N   UNL     1       1.123   1.595   0.000  0.00  0.00    +0.000 N 
ATOM      4  C   UNL     1       1.536   0.881   0.000  0.00  0.00    +0.000 C 
ATOM      5  H   UNL     1       1.379   2.038   0.000  0.00  0.00    +0.000 HD
BRANCH   4   6
ATOM      6  C   UNL     1       2.361   0.881   0.000  0.00  0.00    +0.000 C 
ATOM      7  C   UNL     1       2.846   0.213   0.000  0.00  0.00    +0.000 C 
ATOM      8  C   UNL     1       2.846   1.548   0.000  0.00  0.00    +0.000 C 
ATOM      9  C   UNL     1       3.630   0.468   0.000  0.00  0.00    +0.000 C 
ATOM     10  C   UNL     1       3.630   1.293   0.000  0.00  0.00    +0.000 C 
ENDBRANCH   4   6
ENDBRANCH   1   3
BRANCH   1  12
ATOM     11  O   UNL     1       0.298   3.024   0.000  0.00  0.00    +0.000 OA
ATOM     12  C   UNL     1      -0.114   2.310   0.000  0.00  0.00    +0.000 C 
BRANCH  12  15
ATOM     13  S   UNL     1      -1.421   2.974   0.000  0.00  0.00    +0.000 S 
ATOM     14  N   UNL     1      -1.421   1.646   0.000  0.00  0.00    +0.000 NA
ATOM     15  C   UNL     1      -0.939   2.310   0.000  0.00  0.00    +0.000 A 
ATOM     16  C   UNL     1      -2.201   2.722   0.000  0.00  0.00    +0.000 A 
ATOM     17  C   UNL     1      -2.201   1.897   0.000  0.00  0.00    +0.000 A 
ATOM     18  C   UNL     1      -2.916   3.135   0.000  0.00  0.00    +0.000 A 
ATOM     19  C   UNL     1      -2.916   1.485   0.000  0.00  0.00    +0.000 A 
ATOM     20  C   UNL     1      -3.630   2.722   0.000  0.00  0.00    +0.000 A 
ATOM     21  C   UNL     1      -3.630   1.897   0.000  0.00  0.00    +0.000 A 
ENDBRANCH  12  15
ENDBRANCH   1  12
BRANCH   1  22
ATOM     22  C   UNL     1      -0.114   0.881   0.000  0.00  0.00    +0.000 C 
BRANCH  22  23
ATOM     23  C   UNL     1       0.298   0.166   0.000  0.00  0.00    +0.000 C 
BRANCH  23  24
ATOM     24  C   UNL     1      -0.114  -0.548   0.000  0.00  0.00    +0.000 C 
BRANCH  24  25
ATOM     25  N   UNL     1       0.298  -1.263   0.000  0.00  0.00    +0.000 NA
ATOM     26  N   UNL     1      -0.939  -1.977   0.000  0.00  0.00    +0.000 N 
ATOM     27  N   UNL     1       0.298  -2.692   0.000  0.00  0.00    +0.000 N 
ATOM     28  C   UNL     1      -0.114  -1.977   0.000  0.00  0.00    +0.000 C 
ATOM     29  H   UNL     1      -1.195  -2.420   0.000  0.00  0.00    +0.000 HD
ATOM     30  H   UNL     1      -1.195  -1.534   0.000  0.00  0.00    +0.000 HD
ATOM     31  H   UNL     1       0.810  -2.692   0.000  0.00  0.00    +0.000 HD
ATOM     32  H   UNL     1       0.042  -3.135   0.000  0.00  0.00    +0.000 HD
ENDBRANCH  24  25
ENDBRANCH  23  24
ENDBRANCH  22  23
ENDBRANCH   1  22
TORSDOF 8
