REMARK  Name = 
REMARK  10 active torsions:
REMARK  status: ('A' for Active; 'I' for Inactive)
REMARK    1  A    between atoms: C_1  and  C_7
REMARK    2  A    between atoms: C_8  and  C_13
REMARK    3  A    between atoms: C_13  and  N_19
REMARK    4  A    between atoms: C_21  and  N_22
REMARK    5  A    between atoms: C_23  and  C_25
REMARK    6  A    between atoms: C_25  and  N_26
REMARK    7  A    between atoms: C_25  and  C_30
REMARK    8  A    between atoms: C_30  and  C_31
REMARK    9  A    between atoms: C_35  and  P_37
REMARK   10  A    between atoms: C_36  and  P_41
REMARK                            x       y       z     vdW  Elec       q    Type
REMARK                         _______ _______ _______ _____ _____    ______ ____
ROOT
ATOM      1  N   UNL     1       0.651   0.416   0.000  0.00  0.00    +0.000 NA
ATOM      2  C   UNL     1       1.372   0.831   0.000  0.00  0.00    +0.000 C 
ATOM      3  O   UNL     1       1.372   1.649   0.000  0.00  0.00    +0.000 OA
ENDROOT
BRANCH   1  11
ATOM      4  C   UNL     1      -1.774   1.358   0.000  0.00  0.00    +0.000 C 
ATOM      5  C   UNL     1      -2.023   0.568   0.000  0.00  0.00    +0.000 C 
ATOM      6  C   UNL     1      -0.734  -0.180   0.000  0.00  0.00    +0.000 C 
ATOM      7  C   UNL     1      -0.291   1.233   0.000  0.00  0.00    +0.000 C 
ATOM      8  C   UNL     1      -0.998   1.649   0.000  0.00  0.00    +0.000 C 
ATOM      9  N   UNL     1      -1.566  -0.111   0.000  0.00  0.00    +0.000 N 
ATOM     10  O   UNL     1      -0.443  -0.956   0.000  0.00  0.00    +0.000 OA
ATOM     11  C   UNL     1      -0.166   0.416   0.000  0.00  0.00    +0.000 C 
BRANCH   9  12
ATOM     12  C   UNL     1      -1.968  -0.831   0.000  0.00  0.00    +0.000 C 
BRANCH  12  14
ATOM     13  C   UNL     1      -4.448  -0.831   0.000  0.00  0.00    +0.000 A 
ATOM     14  C   UNL     1      -2.799  -0.831   0.000  0.00  0.00    +0.000 A 
ATOM     15  C   UNL     1      -3.215  -0.111   0.000  0.00  0.00    +0.000 A 
ATOM     16  C   UNL     1      -4.032  -0.111   0.000  0.00  0.00    +0.000 A 
ATOM     17  C   UNL     1      -4.032  -1.538   0.000  0.00  0.00    +0.000 A 
ATOM     18  C   UNL     1      -3.215  -1.538   0.000  0.00  0.00    +0.000 A 
BRANCH  13  19
ATOM     19  C   UNL     1      -5.279  -0.831   0.000  0.00  0.00    +0.000 A 
ATOM     20  C   UNL     1      -5.695  -0.111   0.000  0.00  0.00    +0.000 A 
ATOM     21  C   UNL     1      -6.513  -0.111   0.000  0.00  0.00    +0.000 A 
ATOM     22  C   UNL     1      -6.928  -0.831   0.000  0.00  0.00    +0.000 A 
ATOM     23  C   UNL     1      -6.513  -1.538   0.000  0.00  0.00    +0.000 A 
ATOM     24  C   UNL     1      -5.695  -1.538   0.000  0.00  0.00    +0.000 A 
ENDBRANCH  13  19
ENDBRANCH  12  14
ENDBRANCH   9  12
ENDBRANCH   1  11
BRANCH   2  25
ATOM     25  C   UNL     1       2.078   0.416   0.000  0.00  0.00    +0.000 C 
BRANCH  25  26
ATOM     26  N   UNL     1       2.078  -0.416   0.000  0.00  0.00    +0.000 NA
ATOM     27  C   UNL     1       2.799  -0.817   0.000  0.00  0.00    +0.000 C 
ATOM     28  C   UNL     1       3.519  -0.416   0.000  0.00  0.00    +0.000 C 
ATOM     29  O   UNL     1       2.799  -1.649   0.000  0.00  0.00    +0.000 OA
ENDBRANCH  25  26
BRANCH  25  30
ATOM     30  C   UNL     1       2.799   0.831   0.000  0.00  0.00    +0.000 C 
BRANCH  30  31
ATOM     31  C   UNL     1       3.630   0.831   0.000  0.00  0.00    +0.000 A 
ATOM     32  C   UNL     1       4.864   1.538   0.000  0.00  0.00    +0.000 A 
ATOM     33  C   UNL     1       4.032   1.538   0.000  0.00  0.00    +0.000 A 
ATOM     34  C   UNL     1       4.032   0.111   0.000  0.00  0.00    +0.000 A 
ATOM     35  C   UNL     1       4.864   0.111   0.000  0.00  0.00    +0.000 A 
ATOM     36  C   UNL     1       5.279   0.831   0.000  0.00  0.00    +0.000 A 
BRANCH  36  37
ATOM     37  P   UNL     1       6.097   0.831   0.000  0.00  0.00    +0.000 P 
ATOM     38  O   UNL     1       6.097   0.000   0.000  0.00  0.00    +0.000 OA
ATOM     39  O   UNL     1       6.097   1.649   0.000  0.00  0.00    +0.000 OA
ATOM     40  O   UNL     1       6.928   0.831   0.000  0.00  0.00    +0.000 OA
ENDBRANCH  36  37
BRANCH  35  41
ATOM     41  P   UNL     1       5.279  -0.596   0.000  0.00  0.00    +0.000 P 
ATOM     42  O   UNL     1       6.097  -0.596   0.000  0.00  0.00    +0.000 OA
ATOM     43  O   UNL     1       4.476  -0.817   0.000  0.00  0.00    +0.000 OA
ATOM     44  O   UNL     1       5.279  -1.427   0.000  0.00  0.00    +0.000 OA
ENDBRANCH  35  41
ENDBRANCH  30  31
ENDBRANCH  25  30
ENDBRANCH   2  25
TORSDOF 10
