REMARK  Name = 
REMARK  8 active torsions:
REMARK  status: ('A' for Active; 'I' for Inactive)
REMARK    1  A    between atoms: C_6  and  C_7
REMARK    2  A    between atoms: C_7  and  C_8
REMARK    3  A    between atoms: C_8  and  C_9
REMARK    4  A    between atoms: C_9  and  O_10
REMARK    5  A    between atoms: O_10  and  C_11
REMARK    6  A    between atoms: C_11  and  C_12
REMARK    7  A    between atoms: C_12  and  C_13
REMARK    8  A    between atoms: C_13  and  N_14
REMARK                            x       y       z     vdW  Elec       q    Type
REMARK                         _______ _______ _______ _____ _____    ______ ____
ROOT
ATOM      1  C   UNL     1       0.000  -4.950   0.000  0.00  0.00    +0.000 C 
ENDROOT
BRANCH   1   2
ATOM      2  C   UNL     1      -0.715  -4.537   0.000  0.00  0.00    +0.000 C 
BRANCH   2   3
ATOM      3  C   UNL     1      -1.429  -4.950   0.000  0.00  0.00    +0.000 C 
BRANCH   3   9
ATOM      4  C   UNL     1      -2.858  -4.950   0.000  0.00  0.00    +0.000 A 
ATOM      5  C   UNL     1      -3.572  -4.537   0.000  0.00  0.00    +0.000 A 
ATOM      6  C   UNL     1      -3.572  -3.712   0.000  0.00  0.00    +0.000 A 
ATOM      7  C   UNL     1      -2.858  -3.300   0.000  0.00  0.00    +0.000 A 
ATOM      8  C   UNL     1      -2.143  -3.712   0.000  0.00  0.00    +0.000 A 
ATOM      9  C   UNL     1      -2.143  -4.537   0.000  0.00  0.00    +0.000 A 
ATOM     10 CL   UNL     1      -4.287  -3.300   0.000  0.00  0.00    +0.000 Cl
ENDBRANCH   3   9
ENDBRANCH   2   3
ENDBRANCH   1   2
BRANCH   1  11
ATOM     11  O   UNL     1       0.715  -4.537   0.000  0.00  0.00    +0.000 OA
BRANCH  11  12
ATOM     12  C   UNL     1       1.429  -4.950   0.000  0.00  0.00    +0.000 C 
BRANCH  12  13
ATOM     13  C   UNL     1       2.143  -4.537   0.000  0.00  0.00    +0.000 C 
BRANCH  13  14
ATOM     14  C   UNL     1       2.858  -4.950   0.000  0.00  0.00    +0.000 C 
BRANCH  14  15
ATOM     15  N   UNL     1       3.572  -4.537   0.000  0.00  0.00    +0.000 NA
ATOM     16  C   UNL     1       3.572  -3.712   0.000  0.00  0.00    +0.000 C 
ATOM     17  C   UNL     1       4.287  -3.300   0.000  0.00  0.00    +0.000 C 
ATOM     18  C   UNL     1       5.001  -3.712   0.000  0.00  0.00    +0.000 C 
ATOM     19  C   UNL     1       5.001  -4.537   0.000  0.00  0.00    +0.000 C 
ATOM     20  C   UNL     1       4.287  -4.950   0.000  0.00  0.00    +0.000 C 
ENDBRANCH  14  15
ENDBRANCH  13  14
ENDBRANCH  12  13
ENDBRANCH  11  12
ENDBRANCH   1  11
TORSDOF 8
