REMARK  Name = 
REMARK  3 active torsions:
REMARK  status: ('A' for Active; 'I' for Inactive)
REMARK    1  A    between atoms: C_4  and  C_7
REMARK    2  A    between atoms: C_7  and  N_8
REMARK    3  A    between atoms: N_11  and  C_15
REMARK                            x       y       z     vdW  Elec       q    Type
REMARK                         _______ _______ _______ _____ _____    ______ ____
ROOT
ATOM      1  N   UNL     1       0.412   2.095   0.000  0.00  0.00    +0.000 N 
ATOM      2  C   UNL     1       0.667   1.310   0.000  0.00  0.00    +0.000 A 
ATOM      3  O   UNL     1       1.452   1.055   0.000  0.00  0.00    +0.000 OA
ATOM      4  N   UNL     1       0.000   0.825   0.000  0.00  0.00    +0.000 N 
ATOM      5  S   UNL     1      -0.667   1.310   0.000  0.00  0.00    +0.000 S 
ATOM      6  C   UNL     1      -0.412   2.095   0.000  0.00  0.00    +0.000 A 
ATOM      7  O   UNL     1      -0.897   2.762   0.000  0.00  0.00    +0.000 OA
ENDROOT
BRANCH   4   8
ATOM      8  C   UNL     1       0.000   0.000   0.000  0.00  0.00    +0.000 A 
ATOM      9  C   UNL     1      -0.715  -0.412   0.000  0.00  0.00    +0.000 A 
ATOM     10  C   UNL     1      -0.715  -1.238   0.000  0.00  0.00    +0.000 A 
ATOM     11  C   UNL     1       0.000  -1.650   0.000  0.00  0.00    +0.000 A 
ATOM     12  C   UNL     1       0.715  -1.238   0.000  0.00  0.00    +0.000 A 
ATOM     13  C   UNL     1       0.715  -0.412   0.000  0.00  0.00    +0.000 A 
ATOM     14  C   UNL     1       1.429   0.000   0.000  0.00  0.00    +0.000 A 
ATOM     15  C   UNL     1       2.143  -0.412   0.000  0.00  0.00    +0.000 A 
ATOM     16  C   UNL     1       2.143  -1.238   0.000  0.00  0.00    +0.000 A 
ATOM     17  C   UNL     1       1.429  -1.650   0.000  0.00  0.00    +0.000 A 
ENDBRANCH   4   8
BRANCH   1  18
ATOM     18  C   UNL     1       0.897   2.762   0.000  0.00  0.00    +0.000 C 
BRANCH  18  22
ATOM     19  C   UNL     1      -0.109   5.023   0.000  0.00  0.00    +0.000 A 
ATOM     20  C   UNL     1       0.711   4.937   0.000  0.00  0.00    +0.000 A 
ATOM     21  C   UNL     1       1.047   4.183   0.000  0.00  0.00    +0.000 A 
ATOM     22  C   UNL     1       0.562   3.516   0.000  0.00  0.00    +0.000 A 
ATOM     23  C   UNL     1      -0.259   3.602   0.000  0.00  0.00    +0.000 A 
ATOM     24  C   UNL     1      -0.594   4.356   0.000  0.00  0.00    +0.000 A 
ENDBRANCH  18  22
ENDBRANCH   1  18
TORSDOF 3
