REMARK  Name = 
REMARK  8 active torsions:
REMARK  status: ('A' for Active; 'I' for Inactive)
REMARK    1  A    between atoms: C_1  and  O_7
REMARK    2  A    between atoms: C_3  and  C_11
REMARK    3  A    between atoms: C_4  and  O_9
REMARK    4  A    between atoms: C_6  and  C_13
REMARK    5  A    between atoms: C_13  and  C_14
REMARK    6  A    between atoms: C_14  and  N_15
REMARK    7  A    between atoms: N_15  and  C_16
REMARK    8  A    between atoms: C_16  and  C_17
REMARK                            x       y       z     vdW  Elec       q    Type
REMARK                         _______ _______ _______ _____ _____    ______ ____
ROOT
ATOM      1  C   UNL     1      -1.784   0.821   0.000  0.00  0.00    +0.000 A 
ATOM      2  C   UNL     1      -2.499   0.412   0.000  0.00  0.00    +0.000 A 
ATOM      3  C   UNL     1      -2.499  -0.412   0.000  0.00  0.00    +0.000 A 
ATOM      4  C   UNL     1      -1.784  -0.829   0.000  0.00  0.00    +0.000 A 
ATOM      5  C   UNL     1      -1.069  -0.412   0.000  0.00  0.00    +0.000 A 
ATOM      6  C   UNL     1      -1.069   0.412   0.000  0.00  0.00    +0.000 A 
ENDROOT
BRANCH   4   7
ATOM      7  O   UNL     1      -1.784  -1.654   0.000  0.00  0.00    +0.000 OA
ATOM      8  C   UNL     1      -2.499  -2.063   0.000  0.00  0.00    +0.000 C 
ENDBRANCH   4   7
BRANCH   3   9
ATOM      9  C   UNL     1      -3.214  -0.829   0.000  0.00  0.00    +0.000 C 
ATOM     10  N   UNL     1      -3.929  -1.238   0.000  0.00  0.00    +0.000 NA
ENDBRANCH   3   9
BRANCH   1  11
ATOM     11  O   UNL     1      -1.784   1.646   0.000  0.00  0.00    +0.000 OA
ATOM     12  C   UNL     1      -2.499   2.063   0.000  0.00  0.00    +0.000 C 
ENDBRANCH   1  11
BRANCH   6  13
ATOM     13  C   UNL     1      -0.353   0.821   0.000  0.00  0.00    +0.000 C 
BRANCH  13  14
ATOM     14  C   UNL     1       0.354   0.412   0.000  0.00  0.00    +0.000 C 
BRANCH  14  15
ATOM     15  N   UNL     1       1.069   0.821   0.000  0.00  0.00    +0.000 NA
BRANCH  15  16
ATOM     16  C   UNL     1       1.784   0.412   0.000  0.00  0.00    +0.000 C 
BRANCH  16  17
ATOM     17  C   UNL     1       2.499   0.821   0.000  0.00  0.00    +0.000 A 
ATOM     18  C   UNL     1       3.214   0.412   0.000  0.00  0.00    +0.000 A 
ATOM     19  C   UNL     1       3.929   0.821   0.000  0.00  0.00    +0.000 A 
ATOM     20  C   UNL     1       3.929   1.646   0.000  0.00  0.00    +0.000 A 
ATOM     21  C   UNL     1       3.214   2.063   0.000  0.00  0.00    +0.000 A 
ATOM     22  C   UNL     1       2.499   1.646   0.000  0.00  0.00    +0.000 A 
ATOM     23  O   UNL     1       3.214  -0.412   0.000  0.00  0.00    +0.000 OA
ENDBRANCH  16  17
ENDBRANCH  15  16
ENDBRANCH  14  15
ENDBRANCH  13  14
ENDBRANCH   6  13
TORSDOF 8
