REMARK  Name = 
REMARK  5 active torsions:
REMARK  status: ('A' for Active; 'I' for Inactive)
REMARK    1  A    between atoms: C_1  and  C_2
REMARK    2  A    between atoms: C_1  and  O_8
REMARK    3  A    between atoms: C_1  and  C_12
REMARK    4  A    between atoms: C_2  and  N_3
REMARK    5  A    between atoms: O_8  and  C_9
REMARK                            x       y       z     vdW  Elec       q    Type
REMARK                         _______ _______ _______ _____ _____    ______ ____
ROOT
ATOM      1  C   UNL     1       0.294   0.204   0.000  0.00  0.00    +0.000 C 
ENDROOT
BRANCH   1   2
ATOM      2  C   UNL     1       1.005   0.616   0.000  0.00  0.00    +0.000 A 
ATOM      3  C   UNL     1       1.005   1.440   0.000  0.00  0.00    +0.000 A 
ATOM      4  C   UNL     1       1.720   1.852   0.000  0.00  0.00    +0.000 A 
ATOM      5  C   UNL     1       2.434   1.440   0.000  0.00  0.00    +0.000 A 
ATOM      6  C   UNL     1       2.434   0.616   0.000  0.00  0.00    +0.000 A 
ATOM      7  C   UNL     1       1.720   0.204   0.000  0.00  0.00    +0.000 A 
ATOM      8 CL   UNL     1       0.294   1.852   0.000  0.00  0.00    +0.000 Cl
ENDBRANCH   1   2
BRANCH   1   9
ATOM      9  C   UNL     1      -0.420   0.616   0.000  0.00  0.00    +0.000 C 
BRANCH   9  10
ATOM     10  N   UNL     1      -1.131   0.204   0.000  0.00  0.00    +0.000 N 
ATOM     11  N   UNL     1      -1.216  -0.611   0.000  0.00  0.00    +0.000 NA
ATOM     12  C   UNL     1      -2.022  -0.785   0.000  0.00  0.00    +0.000 A 
ATOM     13  N   UNL     1      -2.434  -0.070   0.000  0.00  0.00    +0.000 NA
ATOM     14  N   UNL     1      -1.885   0.540   0.000  0.00  0.00    +0.000 NA
ENDBRANCH   9  10
ENDBRANCH   1   9
BRANCH   1  15
ATOM     15  O   UNL     1       0.294  -0.616   0.000  0.00  0.00    +0.000 OA
BRANCH  15  16
ATOM     16  C   UNL     1       1.005  -1.028   0.000  0.00  0.00    +0.000 C 
ATOM     17  N   UNL     1       1.720  -0.616   0.000  0.00  0.00    +0.000 NA
ATOM     18  O   UNL     1       1.005  -1.852   0.000  0.00  0.00    +0.000 OA
ENDBRANCH  15  16
ENDBRANCH   1  15
TORSDOF 5
