REMARK  Name = 
REMARK  8 active torsions:
REMARK  status: ('A' for Active; 'I' for Inactive)
REMARK    1  A    between atoms: O_2  and  C_3
REMARK    2  A    between atoms: C_6  and  C_7
REMARK    3  A    between atoms: C_7  and  O_8
REMARK    4  A    between atoms: O_8  and  C_9
REMARK    5  A    between atoms: C_12  and  C_13
REMARK    6  A    between atoms: C_13  and  N_14
REMARK    7  A    between atoms: C_22  and  C_24
REMARK    8  A    between atoms: C_31  and  O_32
REMARK                            x       y       z     vdW  Elec       q    Type
REMARK                         _______ _______ _______ _____ _____    ______ ____
ROOT
ATOM      1  C   UNL     1      -2.819   1.269   0.000  0.00  0.00    +0.000 A 
ATOM      2  C   UNL     1      -2.267   1.882   0.000  0.00  0.00    +0.000 A 
ATOM      3  C   UNL     1      -1.460   1.710   0.000  0.00  0.00    +0.000 A 
ATOM      4  C   UNL     1      -1.205   0.926   0.000  0.00  0.00    +0.000 A 
ATOM      5  C   UNL     1      -1.758   0.313   0.000  0.00  0.00    +0.000 A 
ATOM      6  C   UNL     1      -2.564   0.484   0.000  0.00  0.00    +0.000 A 
ENDROOT
BRANCH   6   7
ATOM      7  O   UNL     1      -3.116  -0.129   0.000  0.00  0.00    +0.000 OA
ATOM      8  C   UNL     1      -3.923   0.043   0.000  0.00  0.00    +0.000 C 
ENDBRANCH   6   7
BRANCH   4   9
ATOM      9  C   UNL     1      -0.398   0.754   0.000  0.00  0.00    +0.000 C 
BRANCH   9  10
ATOM     10  N   UNL     1      -0.143  -0.030   0.000  0.00  0.00    +0.000 N 
ATOM     11  C   UNL     1      -0.628  -0.698   0.000  0.00  0.00    +0.000 A 
ATOM     12  N   UNL     1      -1.453  -0.698   0.000  0.00  0.00    +0.000 NA
ATOM     13  N   UNL     1      -0.143  -1.365   0.000  0.00  0.00    +0.000 NA
ATOM     14  C   UNL     1       0.641  -1.110   0.000  0.00  0.00    +0.000 A 
ATOM     15  C   UNL     1       0.641  -0.285   0.000  0.00  0.00    +0.000 A 
ATOM     16  N   UNL     1       1.356   0.127   0.000  0.00  0.00    +0.000 NA
ATOM     17  C   UNL     1       2.070  -0.285   0.000  0.00  0.00    +0.000 A 
ATOM     18  C   UNL     1       2.070  -1.110   0.000  0.00  0.00    +0.000 A 
ATOM     19  C   UNL     1       1.356  -1.523   0.000  0.00  0.00    +0.000 A 
BRANCH  18  20
ATOM     20  C   UNL     1       2.784  -1.523   0.000  0.00  0.00    +0.000 A 
ATOM     21  C   UNL     1       3.538  -1.187   0.000  0.00  0.00    +0.000 A 
ATOM     22  N   UNL     1       4.090  -1.800   0.000  0.00  0.00    +0.000 N 
ATOM     23  C   UNL     1       4.911  -1.714   0.000  0.00  0.00    +0.000 C 
ATOM     24  N   UNL     1       3.678  -2.515   0.000  0.00  0.00    +0.000 NA
ATOM     25  C   UNL     1       2.871  -2.343   0.000  0.00  0.00    +0.000 A 
ENDBRANCH  18  20
ENDBRANCH   9  10
ENDBRANCH   4   9
BRANCH   1  26
ATOM     26  O   UNL     1      -3.626   1.440   0.000  0.00  0.00    +0.000 OA
BRANCH  26  27
ATOM     27  C   UNL     1      -4.178   0.827   0.000  0.00  0.00    +0.000 C 
BRANCH  27  31
ATOM     28  C   UNL     1      -6.599   1.342   0.000  0.00  0.00    +0.000 A 
ATOM     29  C   UNL     1      -6.047   1.955   0.000  0.00  0.00    +0.000 A 
ATOM     30  C   UNL     1      -5.240   1.783   0.000  0.00  0.00    +0.000 A 
ATOM     31  C   UNL     1      -4.985   0.999   0.000  0.00  0.00    +0.000 A 
ATOM     32  C   UNL     1      -5.537   0.386   0.000  0.00  0.00    +0.000 A 
ATOM     33  C   UNL     1      -6.344   0.557   0.000  0.00  0.00    +0.000 A 
BRANCH  28  35
ATOM     34  C   UNL     1      -7.958   0.900   0.000  0.00  0.00    +0.000 C 
ATOM     35  O   UNL     1      -7.406   1.513   0.000  0.00  0.00    +0.000 OA
ENDBRANCH  28  35
ENDBRANCH  27  31
ENDBRANCH  26  27
ENDBRANCH   1  26
TORSDOF 8
