REMARK  Name = 
REMARK  9 active torsions:
REMARK  status: ('A' for Active; 'I' for Inactive)
REMARK    1  A    between atoms: C_1  and  C_4
REMARK    2  A    between atoms: C_4  and  C_5
REMARK    3  A    between atoms: C_8  and  C_19
REMARK    4  A    between atoms: C_9  and  C_15
REMARK    5  A    between atoms: C_11  and  C_14
REMARK    6  A    between atoms: C_14  and  C_15
REMARK    7  A    between atoms: C_19  and  C_20
REMARK    8  A    between atoms: C_20  and  C_22
REMARK    9  A    between atoms: C_21  and  C_22
REMARK                            x       y       z     vdW  Elec       q    Type
REMARK                         _______ _______ _______ _____ _____    ______ ____
ROOT
ATOM      1  C   UNL     1       0.355   0.002   0.000  0.00  0.00    +0.000 A 
ATOM      2  C   UNL     1       0.355  -0.825   0.000  0.00  0.00    +0.000 A 
ATOM      3  C   UNL     1       1.067   0.414   0.000  0.00  0.00    +0.000 A 
ATOM      4  C   UNL     1       1.782   0.002   0.000  0.00  0.00    +0.000 A 
ATOM      5  C   UNL     1       1.067  -1.237   0.000  0.00  0.00    +0.000 A 
ATOM      6  C   UNL     1       1.782  -0.825   0.000  0.00  0.00    +0.000 A 
ATOM      7  O   UNL     1      -0.359  -1.237   0.000  0.00  0.00    +0.000 OA
ATOM      8  O   UNL     1       1.062   1.237   0.000  0.00  0.00    +0.000 OA
ENDROOT
BRANCH   6   9
ATOM      9  C   UNL     1       2.497  -1.237   0.000  0.00  0.00    +0.000 C 
BRANCH   9  10
ATOM     10  C   UNL     1       3.208  -0.821   0.000  0.00  0.00    +0.000 C 
BRANCH  10  11
ATOM     11  C   UNL     1       3.923  -1.233   0.000  0.00  0.00    +0.000 C 
BRANCH  11  12
ATOM     12  C   UNL     1       4.634  -0.821   0.000  0.00  0.00    +0.000 C 
ATOM     13  C   UNL     1       5.349  -1.233   0.000  0.00  0.00    +0.000 C 
ENDBRANCH  11  12
ENDBRANCH  10  11
ENDBRANCH   9  10
ENDBRANCH   6   9
BRANCH   1  14
ATOM     14  C   UNL     1      -0.355   0.409   0.000  0.00  0.00    +0.000 C 
BRANCH  14  15
ATOM     15  C   UNL     1      -1.071  -0.002   0.000  0.00  0.00    +0.000 C 
ATOM     16  C   UNL     1      -1.782   0.409   0.000  0.00  0.00    +0.000 C 
ATOM     17  C   UNL     1      -1.782   1.233   0.000  0.00  0.00    +0.000 C 
BRANCH  16  18
ATOM     18  C   UNL     1      -2.497  -0.002   0.000  0.00  0.00    +0.000 C 
BRANCH  18  19
ATOM     19  C   UNL     1      -3.208   0.409   0.000  0.00  0.00    +0.000 C 
BRANCH  19  21
ATOM     20  C   UNL     1      -4.634   0.409   0.000  0.00  0.00    +0.000 C 
ATOM     21  C   UNL     1      -3.923  -0.002   0.000  0.00  0.00    +0.000 C 
ATOM     22  C   UNL     1      -4.634   1.233   0.000  0.00  0.00    +0.000 C 
ATOM     23  C   UNL     1      -5.349  -0.002   0.000  0.00  0.00    +0.000 C 
ENDBRANCH  19  21
ENDBRANCH  18  19
ENDBRANCH  16  18
ENDBRANCH  14  15
ENDBRANCH   1  14
TORSDOF 9
