REMARK  Name = 
REMARK  3 active torsions:
REMARK  status: ('A' for Active; 'I' for Inactive)
REMARK    1  A    between atoms: C_2  and  C_20
REMARK    2  A    between atoms: C_9  and  HG_11
REMARK    3  A    between atoms: C_25  and  C_26
REMARK                            x       y       z     vdW  Elec       q    Type
REMARK                         _______ _______ _______ _____ _____    ______ ____
ROOT
ATOM      1  C   UNL     1       1.453   0.142   0.000  0.00  0.00    +0.000 A 
ATOM      2  C   UNL     1       0.024   0.142   0.000  0.00  0.00    +0.000 A 
ATOM      3  C   UNL     1       0.739   0.555   0.000  0.00  0.00    +0.000 A 
ATOM      4  C   UNL     1      -0.690   0.555   0.000  0.00  0.00    +0.000 A 
ATOM      5  C   UNL     1       0.739   1.380   0.000  0.00  0.00    +0.000 A 
ATOM      6  C   UNL     1      -0.690   1.380   0.000  0.00  0.00    +0.000 A 
ATOM      7  C   UNL     1      -1.405   0.142   0.000  0.00  0.00    +0.000 A 
ATOM      8  O   UNL     1       0.024   1.792   0.000  0.00  0.00    +0.000 OA
ATOM      9  C   UNL     1      -1.405   1.792   0.000  0.00  0.00    +0.000 A 
ATOM     10  C   UNL     1       1.453   1.792   0.000  0.00  0.00    +0.000 A 
ATOM     11  C   UNL     1       2.168   0.555   0.000  0.00  0.00    +0.000 A 
ATOM     12  C   UNL     1      -2.119   0.555   0.000  0.00  0.00    +0.000 A 
ATOM     13  C   UNL     1       2.168   1.380   0.000  0.00  0.00    +0.000 A 
ATOM     14  C   UNL     1      -2.119   1.380   0.000  0.00  0.00    +0.000 A 
ATOM     15  O   UNL     1      -2.882   1.776   0.000  0.00  0.00    +0.000 OA
ATOM     16  O   UNL     1       2.882   1.792   0.000  0.00  0.00    +0.000 OA
ATOM     17 BR   UNL     1      -2.834   0.142   0.000  0.00  0.00    +0.000 Br
ATOM     18 BR   UNL     1       2.882   0.142   0.000  0.00  0.00    +0.000 Br
ENDROOT
BRANCH   2  19
ATOM     19  C   UNL     1       0.024  -1.380   0.000  0.00  0.00    +0.000 A 
ATOM     20  C   UNL     1      -0.690  -1.792   0.000  0.00  0.00    +0.000 A 
ATOM     21  C   UNL     1      -0.690  -2.617   0.000  0.00  0.00    +0.000 A 
ATOM     22  C   UNL     1       0.024  -3.030   0.000  0.00  0.00    +0.000 A 
ATOM     23  C   UNL     1       0.739  -2.617   0.000  0.00  0.00    +0.000 A 
ATOM     24  C   UNL     1       0.739  -1.792   0.000  0.00  0.00    +0.000 A 
BRANCH  24  25
ATOM     25  C   UNL     1       1.453  -1.380   0.000  0.00  0.00    +0.000 C 
ATOM     26  O   UNL     1       2.168  -1.792   0.000  0.00  0.00    +0.000 OA
ATOM     27  O   UNL     1       1.453  -0.555   0.000  0.00  0.00    +0.000 OA
ENDBRANCH  24  25
ENDBRANCH   2  19
BRANCH   9  28
ATOM     28 HG   UNL     1      -1.405   2.617   0.000  0.00  0.00    +0.000 Hg
ATOM     29  O   UNL     1      -0.690   3.030   0.000  0.00  0.00    +0.000 OA
ENDBRANCH   9  28
TORSDOF 3
REMARK  Name = 
REMARK  3 active torsions:
REMARK  status: ('A' for Active; 'I' for Inactive)
REMARK    1  A    between atoms: C_2  and  C_20
REMARK    2  A    between atoms: C_9  and  HG_11
REMARK    3  A    between atoms: C_25  and  C_26
REMARK                            x       y       z     vdW  Elec       q    Type
REMARK                         _______ _______ _______ _____ _____    ______ ____
ROOT
ATOM      1 NA   UNL     1      -1.920  -0.745   0.000  0.00  0.00    +0.000 Na
ENDROOT
TORSDOF 0
REMARK  Name = 
REMARK  3 active torsions:
REMARK  status: ('A' for Active; 'I' for Inactive)
REMARK    1  A    between atoms: C_2  and  C_20
REMARK    2  A    between atoms: C_9  and  HG_11
REMARK    3  A    between atoms: C_25  and  C_26
REMARK                            x       y       z     vdW  Elec       q    Type
REMARK                         _______ _______ _______ _____ _____    ______ ____
ROOT
ATOM      1 NA   UNL     1      -1.904  -1.749   0.000  0.00  0.00    +0.000 Na
ENDROOT
TORSDOF 0
