REMARK  Name = 
REMARK  2 active torsions:
REMARK  status: ('A' for Active; 'I' for Inactive)
REMARK    1  A    between atoms: C_11  and  C_13
REMARK    2  A    between atoms: C_19  and  C_20
REMARK                            x       y       z     vdW  Elec       q    Type
REMARK                         _______ _______ _______ _____ _____    ______ ____
ROOT
ATOM      1  O   UNL     1       2.597   1.290   0.000  0.00  0.00    +0.000 OA
ATOM      2  C   UNL     1      -0.992   2.299   0.000  0.00  0.00    +0.000 C 
ATOM      3  N   UNL     1      -0.992   1.474   0.000  0.00  0.00    +0.000 NA
ATOM      4  C   UNL     1      -1.707   2.711   0.000  0.00  0.00    +0.000 C 
ATOM      5  C   UNL     1      -1.707   1.061   0.000  0.00  0.00    +0.000 C 
ATOM      6  C   UNL     1      -2.421   2.299   0.000  0.00  0.00    +0.000 C 
ATOM      7  O   UNL     1      -2.421   1.474   0.000  0.00  0.00    +0.000 OA
ATOM      8  C   UNL     1      -0.278   2.711   0.000  0.00  0.00    +0.000 C 
ATOM      9  N   UNL     1       0.437   2.299   0.000  0.00  0.00    +0.000 NA
ATOM     10  O   UNL     1      -0.278   3.536   0.000  0.00  0.00    +0.000 OA
ATOM     11  C   UNL     1       1.151   2.711   0.000  0.00  0.00    +0.000 C 
ATOM     12  C   UNL     1       2.174   2.358   0.000  0.00  0.00    +0.000 C 
ATOM     13  C   UNL     1      -1.707   0.236   0.000  0.00  0.00    +0.000 C 
ATOM     14  N   UNL     1      -0.992  -0.176   0.000  0.00  0.00    +0.000 NA
ATOM     15  C   UNL     1      -0.992  -1.001   0.000  0.00  0.00    +0.000 C 
ATOM     16  C   UNL     1      -0.278  -1.414   0.000  0.00  0.00    +0.000 C 
ATOM     17  N   UNL     1       0.437  -1.002   0.000  0.00  0.00    +0.000 NA
ATOM     18  C   UNL     1       0.437  -0.176   0.000  0.00  0.00    +0.000 C 
ATOM     19  C   UNL     1       1.151   0.236   0.000  0.00  0.00    +0.000 C 
ATOM     20  O   UNL     1      -0.278   0.236   0.000  0.00  0.00    +0.000 OA
ATOM     21  O   UNL     1      -1.707  -1.414   0.000  0.00  0.00    +0.000 OA
ATOM     22  C   UNL     1       2.084   0.112   0.000  0.00  0.00    +0.000 C 
ATOM     23  O   UNL     1       2.760   2.971   0.000  0.00  0.00    +0.000 OA
ATOM     24  C   UNL     1      -2.481  -0.425   0.000  0.00  0.00    +0.000 C 
ATOM     25  S   UNL     1      -2.760  -1.772   0.000  0.00  0.00    +0.000 S 
ATOM     26  S   UNL     1      -2.323  -3.163   0.000  0.00  0.00    +0.000 S 
ATOM     27  C   UNL     1      -0.275  -3.949   0.000  0.00  0.00    +0.000 C 
ATOM     28  C   UNL     1       1.931  -2.984   0.000  0.00  0.00    +0.000 C 
ATOM     29  C   UNL     1       1.842  -1.742   0.000  0.00  0.00    +0.000 C 
ATOM     30  C   UNL     1       2.587  -0.738   0.000  0.00  0.00    +0.000 C 
ENDROOT
BRANCH  11  31
ATOM     31  C   UNL     1       1.151   3.536   0.000  0.00  0.00    +0.000 C 
ATOM     32  C   UNL     1       1.866   3.949   0.000  0.00  0.00    +0.000 C 
ATOM     33  C   UNL     1       0.437   3.949   0.000  0.00  0.00    +0.000 C 
ENDBRANCH  11  31
BRANCH  16  34
ATOM     34  C   UNL     1      -0.278  -2.239   0.000  0.00  0.00    +0.000 C 
ATOM     35  C   UNL     1      -0.992  -2.651   0.000  0.00  0.00    +0.000 C 
ATOM     36  C   UNL     1       0.437  -2.651   0.000  0.00  0.00    +0.000 C 
ENDBRANCH  16  34
TORSDOF 2
