REMARK  Name = 
REMARK  0 active torsions:
REMARK  status: ('A' for Active; 'I' for Inactive)
REMARK                            x       y       z     vdW  Elec       q    Type
REMARK                         _______ _______ _______ _____ _____    ______ ____
ROOT
ATOM      1  C   UNL     1       2.064   1.347   0.000  0.00  0.00    +0.000 C 
ATOM      2  C   UNL     1       2.064   0.523   0.000  0.00  0.00    +0.000 C 
ATOM      3  C   UNL     1       1.352   0.111   0.000  0.00  0.00    +0.000 C 
ATOM      4  C   UNL     1       0.634   0.523   0.000  0.00  0.00    +0.000 C 
ATOM      5  C   UNL     1       1.352   1.758   0.000  0.00  0.00    +0.000 C 
ATOM      6  C   UNL     1       0.634   1.347   0.000  0.00  0.00    +0.000 C 
ATOM      7  C   UNL     1      -0.078   1.758   0.000  0.00  0.00    +0.000 C 
ATOM      8  C   UNL     1      -0.796   1.347   0.000  0.00  0.00    +0.000 C 
ATOM      9  C   UNL     1      -0.796   0.523   0.000  0.00  0.00    +0.000 C 
ATOM     10  C   UNL     1      -1.508   0.111   0.000  0.00  0.00    +0.000 C 
ATOM     11  C   UNL     1      -2.298   0.362   0.000  0.00  0.00    +0.000 C 
ATOM     12  C   UNL     1      -2.782  -0.306   0.000  0.00  0.00    +0.000 C 
ATOM     13  C   UNL     1      -2.298  -0.974   0.000  0.00  0.00    +0.000 C 
ATOM     14  C   UNL     1      -1.508  -0.718   0.000  0.00  0.00    +0.000 C 
ATOM     15  C   UNL     1      -1.658  -1.530   0.000  0.00  0.00    +0.000 C 
ATOM     16  C   UNL     1      -0.796  -1.129   0.000  0.00  0.00    +0.000 C 
ATOM     17  C   UNL     1      -0.078  -0.718   0.000  0.00  0.00    +0.000 C 
ATOM     18  C   UNL     1      -0.078   0.111   0.000  0.00  0.00    +0.000 C 
ATOM     19  O   UNL     1      -2.554  -1.758   0.000  0.00  0.00    +0.000 OA
ATOM     20  O   UNL     1       2.782   1.758   0.000  0.00  0.00    +0.000 OA
ENDROOT
TORSDOF 0
