REMARK  Name = 
REMARK  8 active torsions:
REMARK  status: ('A' for Active; 'I' for Inactive)
REMARK    1  A    between atoms: C_2  and  N_21
REMARK    2  A    between atoms: C_5  and  C_9
REMARK    3  A    between atoms: C_12  and  C_15
REMARK    4  A    between atoms: N_21  and  C_22
REMARK    5  A    between atoms: C_27  and  C_29
REMARK    6  A    between atoms: C_29  and  N_30
REMARK    7  A    between atoms: C_31  and  C_33
REMARK    8  A    between atoms: C_35  and  C_39
REMARK                            x       y       z     vdW  Elec       q    Type
REMARK                         _______ _______ _______ _____ _____    ______ ____
ROOT
ATOM      1  C   UNL     1       2.143  -3.712   0.000  0.00  0.00    +0.000 C 
ATOM      2  C   UNL     1       2.811  -4.197   0.000  0.00  0.00    +0.000 C 
ATOM      3  C   UNL     1       2.556  -4.982   0.000  0.00  0.00    +0.000 C 
ATOM      4  N   UNL     1       1.731  -4.982   0.000  0.00  0.00    +0.000 N 
ATOM      5  C   UNL     1       1.476  -4.197   0.000  0.00  0.00    +0.000 C 
ATOM      6  C   UNL     1       1.246  -5.649   0.000  0.00  0.00    +0.000 C 
ATOM      7  O   UNL     1       0.425  -5.563   0.000  0.00  0.00    +0.000 OA
ENDROOT
BRANCH   1   8
ATOM      8  N   UNL     1       2.143  -2.888   0.000  0.00  0.00    +0.000 NA
BRANCH   8   9
ATOM      9  C   UNL     1       2.858  -2.475   0.000  0.00  0.00    +0.000 C 
ATOM     10  C   UNL     1       2.858  -1.650   0.000  0.00  0.00    +0.000 C 
ATOM     11  C   UNL     1       3.572  -1.238   0.000  0.00  0.00    +0.000 C 
ATOM     12  C   UNL     1       4.287  -1.650   0.000  0.00  0.00    +0.000 C 
ATOM     13  O   UNL     1       4.569  -0.875   0.000  0.00  0.00    +0.000 OA
ATOM     14  C   UNL     1       4.287  -2.475   0.000  0.00  0.00    +0.000 C 
ATOM     15  C   UNL     1       3.572  -2.888   0.000  0.00  0.00    +0.000 C 
BRANCH  12  16
ATOM     16  C   UNL     1       5.099  -1.793   0.000  0.00  0.00    +0.000 A 
ATOM     17  C   UNL     1       5.630  -1.161   0.000  0.00  0.00    +0.000 A 
ATOM     18  C   UNL     1       6.442  -1.304   0.000  0.00  0.00    +0.000 A 
ATOM     19  C   UNL     1       6.724  -2.080   0.000  0.00  0.00    +0.000 A 
ATOM     20  C   UNL     1       6.194  -2.712   0.000  0.00  0.00    +0.000 A 
ATOM     21  N   UNL     1       5.381  -2.568   0.000  0.00  0.00    +0.000 NA
BRANCH  19  22
ATOM     22  C   UNL     1       7.537  -2.223   0.000  0.00  0.00    +0.000 A 
ATOM     23  N   UNL     1       8.067  -1.591   0.000  0.00  0.00    +0.000 NA
ATOM     24  C   UNL     1       8.880  -1.734   0.000  0.00  0.00    +0.000 A 
ATOM     25  C   UNL     1       9.162  -2.510   0.000  0.00  0.00    +0.000 A 
ATOM     26  C   UNL     1       8.631  -3.142   0.000  0.00  0.00    +0.000 A 
ATOM     27  N   UNL     1       7.819  -2.998   0.000  0.00  0.00    +0.000 NA
ENDBRANCH  19  22
ENDBRANCH  12  16
ENDBRANCH   8   9
ENDBRANCH   1   8
BRANCH   6  28
ATOM     28  C   UNL     1       1.581  -6.403   0.000  0.00  0.00    +0.000 C 
BRANCH  28  29
ATOM     29  N   UNL     1       1.097  -7.071   0.000  0.00  0.00    +0.000 NA
ATOM     30  C   UNL     1       1.432  -7.824   0.000  0.00  0.00    +0.000 C 
ATOM     31  O   UNL     1       2.253  -7.910   0.000  0.00  0.00    +0.000 OA
BRANCH  30  32
ATOM     32  C   UNL     1       0.947  -8.492   0.000  0.00  0.00    +0.000 A 
ATOM     33  C   UNL     1       1.283  -9.245   0.000  0.00  0.00    +0.000 A 
ATOM     34  C   UNL     1       0.798  -9.913   0.000  0.00  0.00    +0.000 A 
ATOM     35  C   UNL     1      -0.023  -9.827   0.000  0.00  0.00    +0.000 A 
ATOM     36  C   UNL     1      -0.358  -9.073   0.000  0.00  0.00    +0.000 A 
ATOM     37  C   UNL     1       0.127  -8.405   0.000  0.00  0.00    +0.000 A 
BRANCH  34  38
ATOM     38  C   UNL     1       1.133 -10.666   0.000  0.00  0.00    +0.000 C 
ATOM     39  F   UNL     1       1.469 -11.420   0.000  0.00  0.00    +0.000 F 
ATOM     40  F   UNL     1       0.380 -11.002   0.000  0.00  0.00    +0.000 F 
ATOM     41  F   UNL     1       1.887 -10.331   0.000  0.00  0.00    +0.000 F 
ENDBRANCH  34  38
ENDBRANCH  30  32
ENDBRANCH  28  29
ENDBRANCH   6  28
TORSDOF 8
