REMARK  Name = 
REMARK  4 active torsions:
REMARK  status: ('A' for Active; 'I' for Inactive)
REMARK    1  A    between atoms: C_2  and  C_6
REMARK    2  A    between atoms: C_3  and  C_7
REMARK    3  A    between atoms: N_8  and  C_16
REMARK    4  A    between atoms: N_9  and  C_15
REMARK                            x       y       z     vdW  Elec       q    Type
REMARK                         _______ _______ _______ _____ _____    ______ ____
ROOT
ATOM      1  C   UNL     1       0.000   0.084   0.000  0.00  0.00    +0.000 C 
ATOM      2  N   UNL     1      -0.715  -0.329   0.000  0.00  0.00    +0.000 NA
ATOM      3  N   UNL     1       0.715  -0.329   0.000  0.00  0.00    +0.000 NA
ATOM      4  O   UNL     1       0.000   0.908   0.000  0.00  0.00    +0.000 OA
ENDROOT
BRANCH   2   7
ATOM      5  C   UNL     1      -2.858   0.084   0.000  0.00  0.00    +0.000 A 
ATOM      6  C   UNL     1      -2.143  -0.329   0.000  0.00  0.00    +0.000 A 
ATOM      7  C   UNL     1      -1.429   0.084   0.000  0.00  0.00    +0.000 A 
ATOM      8  C   UNL     1      -2.858   0.908   0.000  0.00  0.00    +0.000 A 
ATOM      9  C   UNL     1      -2.143   1.321   0.000  0.00  0.00    +0.000 A 
ATOM     10  C   UNL     1      -1.429   0.908   0.000  0.00  0.00    +0.000 A 
BRANCH   5  11
ATOM     11  C   UNL     1      -3.572  -0.329   0.000  0.00  0.00    +0.000 C 
ATOM     12  N   UNL     1      -3.659  -1.149   0.000  0.00  0.00    +0.000 NA
ATOM     13  N   UNL     1      -4.326   0.006   0.000  0.00  0.00    +0.000 NA
ATOM     14  C   UNL     1      -4.466  -1.321   0.000  0.00  0.00    +0.000 C 
ATOM     15  C   UNL     1      -4.878  -0.607   0.000  0.00  0.00    +0.000 C 
ENDBRANCH   5  11
ENDBRANCH   2   7
BRANCH   3  18
ATOM     16  C   UNL     1       2.858   0.084   0.000  0.00  0.00    +0.000 A 
ATOM     17  C   UNL     1       2.143  -0.329   0.000  0.00  0.00    +0.000 A 
ATOM     18  C   UNL     1       1.429   0.084   0.000  0.00  0.00    +0.000 A 
ATOM     19  C   UNL     1       2.858   0.908   0.000  0.00  0.00    +0.000 A 
ATOM     20  C   UNL     1       2.143   1.321   0.000  0.00  0.00    +0.000 A 
ATOM     21  C   UNL     1       1.429   0.908   0.000  0.00  0.00    +0.000 A 
BRANCH  16  22
ATOM     22  C   UNL     1       3.572  -0.329   0.000  0.00  0.00    +0.000 C 
ATOM     23  N   UNL     1       4.326   0.006   0.000  0.00  0.00    +0.000 NA
ATOM     24  N   UNL     1       3.659  -1.149   0.000  0.00  0.00    +0.000 NA
ATOM     25  C   UNL     1       4.878  -0.607   0.000  0.00  0.00    +0.000 C 
ATOM     26  C   UNL     1       4.466  -1.321   0.000  0.00  0.00    +0.000 C 
ENDBRANCH  16  22
ENDBRANCH   3  18
TORSDOF 4
