REMARK  Name = 
REMARK  8 active torsions:
REMARK  status: ('A' for Active; 'I' for Inactive)
REMARK    1  A    between atoms: N_3  and  C_9
REMARK    2  A    between atoms: N_4  and  C_23
REMARK    3  A    between atoms: N_5  and  C_12
REMARK    4  A    between atoms: C_8  and  C_10
REMARK    5  A    between atoms: C_22  and  O_28
REMARK    6  A    between atoms: O_28  and  C_29
REMARK    7  A    between atoms: C_29  and  C_30
REMARK    8  A    between atoms: C_30  and  N_31
REMARK                            x       y       z     vdW  Elec       q    Type
REMARK                         _______ _______ _______ _____ _____    ______ ____
ROOT
ATOM      1  C   UNL     1      -1.098   0.240   0.000  0.00  0.00    +0.000 C 
ATOM      2  O   UNL     1      -0.311   0.036   0.000  0.00  0.00    +0.000 OA
ATOM      3  N   UNL     1      -1.704  -0.328   0.000  0.00  0.00    +0.000 NA
ATOM      4  N   UNL     1      -1.276   1.065   0.000  0.00  0.00    +0.000 NA
ENDROOT
BRANCH   4  10
ATOM      5  C   UNL     1       0.064   1.379   0.000  0.00  0.00    +0.000 A 
ATOM      6  C   UNL     1       0.671   1.948   0.000  0.00  0.00    +0.000 A 
ATOM      7  C   UNL     1       0.269   0.580   0.000  0.00  0.00    +0.000 A 
ATOM      8  C   UNL     1       1.455   1.693   0.000  0.00  0.00    +0.000 A 
ATOM      9  C   UNL     1       0.517   2.746   0.000  0.00  0.00    +0.000 A 
ATOM     10  C   UNL     1      -0.696   1.609   0.000  0.00  0.00    +0.000 A 
ATOM     11  C   UNL     1      -0.874   2.433   0.000  0.00  0.00    +0.000 A 
ATOM     12  C   UNL     1      -0.242   2.975   0.000  0.00  0.00    +0.000 A 
ATOM     13  C   UNL     1       1.660   0.893   0.000  0.00  0.00    +0.000 A 
ATOM     14  C   UNL     1       1.053   0.325   0.000  0.00  0.00    +0.000 A 
BRANCH   9  15
ATOM     15  O   UNL     1       1.149   3.288   0.000  0.00  0.00    +0.000 OA
BRANCH  15  16
ATOM     16  C   UNL     1       1.933   3.033   0.000  0.00  0.00    +0.000 C 
BRANCH  16  17
ATOM     17  C   UNL     1       2.513   3.576   0.000  0.00  0.00    +0.000 C 
BRANCH  17  18
ATOM     18  N   UNL     1       3.324   3.346   0.000  0.00  0.00    +0.000 NA
ATOM     19  O   UNL     1       4.893   2.835   0.000  0.00  0.00    +0.000 OA
ATOM     20  C   UNL     1       3.955   3.888   0.000  0.00  0.00    +0.000 C 
ATOM     21  C   UNL     1       3.502   2.522   0.000  0.00  0.00    +0.000 C 
ATOM     22  C   UNL     1       4.287   2.266   0.000  0.00  0.00    +0.000 C 
ATOM     23  C   UNL     1       4.714   3.608   0.000  0.00  0.00    +0.000 C 
ENDBRANCH  17  18
ENDBRANCH  16  17
ENDBRANCH  15  16
ENDBRANCH   9  15
ENDBRANCH   4  10
BRANCH   3  28
ATOM     24  N   UNL     1      -3.169  -0.562   0.000  0.00  0.00    +0.000 N 
ATOM     25  N   UNL     1      -3.819  -0.081   0.000  0.00  0.00    +0.000 NA
ATOM     26  C   UNL     1      -2.771   0.704   0.000  0.00  0.00    +0.000 A 
ATOM     27  C   UNL     1      -3.563   0.704   0.000  0.00  0.00    +0.000 A 
ATOM     28  C   UNL     1      -2.489  -0.072   0.000  0.00  0.00    +0.000 A 
BRANCH  24  30
ATOM     29  C   UNL     1      -2.442  -1.813   0.000  0.00  0.00    +0.000 A 
ATOM     30  C   UNL     1      -3.145  -1.381   0.000  0.00  0.00    +0.000 A 
ATOM     31  C   UNL     1      -3.875  -1.818   0.000  0.00  0.00    +0.000 A 
ATOM     32  C   UNL     1      -3.850  -2.637   0.000  0.00  0.00    +0.000 A 
ATOM     33  C   UNL     1      -3.122  -3.044   0.000  0.00  0.00    +0.000 A 
ATOM     34  C   UNL     1      -2.418  -2.632   0.000  0.00  0.00    +0.000 A 
ATOM     35  C   UNL     1      -3.123  -3.888   0.000  0.00  0.00    +0.000 C 
ENDBRANCH  24  30
BRANCH  27  36
ATOM     36  C   UNL     1      -4.079   1.360   0.000  0.00  0.00    +0.000 C 
ATOM     37  C   UNL     1      -3.773   2.123   0.000  0.00  0.00    +0.000 C 
ATOM     38  C   UNL     1      -4.893   1.243   0.000  0.00  0.00    +0.000 C 
ATOM     39  C   UNL     1      -4.661   1.941   0.000  0.00  0.00    +0.000 C 
ENDBRANCH  27  36
ENDBRANCH   3  28
TORSDOF 8
