REMARK  Name = 
REMARK  9 active torsions:
REMARK  status: ('A' for Active; 'I' for Inactive)
REMARK    1  A    between atoms: N_4  and  C_5
REMARK    2  A    between atoms: C_5  and  C_33
REMARK    3  A    between atoms: N_8  and  C_11
REMARK    4  A    between atoms: C_11  and  C_12
REMARK    5  A    between atoms: C_12  and  C_13
REMARK    6  A    between atoms: C_13  and  C_14
REMARK    7  A    between atoms: C_13  and  C_25
REMARK    8  A    between atoms: C_14  and  N_15
REMARK    9  A    between atoms: C_17  and  C_19
REMARK                            x       y       z     vdW  Elec       q    Type
REMARK                         _______ _______ _______ _____ _____    ______ ____
ROOT
ATOM      1  C   UNL     1       2.738  -3.496   0.000  0.00  0.00    +0.000 C 
ENDROOT
BRANCH   1   2
ATOM      2  C   UNL     1       2.738  -2.671   0.000  0.00  0.00    +0.000 A 
ATOM      3  C   UNL     1       2.023  -2.259   0.000  0.00  0.00    +0.000 A 
ATOM      4  C   UNL     1       2.023  -1.434   0.000  0.00  0.00    +0.000 A 
ATOM      5  C   UNL     1       2.738  -1.021   0.000  0.00  0.00    +0.000 A 
ATOM      6  C   UNL     1       3.452  -1.434   0.000  0.00  0.00    +0.000 A 
ATOM      7  C   UNL     1       3.452  -2.259   0.000  0.00  0.00    +0.000 A 
ATOM      8 CL   UNL     1       4.167  -1.021   0.000  0.00  0.00    +0.000 Cl
ATOM      9 CL   UNL     1       2.738  -0.196   0.000  0.00  0.00    +0.000 Cl
ENDBRANCH   1   2
BRANCH   1  10
ATOM     10  C   UNL     1       2.023  -3.909   0.000  0.00  0.00    +0.000 C 
BRANCH  10  11
ATOM     11  C   UNL     1       1.309  -3.496   0.000  0.00  0.00    +0.000 C 
BRANCH  11  15
ATOM     12  C   UNL     1      -0.835  -4.734   0.000  0.00  0.00    +0.000 C 
ATOM     13  C   UNL     1      -0.835  -3.909   0.000  0.00  0.00    +0.000 C 
ATOM     14  C   UNL     1      -0.120  -3.496   0.000  0.00  0.00    +0.000 C 
ATOM     15  N   UNL     1       0.594  -3.909   0.000  0.00  0.00    +0.000 NA
ATOM     16  C   UNL     1       0.594  -4.734   0.000  0.00  0.00    +0.000 C 
ATOM     17  C   UNL     1      -0.120  -5.146   0.000  0.00  0.00    +0.000 C 
BRANCH  12  18
ATOM     18  C   UNL     1      -1.647  -4.590   0.000  0.00  0.00    +0.000 A 
ATOM     19  C   UNL     1      -2.177  -5.222   0.000  0.00  0.00    +0.000 A 
ATOM     20  C   UNL     1      -2.990  -5.079   0.000  0.00  0.00    +0.000 A 
ATOM     21  C   UNL     1      -3.272  -4.304   0.000  0.00  0.00    +0.000 A 
ATOM     22  C   UNL     1      -2.742  -3.672   0.000  0.00  0.00    +0.000 A 
ATOM     23  C   UNL     1      -1.929  -3.815   0.000  0.00  0.00    +0.000 A 
ENDBRANCH  12  18
BRANCH  12  27
ATOM     24  C   UNL     1      -0.869  -6.916   0.000  0.00  0.00    +0.000 C 
ATOM     25  C   UNL     1      -0.587  -6.141   0.000  0.00  0.00    +0.000 C 
ATOM     26  O   UNL     1       0.226  -5.998   0.000  0.00  0.00    +0.000 OA
ATOM     27  N   UNL     1      -1.117  -5.509   0.000  0.00  0.00    +0.000 NA
ENDBRANCH  12  27
ENDBRANCH  11  15
ENDBRANCH  10  11
ENDBRANCH   1  10
BRANCH   1  28
ATOM     28  C   UNL     1       3.452  -3.909   0.000  0.00  0.00    +0.000 C 
BRANCH  28  29
ATOM     29  N   UNL     1       4.167  -3.496   0.000  0.00  0.00    +0.000 N 
ATOM     30  C   UNL     1       4.167  -2.671   0.000  0.00  0.00    +0.000 C 
ATOM     31  C   UNL     1       4.881  -3.909   0.000  0.00  0.00    +0.000 C 
ATOM     32  O   UNL     1       4.881  -4.734   0.000  0.00  0.00    +0.000 OA
BRANCH  31  33
ATOM     33  C   UNL     1       5.596  -3.496   0.000  0.00  0.00    +0.000 A 
ATOM     34  C   UNL     1       5.596  -2.671   0.000  0.00  0.00    +0.000 A 
ATOM     35  C   UNL     1       6.310  -2.259   0.000  0.00  0.00    +0.000 A 
ATOM     36  C   UNL     1       7.024  -2.671   0.000  0.00  0.00    +0.000 A 
ATOM     37  C   UNL     1       7.024  -3.496   0.000  0.00  0.00    +0.000 A 
ATOM     38  C   UNL     1       6.310  -3.909   0.000  0.00  0.00    +0.000 A 
ENDBRANCH  31  33
ENDBRANCH  28  29
ENDBRANCH   1  28
TORSDOF 9
