REMARK  Name = 
REMARK  13 active torsions:
REMARK  status: ('A' for Active; 'I' for Inactive)
REMARK    1  A    between atoms: C_4  and  C_7
REMARK    2  A    between atoms: C_7  and  C_8
REMARK    3  A    between atoms: C_8  and  O_9
REMARK    4  A    between atoms: O_9  and  C_10
REMARK    5  A    between atoms: C_10  and  C_11
REMARK    6  A    between atoms: C_11  and  C_12
REMARK    7  A    between atoms: C_12  and  C_13
REMARK    8  A    between atoms: C_13  and  C_14
REMARK    9  A    between atoms: C_14  and  C_15
REMARK   10  A    between atoms: C_15  and  N_16
REMARK   11  A    between atoms: N_16  and  C_17
REMARK   12  A    between atoms: C_17  and  C_18
REMARK   13  A    between atoms: C_18  and  C_19
REMARK                            x       y       z     vdW  Elec       q    Type
REMARK                         _______ _______ _______ _____ _____    ______ ____
ROOT
ATOM      1  C   UNL     1      -3.572  -0.412   0.000  0.00  0.00    +0.000 C 
ENDROOT
BRANCH   1   2
ATOM      2  C   UNL     1      -4.287   0.000   0.000  0.00  0.00    +0.000 C 
BRANCH   2   3
ATOM      3  C   UNL     1      -5.001  -0.412   0.000  0.00  0.00    +0.000 C 
BRANCH   3   4
ATOM      4  C   UNL     1      -5.716   0.000   0.000  0.00  0.00    +0.000 C 
BRANCH   4   5
ATOM      5  C   UNL     1      -6.430  -0.412   0.000  0.00  0.00    +0.000 C 
BRANCH   5   6
ATOM      6  C   UNL     1      -7.145   0.000   0.000  0.00  0.00    +0.000 C 
BRANCH   6   7
ATOM      7  O   UNL     1      -7.859  -0.412   0.000  0.00  0.00    +0.000 OA
BRANCH   7   8
ATOM      8  C   UNL     1      -8.574   0.000   0.000  0.00  0.00    +0.000 C 
BRANCH   8   9
ATOM      9  C   UNL     1      -9.288  -0.412   0.000  0.00  0.00    +0.000 C 
ATOM     10  F   UNL     1      -8.876  -1.127   0.000  0.00  0.00    +0.000 F 
ATOM     11  F   UNL     1      -9.701   0.302   0.000  0.00  0.00    +0.000 F 
BRANCH   9  15
ATOM     12  C   UNL     1     -11.431  -1.650   0.000  0.00  0.00    +0.000 A 
ATOM     13  C   UNL     1     -11.431  -0.825   0.000  0.00  0.00    +0.000 A 
ATOM     14  C   UNL     1     -10.717  -0.412   0.000  0.00  0.00    +0.000 A 
ATOM     15  C   UNL     1     -10.003  -0.825   0.000  0.00  0.00    +0.000 A 
ATOM     16  C   UNL     1     -10.003  -1.650   0.000  0.00  0.00    +0.000 A 
ATOM     17  C   UNL     1     -10.717  -2.062   0.000  0.00  0.00    +0.000 A 
ENDBRANCH   9  15
ENDBRANCH   8   9
ENDBRANCH   7   8
ENDBRANCH   6   7
ENDBRANCH   5   6
ENDBRANCH   4   5
ENDBRANCH   3   4
ENDBRANCH   2   3
ENDBRANCH   1   2
BRANCH   1  18
ATOM     18  N   UNL     1      -2.858   0.000   0.000  0.00  0.00    +0.000 NA
BRANCH  18  19
ATOM     19  C   UNL     1      -2.143  -0.412   0.000  0.00  0.00    +0.000 C 
BRANCH  19  20
ATOM     20  C   UNL     1      -1.429   0.000   0.000  0.00  0.00    +0.000 C 
ATOM     21  O   UNL     1      -1.429   0.825   0.000  0.00  0.00    +0.000 OA
BRANCH  20  22
ATOM     22  C   UNL     1      -0.715  -0.412   0.000  0.00  0.00    +0.000 A 
ATOM     23  C   UNL     1      -0.715  -1.238   0.000  0.00  0.00    +0.000 A 
ATOM     24  C   UNL     1       0.000  -1.650   0.000  0.00  0.00    +0.000 A 
ATOM     25  C   UNL     1       0.715  -1.238   0.000  0.00  0.00    +0.000 A 
ATOM     26  C   UNL     1       0.715  -0.412   0.000  0.00  0.00    +0.000 A 
ATOM     27  C   UNL     1       0.000   0.000   0.000  0.00  0.00    +0.000 A 
ATOM     28  C   UNL     1       0.000   0.825   0.000  0.00  0.00    +0.000 A 
ATOM     29  C   UNL     1       0.715   1.238   0.000  0.00  0.00    +0.000 A 
ATOM     30  C   UNL     1       1.429   0.825   0.000  0.00  0.00    +0.000 A 
ATOM     31  O   UNL     1       2.143   1.238   0.000  0.00  0.00    +0.000 OA
ATOM     32  N   UNL     1       1.429   0.000   0.000  0.00  0.00    +0.000 NA
ATOM     33  O   UNL     1       1.429  -1.650   0.000  0.00  0.00    +0.000 OA
ENDBRANCH  20  22
ENDBRANCH  19  20
ENDBRANCH  18  19
ENDBRANCH   1  18
TORSDOF 13
