REMARK  Name = 
REMARK  5 active torsions:
REMARK  status: ('A' for Active; 'I' for Inactive)
REMARK    1  A    between atoms: C_2  and  N_4
REMARK    2  A    between atoms: N_4  and  P_5
REMARK    3  A    between atoms: P_5  and  O_7
REMARK    4  A    between atoms: P_5  and  O_9
REMARK    5  A    between atoms: O_9  and  C_10
REMARK                            x       y       z     vdW  Elec       q    Type
REMARK                         _______ _______ _______ _____ _____    ______ ____
ROOT
ATOM      1  O   UNL     1       0.715   2.062   0.000  0.00  0.00    +0.000 OA
ENDROOT
BRANCH   1   2
ATOM      2  C   UNL     1       0.715   1.238   0.000  0.00  0.00    +0.000 A 
ATOM      3  C   UNL     1       1.429   0.825   0.000  0.00  0.00    +0.000 A 
ATOM      4  C   UNL     1       1.429   0.000   0.000  0.00  0.00    +0.000 A 
ATOM      5  C   UNL     1       0.715  -0.412   0.000  0.00  0.00    +0.000 A 
ATOM      6  C   UNL     1       0.000   0.000   0.000  0.00  0.00    +0.000 A 
ATOM      7  C   UNL     1       0.000   0.825   0.000  0.00  0.00    +0.000 A 
ATOM      8 CL   UNL     1      -0.715   1.238   0.000  0.00  0.00    +0.000 Cl
ATOM      9 CL   UNL     1       0.715  -1.238   0.000  0.00  0.00    +0.000 Cl
ENDBRANCH   1   2
BRANCH   1  10
ATOM     10  P   UNL     1       0.000   2.475   0.000  0.00  0.00    +0.000 P 
ATOM     11  S   UNL     1      -0.412   1.760   0.000  0.00  0.00    +0.000 S 
BRANCH  10  12
ATOM     12  O   UNL     1       0.412   3.189   0.000  0.00  0.00    +0.000 OA
ATOM     13  C   UNL     1       1.238   3.189   0.000  0.00  0.00    +0.000 C 
ENDBRANCH  10  12
BRANCH  10  14
ATOM     14  N   UNL     1      -0.715   2.888   0.000  0.00  0.00    +0.000 NA
BRANCH  14  16
ATOM     15  C   UNL     1      -1.429   4.125   0.000  0.00  0.00    +0.000 C 
ATOM     16  C   UNL     1      -0.715   3.712   0.000  0.00  0.00    +0.000 C 
ATOM     17  C   UNL     1       0.000   4.125   0.000  0.00  0.00    +0.000 C 
ENDBRANCH  14  16
ENDBRANCH  10  14
ENDBRANCH   1  10
TORSDOF 5
