REMARK  Name = 
REMARK  3 active torsions:
REMARK  status: ('A' for Active; 'I' for Inactive)
REMARK    1  A    between atoms: C_3  and  N_9
REMARK    2  A    between atoms: C_10  and  C_12
REMARK    3  A    between atoms: C_12  and  N_13
REMARK                            x       y       z     vdW  Elec       q    Type
REMARK                         _______ _______ _______ _____ _____    ______ ____
ROOT
ATOM      1  N   UNL     1       0.381   0.841   0.000  0.00  0.00    +0.000 NA
ATOM      2  C   UNL     1       0.381   0.016   0.000  0.00  0.00    +0.000 C 
ATOM      3  O   UNL     1      -0.334  -0.396   0.000  0.00  0.00    +0.000 OA
ENDROOT
BRANCH   1   6
ATOM      4  C   UNL     1       0.382   2.491   0.000  0.00  0.00    +0.000 C 
ATOM      5  C   UNL     1      -0.333   2.079   0.000  0.00  0.00    +0.000 A 
ATOM      6  C   UNL     1      -0.333   1.254   0.000  0.00  0.00    +0.000 A 
ATOM      7  C   UNL     1      -1.048   0.841   0.000  0.00  0.00    +0.000 A 
ATOM      8  C   UNL     1      -1.762   1.254   0.000  0.00  0.00    +0.000 A 
ATOM      9  C   UNL     1      -1.762   2.079   0.000  0.00  0.00    +0.000 A 
ATOM     10  C   UNL     1      -1.047   2.491   0.000  0.00  0.00    +0.000 A 
ATOM     11  C   UNL     1      -1.048   0.016   0.000  0.00  0.00    +0.000 C 
ENDBRANCH   1   6
BRANCH   2  12
ATOM     12  C   UNL     1       1.095  -0.397   0.000  0.00  0.00    +0.000 C 
BRANCH  12  13
ATOM     13  N   UNL     1       1.095  -1.222   0.000  0.00  0.00    +0.000 N 
ATOM     14  C   UNL     1       1.762  -1.707   0.000  0.00  0.00    +0.000 C 
ATOM     15  C   UNL     1       1.507  -2.491   0.000  0.00  0.00    +0.000 C 
ATOM     16  C   UNL     1       0.682  -2.491   0.000  0.00  0.00    +0.000 C 
ATOM     17  C   UNL     1       0.427  -1.706   0.000  0.00  0.00    +0.000 C 
ATOM     18  O   UNL     1      -0.357  -1.451   0.000  0.00  0.00    +0.000 OA
ENDBRANCH  12  13
ENDBRANCH   2  12
TORSDOF 3
