REMARK  Name = 
REMARK  5 active torsions:
REMARK  status: ('A' for Active; 'I' for Inactive)
REMARK    1  A    between atoms: C_15  and  N_22
REMARK    2  A    between atoms: C_17  and  O_24
REMARK    3  A    between atoms: C_18  and  O_25
REMARK    4  A    between atoms: C_20  and  O_26
REMARK    5  A    between atoms: C_21  and  O_27
REMARK                            x       y       z     vdW  Elec       q    Type
REMARK                         _______ _______ _______ _____ _____    ______ ____
ROOT
ATOM      1  C   UNL     1      -1.196   2.658   0.000  0.00  0.00    +0.000 C 
ATOM      2  C   UNL     1       0.220   0.452   0.000  0.00  0.00    +0.000 A 
ATOM      3  C   UNL     1      -0.466   3.042   0.000  0.00  0.00    +0.000 C 
ATOM      4  C   UNL     1       0.975   0.120   0.000  0.00  0.00    +0.000 A 
ATOM      5  C   UNL     1      -2.163   1.697   0.000  0.00  0.00    +0.000 A 
ATOM      6  C   UNL     1       1.325   1.940   0.000  0.00  0.00    +0.000 A 
ATOM      7  C   UNL     1      -1.352   1.848   0.000  0.00  0.00    +0.000 A 
ATOM      8  C   UNL     1       0.009   1.250   0.000  0.00  0.00    +0.000 A 
ATOM      9  C   UNL     1       0.500   1.912   0.000  0.00  0.00    +0.000 A 
ATOM     10  C   UNL     1       0.289   2.710   0.000  0.00  0.00    +0.000 C 
ATOM     11  C   UNL     1       1.861   1.314   0.000  0.00  0.00    +0.000 A 
ATOM     12  C   UNL     1       1.706   0.503   0.000  0.00  0.00    +0.000 A 
ATOM     13  C   UNL     1      -2.438   0.919   0.000  0.00  0.00    +0.000 A 
ATOM     14  C   UNL     1      -0.816   1.221   0.000  0.00  0.00    +0.000 A 
ATOM     15  C   UNL     1      -1.902   0.292   0.000  0.00  0.00    +0.000 A 
ATOM     16  C   UNL     1      -1.091   0.443   0.000  0.00  0.00    +0.000 A 
ATOM     17  O   UNL     1       2.659   1.525   0.000  0.00  0.00    +0.000 OA
ENDROOT
BRANCH  10  19
ATOM     18  C   UNL     1       1.694   2.971   0.000  0.00  0.00    +0.000 C 
ATOM     19  N   UNL     1       0.916   3.246   0.000  0.00  0.00    +0.000 NA
ENDBRANCH  10  19
BRANCH  12  21
ATOM     20  C   UNL     1       3.125   0.339   0.000  0.00  0.00    +0.000 C 
ATOM     21  O   UNL     1       2.368   0.012   0.000  0.00  0.00    +0.000 OA
ENDBRANCH  12  21
BRANCH  13  23
ATOM     22  C   UNL     1      -3.524  -0.010   0.000  0.00  0.00    +0.000 C 
ATOM     23  O   UNL     1      -3.249   0.768   0.000  0.00  0.00    +0.000 OA
ENDBRANCH  13  23
BRANCH  15  25
ATOM     24  C   UNL     1      -1.640  -1.113   0.000  0.00  0.00    +0.000 C 
ATOM     25  O   UNL     1      -2.176  -0.486   0.000  0.00  0.00    +0.000 OA
ENDBRANCH  15  25
BRANCH  16  27
ATOM     26  C   UNL     1      -0.829  -0.962   0.000  0.00  0.00    +0.000 C 
ATOM     27  O   UNL     1      -0.554  -0.183   0.000  0.00  0.00    +0.000 OA
ENDBRANCH  16  27
TORSDOF 5
