REMARK  Name = 
REMARK  8 active torsions:
REMARK  status: ('A' for Active; 'I' for Inactive)
REMARK    1  A    between atoms: P_1  and  O_4
REMARK    2  A    between atoms: P_1  and  O_5
REMARK    3  A    between atoms: O_4  and  C_22
REMARK    4  A    between atoms: O_5  and  C_30
REMARK    5  A    between atoms: N_14  and  C_26
REMARK    6  A    between atoms: N_15  and  C_28
REMARK    7  A    between atoms: C_23  and  C_30
REMARK    8  A    between atoms: C_29  and  C_31
REMARK                            x       y       z     vdW  Elec       q    Type
REMARK                         _______ _______ _______ _____ _____    ______ ____
ROOT
ATOM      1  O   UNL     1       0.829   0.492   0.000  0.00  0.00    +0.000 OA
ENDROOT
BRANCH   1   2
ATOM      2  P   UNL     1       0.576   1.277   0.000  0.00  0.00    +0.000 P 
ATOM      3  O   UNL     1       1.361   1.531   0.000  0.00  0.00    +0.000 OA
ATOM      4  O   UNL     1      -0.209   1.024   0.000  0.00  0.00    +0.000 OA
BRANCH   2   5
ATOM      5  O   UNL     1       0.322   2.062   0.000  0.00  0.00    +0.000 OA
BRANCH   5   8
ATOM      6  O   UNL     1       1.420   3.893   0.000  0.00  0.00    +0.000 OA
ATOM      7  O   UNL     1       2.107   1.872   0.000  0.00  0.00    +0.000 OA
ATOM      8  C   UNL     1       0.875   2.675   0.000  0.00  0.00    +0.000 C 
ATOM      9  C   UNL     1       1.696   2.587   0.000  0.00  0.00    +0.000 C 
ATOM     10  C   UNL     1       0.705   3.482   0.000  0.00  0.00    +0.000 C 
ATOM     11  C   UNL     1       2.032   3.340   0.000  0.00  0.00    +0.000 C 
BRANCH  10  13
ATOM     12  O   UNL     1       0.535   5.123   0.000  0.00  0.00    +0.000 OA
ATOM     13  N   UNL     1      -0.048   3.819   0.000  0.00  0.00    +0.000 N 
ATOM     14  N   UNL     1      -0.886   4.976   0.000  0.00  0.00    +0.000 NA
ATOM     15  N   UNL     1      -2.307   4.829   0.000  0.00  0.00    +0.000 N 
ATOM     16  C   UNL     1      -0.716   3.335   0.000  0.00  0.00    +0.000 A 
ATOM     17  C   UNL     1      -0.133   4.639   0.000  0.00  0.00    +0.000 A 
ATOM     18  C   UNL     1      -1.469   3.672   0.000  0.00  0.00    +0.000 A 
ATOM     19  C   UNL     1      -1.554   4.492   0.000  0.00  0.00    +0.000 A 
ATOM     20  H   UNL     1      -2.722   4.529   0.000  0.00  0.00    +0.000 HD
ATOM     21  H   UNL     1      -2.360   5.338   0.000  0.00  0.00    +0.000 HD
ENDBRANCH  10  13
BRANCH  11  23
ATOM     22  O   UNL     1       3.096   4.294   0.000  0.00  0.00    +0.000 OA
ATOM     23  C   UNL     1       2.840   3.510   0.000  0.00  0.00    +0.000 C 
ENDBRANCH  11  23
ENDBRANCH   5   8
ENDBRANCH   2   5
ENDBRANCH   1   2
BRANCH   1  24
ATOM     24  C   UNL     1       0.276  -0.120   0.000  0.00  0.00    +0.000 C 
BRANCH  24  28
ATOM     25  O   UNL     1       0.044  -1.572   0.000  0.00  0.00    +0.000 OA
ATOM     26  O   UNL     1       1.982  -0.677   0.000  0.00  0.00    +0.000 OA
ATOM     27  O   UNL     1       1.979  -2.473   0.000  0.00  0.00    +0.000 OA
ATOM     28  C   UNL     1       0.530  -0.905   0.000  0.00  0.00    +0.000 C 
ATOM     29  C   UNL     1       1.314  -1.161   0.000  0.00  0.00    +0.000 C 
ATOM     30  C   UNL     1       1.312  -1.986   0.000  0.00  0.00    +0.000 C 
ATOM     31  C   UNL     1       0.527  -2.240   0.000  0.00  0.00    +0.000 C 
BRANCH  31  33
ATOM     32  O   UNL     1      -1.224  -5.338   0.000  0.00  0.00    +0.000 OA
ATOM     33  N   UNL     1       0.271  -3.024   0.000  0.00  0.00    +0.000 N 
ATOM     34  N   UNL     1      -1.224  -2.863   0.000  0.00  0.00    +0.000 N 
ATOM     35  N   UNL     1       0.271  -4.352   0.000  0.00  0.00    +0.000 NA
ATOM     36  N   UNL     1      -1.938  -4.101   0.000  0.00  0.00    +0.000 NA
ATOM     37  N   UNL     1      -2.653  -2.863   0.000  0.00  0.00    +0.000 N 
ATOM     38  C   UNL     1      -0.509  -3.276   0.000  0.00  0.00    +0.000 A 
ATOM     39  C   UNL     1       0.752  -3.688   0.000  0.00  0.00    +0.000 A 
ATOM     40  C   UNL     1      -0.509  -4.101   0.000  0.00  0.00    +0.000 A 
ATOM     41  C   UNL     1      -1.224  -4.513   0.000  0.00  0.00    +0.000 A 
ATOM     42  C   UNL     1      -1.938  -3.276   0.000  0.00  0.00    +0.000 A 
ATOM     43  H   UNL     1      -1.224  -2.352   0.000  0.00  0.00    +0.000 HD
ATOM     44  H   UNL     1      -2.653  -2.352   0.000  0.00  0.00    +0.000 HD
ATOM     45  H   UNL     1      -3.096  -3.119   0.000  0.00  0.00    +0.000 HD
ENDBRANCH  31  33
ENDBRANCH  24  28
ENDBRANCH   1  24
TORSDOF 8
