REMARK  Name = 
REMARK  8 active torsions:
REMARK  status: ('A' for Active; 'I' for Inactive)
REMARK    1  A    between atoms: S_1  and  C_2
REMARK    2  A    between atoms: S_1  and  N_6
REMARK    3  A    between atoms: N_6  and  C_13
REMARK    4  A    between atoms: C_8  and  C_11
REMARK    5  A    between atoms: C_10  and  C_23
REMARK    6  A    between atoms: C_13  and  C_26
REMARK    7  A    between atoms: N_14  and  C_23
REMARK    8  A    between atoms: N_14  and  C_26
REMARK                            x       y       z     vdW  Elec       q    Type
REMARK                         _______ _______ _______ _____ _____    ______ ____
ROOT
ATOM      1  N   UNL     1       2.138   0.430   0.000  0.00  0.00    +0.000 NA
ENDROOT
BRANCH   1   2
ATOM      2  S   UNL     1       2.848   0.851   0.000  0.00  0.00    +0.000 S 
ATOM      3  O   UNL     1       2.255   1.427   0.000  0.00  0.00    +0.000 OA
ATOM      4  O   UNL     1       3.423   1.444   0.000  0.00  0.00    +0.000 OA
BRANCH   2   5
ATOM      5  C   UNL     1       3.569   0.442   0.000  0.00  0.00    +0.000 A 
ATOM      6  C   UNL     1       3.582  -0.384   0.000  0.00  0.00    +0.000 A 
ATOM      7  N   UNL     1       3.607  -2.028   0.000  0.00  0.00    +0.000 NA
ATOM      8  C   UNL     1       4.304  -0.784   0.000  0.00  0.00    +0.000 A 
ATOM      9  C   UNL     1       4.275   0.868   0.000  0.00  0.00    +0.000 A 
ATOM     10  C   UNL     1       4.316  -1.606   0.000  0.00  0.00    +0.000 A 
ATOM     11  C   UNL     1       2.881  -0.801   0.000  0.00  0.00    +0.000 A 
ATOM     12  C   UNL     1       5.001   0.463   0.000  0.00  0.00    +0.000 A 
ATOM     13  C   UNL     1       2.889  -1.627   0.000  0.00  0.00    +0.000 A 
ATOM     14  C   UNL     1       5.013  -0.363   0.000  0.00  0.00    +0.000 A 
ENDBRANCH   2   5
ENDBRANCH   1   2
BRANCH   1  15
ATOM     15  C   UNL     1       1.421   0.839   0.000  0.00  0.00    +0.000 C 
BRANCH  15  16
ATOM     16  C   UNL     1       0.711   0.417   0.000  0.00  0.00    +0.000 C 
BRANCH  16  17
ATOM     17  N   UNL     1      -0.006   0.826   0.000  0.00  0.00    +0.000 NA
BRANCH  17  18
ATOM     18  C   UNL     1      -0.716   0.405   0.000  0.00  0.00    +0.000 C 
BRANCH  18  20
ATOM     19  C   UNL     1      -2.143   0.392   0.000  0.00  0.00    +0.000 C 
ATOM     20  C   UNL     1      -1.433   0.809   0.000  0.00  0.00    +0.000 C 
BRANCH  19  21
ATOM     21  C   UNL     1      -2.860   0.797   0.000  0.00  0.00    +0.000 A 
ATOM     22  C   UNL     1      -4.291   1.610   0.000  0.00  0.00    +0.000 A 
ATOM     23 BR   UNL     1      -5.013   2.007   0.000  0.00  0.00    +0.000 Br
ATOM     24  C   UNL     1      -2.868   1.623   0.000  0.00  0.00    +0.000 A 
ATOM     25  C   UNL     1      -3.569   0.380   0.000  0.00  0.00    +0.000 A 
ATOM     26  C   UNL     1      -3.586   2.028   0.000  0.00  0.00    +0.000 A 
ATOM     27  C   UNL     1      -4.287   0.784   0.000  0.00  0.00    +0.000 A 
ENDBRANCH  19  21
ENDBRANCH  18  20
ENDBRANCH  17  18
ENDBRANCH  16  17
ENDBRANCH  15  16
ENDBRANCH   1  15
TORSDOF 8
