REMARK  Name = 
REMARK  3 active torsions:
REMARK  status: ('A' for Active; 'I' for Inactive)
REMARK    1  A    between atoms: C_3  and  N_4
REMARK    2  A    between atoms: C_5  and  C_7
REMARK    3  A    between atoms: N_15  and  C_16
REMARK                            x       y       z     vdW  Elec       q    Type
REMARK                         _______ _______ _______ _____ _____    ______ ____
ROOT
ATOM      1  C   UNL     1      -0.887   1.557   0.000  0.00  0.00    +0.000 C 
ATOM      2  C   UNL     1      -0.887   0.732   0.000  0.00  0.00    +0.000 A 
ATOM      3  C   UNL     1      -0.220   0.247   0.000  0.00  0.00    +0.000 A 
ATOM      4  C   UNL     1      -0.475  -0.537   0.000  0.00  0.00    +0.000 A 
ATOM      5  O   UNL     1       0.010  -1.205   0.000  0.00  0.00    +0.000 OA
ATOM      6  N   UNL     1      -1.300  -0.537   0.000  0.00  0.00    +0.000 N 
ATOM      7  N   UNL     1      -1.555   0.247   0.000  0.00  0.00    +0.000 N 
ATOM      8  C   UNL     1      -2.339   0.502   0.000  0.00  0.00    +0.000 C 
ENDROOT
BRANCH   6   9
ATOM      9  C   UNL     1      -1.785  -1.205   0.000  0.00  0.00    +0.000 A 
ATOM     10  C   UNL     1      -1.449  -1.958   0.000  0.00  0.00    +0.000 A 
ATOM     11  C   UNL     1      -1.934  -2.626   0.000  0.00  0.00    +0.000 A 
ATOM     12  C   UNL     1      -2.755  -2.540   0.000  0.00  0.00    +0.000 A 
ATOM     13  C   UNL     1      -3.090  -1.786   0.000  0.00  0.00    +0.000 A 
ATOM     14  C   UNL     1      -2.605  -1.119   0.000  0.00  0.00    +0.000 A 
ENDBRANCH   6   9
BRANCH   3  15
ATOM     15  N   UNL     1       0.565   0.502   0.000  0.00  0.00    +0.000 NA
ATOM     16  C   UNL     1       0.736   1.309   0.000  0.00  0.00    +0.000 C 
ATOM     17  O   UNL     1       0.123   1.861   0.000  0.00  0.00    +0.000 OA
BRANCH  16  18
ATOM     18  C   UNL     1       1.521   1.564   0.000  0.00  0.00    +0.000 A 
ATOM     19  C   UNL     1       1.692   2.371   0.000  0.00  0.00    +0.000 A 
ATOM     20  C   UNL     1       2.477   2.626   0.000  0.00  0.00    +0.000 A 
ATOM     21  C   UNL     1       3.090   2.074   0.000  0.00  0.00    +0.000 A 
ATOM     22  N   UNL     1       2.919   1.267   0.000  0.00  0.00    +0.000 NA
ATOM     23  C   UNL     1       2.134   1.012   0.000  0.00  0.00    +0.000 A 
ENDBRANCH  16  18
ENDBRANCH   3  15
TORSDOF 3
