REMARK  Name = 
REMARK  1 active torsions:
REMARK  status: ('A' for Active; 'I' for Inactive)
REMARK    1  A    between atoms: C_8  and  N_14
REMARK                            x       y       z     vdW  Elec       q    Type
REMARK                         _______ _______ _______ _____ _____    ______ ____
ROOT
ATOM      1  C   UNL     1       4.287   5.529   0.000  0.00  0.00    +0.000 A 
ATOM      2  C   UNL     1       3.572   5.941   0.000  0.00  0.00    +0.000 A 
ATOM      3  C   UNL     1       4.287   4.704   0.000  0.00  0.00    +0.000 A 
ATOM      4  C   UNL     1       2.858   5.529   0.000  0.00  0.00    +0.000 A 
ATOM      5  C   UNL     1       3.572   4.291   0.000  0.00  0.00    +0.000 A 
ATOM      6  C   UNL     1       2.858   4.704   0.000  0.00  0.00    +0.000 A 
ATOM      7 BR   UNL     1       2.143   5.941   0.000  0.00  0.00    +0.000 Br
ATOM      8  F   UNL     1       3.572   3.466   0.000  0.00  0.00    +0.000 F 
ENDROOT
BRANCH   6  14
ATOM      9  C   UNL     1       1.731   2.196   0.000  0.00  0.00    +0.000 C 
ATOM     10  C   UNL     1       2.556   2.196   0.000  0.00  0.00    +0.000 C 
ATOM     11  C   UNL     1       2.143   3.466   0.000  0.00  0.00    +0.000 C 
ATOM     12  N   UNL     1       1.476   2.981   0.000  0.00  0.00    +0.000 NA
ATOM     13  N   UNL     1       2.811   2.981   0.000  0.00  0.00    +0.000 NA
ATOM     14  N   UNL     1       2.143   4.291   0.000  0.00  0.00    +0.000 NA
ENDBRANCH   6  14
TORSDOF 1
