REMARK  Name = 
REMARK  8 active torsions:
REMARK  status: ('A' for Active; 'I' for Inactive)
REMARK    1  A    between atoms: P_1  and  O_5
REMARK    2  A    between atoms: O_3  and  C_13
REMARK    3  A    between atoms: O_3  and  C_18
REMARK    4  A    between atoms: O_5  and  C_17
REMARK    5  A    between atoms: N_11  and  C_15
REMARK    6  A    between atoms: C_16  and  C_17
REMARK    7  A    between atoms: C_18  and  C_21
REMARK    8  A    between atoms: C_21  and  C_23
REMARK                            x       y       z     vdW  Elec       q    Type
REMARK                         _______ _______ _______ _____ _____    ______ ____
ROOT
ATOM      1  O   UNL     1       1.436  -0.542   0.000  0.00  0.00    +0.000 OA
ATOM      2  O   UNL     1      -0.129  -1.994   0.000  0.00  0.00    +0.000 OA
ATOM      3  C   UNL     1       0.101  -0.542   0.000  0.00  0.00    +0.000 C 
ATOM      4  C   UNL     1       0.356  -1.327   0.000  0.00  0.00    +0.000 C 
ATOM      5  C   UNL     1       0.769  -0.057   0.000  0.00  0.00    +0.000 C 
ATOM      6  C   UNL     1       1.181  -1.327   0.000  0.00  0.00    +0.000 C 
ENDROOT
BRANCH   5   9
ATOM      7  O   UNL     1       2.198   0.768   0.000  0.00  0.00    +0.000 OA
ATOM      8  O   UNL     1       0.769   3.243   0.000  0.00  0.00    +0.000 OA
ATOM      9  N   UNL     1       0.769   0.768   0.000  0.00  0.00    +0.000 N 
ATOM     10  N   UNL     1       1.483   2.005   0.000  0.00  0.00    +0.000 NA
ATOM     11  C   UNL     1       0.054   1.180   0.000  0.00  0.00    +0.000 A 
ATOM     12  C   UNL     1       1.483   1.180   0.000  0.00  0.00    +0.000 A 
ATOM     13  C   UNL     1       0.054   2.005   0.000  0.00  0.00    +0.000 A 
ATOM     14  C   UNL     1       0.769   2.418   0.000  0.00  0.00    +0.000 A 
ATOM     15  C   UNL     1      -0.660   2.418   0.000  0.00  0.00    +0.000 C 
ENDBRANCH   5   9
BRANCH   3  16
ATOM     16  O   UNL     1      -0.683  -0.287   0.000  0.00  0.00    +0.000 OA
BRANCH  16  17
ATOM     17  C   UNL     1      -1.296  -0.839   0.000  0.00  0.00    +0.000 C 
BRANCH  17  18
ATOM     18  C   UNL     1      -2.081  -0.584   0.000  0.00  0.00    +0.000 C 
BRANCH  18  19
ATOM     19  C   UNL     1      -2.694  -1.136   0.000  0.00  0.00    +0.000 C 
ATOM     20  C   UNL     1      -3.479  -0.881   0.000  0.00  0.00    +0.000 C 
ENDBRANCH  18  19
ENDBRANCH  17  18
ENDBRANCH  16  17
ENDBRANCH   3  16
BRANCH   6  21
ATOM     21  C   UNL     1       1.666  -1.994   0.000  0.00  0.00    +0.000 C 
BRANCH  21  22
ATOM     22  O   UNL     1       2.487  -1.908   0.000  0.00  0.00    +0.000 OA
BRANCH  22  23
ATOM     23  P   UNL     1       2.971  -2.575   0.000  0.00  0.00    +0.000 P 
ATOM     24  O   UNL     1       3.457  -3.243   0.000  0.00  0.00    +0.000 OA
ATOM     25  O   UNL     1       3.639  -2.091   0.000  0.00  0.00    +0.000 OA
ATOM     26  O   UNL     1       2.304  -3.060   0.000  0.00  0.00    +0.000 OA
ENDBRANCH  22  23
ENDBRANCH  21  22
ENDBRANCH   6  21
TORSDOF 8
