REMARK  Name = 
REMARK  11 active torsions:
REMARK  status: ('A' for Active; 'I' for Inactive)
REMARK    1  A    between atoms: S_1  and  N_10
REMARK    2  A    between atoms: S_1  and  C_14
REMARK    3  A    between atoms: S_2  and  O_5
REMARK    4  A    between atoms: S_2  and  C_26
REMARK    5  A    between atoms: O_5  and  C_33
REMARK    6  A    between atoms: N_10  and  C_13
REMARK    7  A    between atoms: N_11  and  C_19
REMARK    8  A    between atoms: N_12  and  C_29
REMARK    9  A    between atoms: C_13  and  C_15
REMARK   10  A    between atoms: C_13  and  C_25
REMARK   11  A    between atoms: C_15  and  C_18
REMARK                            x       y       z     vdW  Elec       q    Type
REMARK                         _______ _______ _______ _____ _____    ______ ____
ROOT
ATOM      1  C   UNL     1       1.072   0.206   0.000  0.00  0.00    +0.000 C 
ENDROOT
BRANCH   1   2
ATOM      2  C   UNL     1       0.357  -0.206   0.000  0.00  0.00    +0.000 A 
ATOM      3  C   UNL     1       0.357  -1.031   0.000  0.00  0.00    +0.000 A 
ATOM      4  C   UNL     1      -0.357   0.206   0.000  0.00  0.00    +0.000 A 
ATOM      5  C   UNL     1      -1.072  -1.031   0.000  0.00  0.00    +0.000 A 
ATOM      6  C   UNL     1      -0.357  -1.444   0.000  0.00  0.00    +0.000 A 
ATOM      7  C   UNL     1      -1.072  -0.206   0.000  0.00  0.00    +0.000 A 
BRANCH   5   8
ATOM      8  O   UNL     1      -1.786  -1.444   0.000  0.00  0.00    +0.000 OA
BRANCH   8   9
ATOM      9  S   UNL     1      -1.786  -2.269   0.000  0.00  0.00    +0.000 S 
ATOM     10  O   UNL     1      -0.961  -2.269   0.000  0.00  0.00    +0.000 OA
ATOM     11  O   UNL     1      -2.611  -2.269   0.000  0.00  0.00    +0.000 OA
BRANCH   9  14
ATOM     12  C   UNL     1      -2.501  -3.506   0.000  0.00  0.00    +0.000 A 
ATOM     13  C   UNL     1      -2.501  -4.331   0.000  0.00  0.00    +0.000 A 
ATOM     14  C   UNL     1      -1.786  -3.094   0.000  0.00  0.00    +0.000 A 
ATOM     15  C   UNL     1      -3.238  -4.772   0.000  0.00  0.00    +0.000 A 
ATOM     16  C   UNL     1      -3.238  -3.065   0.000  0.00  0.00    +0.000 A 
ATOM     17  C   UNL     1      -1.786  -4.744   0.000  0.00  0.00    +0.000 A 
ATOM     18  C   UNL     1      -1.072  -3.506   0.000  0.00  0.00    +0.000 A 
ATOM     19  C   UNL     1      -3.986  -4.348   0.000  0.00  0.00    +0.000 A 
ATOM     20  C   UNL     1      -1.072  -4.331   0.000  0.00  0.00    +0.000 A 
ATOM     21  C   UNL     1      -3.986  -3.489   0.000  0.00  0.00    +0.000 A 
BRANCH  15  22
ATOM     22  N   UNL     1      -3.229  -5.597   0.000  0.00  0.00    +0.000 N 
ATOM     23  C   UNL     1      -3.938  -6.018   0.000  0.00  0.00    +0.000 C 
ATOM     24  C   UNL     1      -2.509  -6.001   0.000  0.00  0.00    +0.000 C 
ENDBRANCH  15  22
ENDBRANCH   9  14
ENDBRANCH   8   9
ENDBRANCH   5   8
ENDBRANCH   1   2
BRANCH   1  25
ATOM     25  C   UNL     1       1.072   1.031   0.000  0.00  0.00    +0.000 C 
BRANCH  25  28
ATOM     26  O   UNL     1      -0.357   1.031   0.000  0.00  0.00    +0.000 OA
ATOM     27  O   UNL     1       0.357   2.269   0.000  0.00  0.00    +0.000 OA
ATOM     28  C   UNL     1       0.357   1.444   0.000  0.00  0.00    +0.000 C 
ENDBRANCH  25  28
BRANCH  25  29
ATOM     29  N   UNL     1       1.786   1.444   0.000  0.00  0.00    +0.000 NA
ATOM     30  H   UNL     1       2.229   1.188   0.000  0.00  0.00    +0.000 HD
BRANCH  29  31
ATOM     31  S   UNL     1       1.786   2.269   0.000  0.00  0.00    +0.000 S 
ATOM     32  O   UNL     1       2.611   2.269   0.000  0.00  0.00    +0.000 OA
ATOM     33  O   UNL     1       0.961   2.269   0.000  0.00  0.00    +0.000 OA
BRANCH  31  34
ATOM     34  C   UNL     1       1.786   3.094   0.000  0.00  0.00    +0.000 A 
ATOM     35  C   UNL     1       2.501   3.506   0.000  0.00  0.00    +0.000 A 
ATOM     36  C   UNL     1       2.501   4.331   0.000  0.00  0.00    +0.000 A 
ATOM     37  C   UNL     1       3.238   4.772   0.000  0.00  0.00    +0.000 A 
ATOM     38  C   UNL     1       1.072   3.506   0.000  0.00  0.00    +0.000 A 
ATOM     39  C   UNL     1       3.238   3.065   0.000  0.00  0.00    +0.000 A 
ATOM     40  C   UNL     1       1.786   4.744   0.000  0.00  0.00    +0.000 A 
ATOM     41  C   UNL     1       1.072   4.331   0.000  0.00  0.00    +0.000 A 
ATOM     42  C   UNL     1       3.986   4.348   0.000  0.00  0.00    +0.000 A 
ATOM     43  C   UNL     1       3.986   3.489   0.000  0.00  0.00    +0.000 A 
BRANCH  37  44
ATOM     44  N   UNL     1       3.229   5.597   0.000  0.00  0.00    +0.000 N 
ATOM     45  C   UNL     1       3.938   6.018   0.000  0.00  0.00    +0.000 C 
ATOM     46  C   UNL     1       2.509   6.001   0.000  0.00  0.00    +0.000 C 
ENDBRANCH  37  44
ENDBRANCH  31  34
ENDBRANCH  29  31
ENDBRANCH  25  29
ENDBRANCH   1  25
TORSDOF 11
