REMARK  Name = 
REMARK  9 active torsions:
REMARK  status: ('A' for Active; 'I' for Inactive)
REMARK    1  A    between atoms: N_1  and  S_5
REMARK    2  A    between atoms: S_5  and  N_8
REMARK    3  A    between atoms: C_11  and  S_22
REMARK    4  A    between atoms: C_13  and  O_15
REMARK    5  A    between atoms: O_15  and  C_16
REMARK    6  A    between atoms: C_16  and  C_18
REMARK    7  A    between atoms: C_18  and  C_19
REMARK    8  A    between atoms: S_22  and  C_23
REMARK    9  A    between atoms: C_23  and  C_24
REMARK                            x       y       z     vdW  Elec       q    Type
REMARK                         _______ _______ _______ _____ _____    ______ ____
ROOT
ATOM      1  N   UNL     1       1.639  -2.270   0.000  0.00  0.00    +0.000 NA
ATOM      2  C   UNL     1       0.924  -1.858   0.000  0.00  0.00    +0.000 A 
ATOM      3  N   UNL     1       0.924  -1.030   0.000  0.00  0.00    +0.000 NA
ATOM      4  C   UNL     1       0.209  -0.618   0.000  0.00  0.00    +0.000 A 
ATOM      5  N   UNL     1      -0.505  -1.030   0.000  0.00  0.00    +0.000 NA
ATOM      6  C   UNL     1      -0.505  -1.858   0.000  0.00  0.00    +0.000 A 
ATOM      7  C   UNL     1       0.209  -2.270   0.000  0.00  0.00    +0.000 A 
ENDROOT
BRANCH   1   8
ATOM      8  S   UNL     1       2.354  -1.858   0.000  0.00  0.00    +0.000 S 
ATOM      9  O   UNL     1       2.766  -2.568   0.000  0.00  0.00    +0.000 OA
ATOM     10  O   UNL     1       1.942  -1.143   0.000  0.00  0.00    +0.000 OA
BRANCH   8  11
ATOM     11  N   UNL     1       3.064  -1.442   0.000  0.00  0.00    +0.000 NA
ATOM     12  C   UNL     1       3.278  -0.649   0.000  0.00  0.00    +0.000 C 
ATOM     13  C   UNL     1       4.075  -0.858   0.000  0.00  0.00    +0.000 C 
ATOM     14  C   UNL     1       3.861  -1.655   0.000  0.00  0.00    +0.000 C 
ENDBRANCH   8  11
ENDBRANCH   1   8
BRANCH   4  15
ATOM     15  S   UNL     1       0.209   0.206   0.000  0.00  0.00    +0.000 S 
BRANCH  15  16
ATOM     16  C   UNL     1       0.924   0.618   0.000  0.00  0.00    +0.000 C 
BRANCH  16  17
ATOM     17  C   UNL     1       0.924   1.442   0.000  0.00  0.00    +0.000 A 
ATOM     18  C   UNL     1       0.209   1.853   0.000  0.00  0.00    +0.000 A 
ATOM     19  C   UNL     1       0.209   2.682   0.000  0.00  0.00    +0.000 A 
ATOM     20  C   UNL     1       0.924   3.094   0.000  0.00  0.00    +0.000 A 
ATOM     21  C   UNL     1       1.639   2.682   0.000  0.00  0.00    +0.000 A 
ATOM     22  C   UNL     1       1.639   1.853   0.000  0.00  0.00    +0.000 A 
ATOM     23  F   UNL     1      -0.505   3.094   0.000  0.00  0.00    +0.000 F 
ATOM     24  F   UNL     1      -0.505   1.442   0.000  0.00  0.00    +0.000 F 
ENDBRANCH  16  17
ENDBRANCH  15  16
ENDBRANCH   4  15
BRANCH   6  25
ATOM     25  O   UNL     1      -1.220  -2.270   0.000  0.00  0.00    +0.000 OA
BRANCH  25  26
ATOM     26  C   UNL     1      -1.935  -1.858   0.000  0.00  0.00    +0.000 C 
ATOM     27  C   UNL     1      -1.935  -1.030   0.000  0.00  0.00    +0.000 C 
BRANCH  26  28
ATOM     28  C   UNL     1      -2.645  -2.270   0.000  0.00  0.00    +0.000 C 
ATOM     29  O   UNL     1      -2.645  -3.094   0.000  0.00  0.00    +0.000 OA
BRANCH  28  30
ATOM     30  C   UNL     1      -3.360  -1.858   0.000  0.00  0.00    +0.000 C 
ATOM     31  O   UNL     1      -4.075  -2.270   0.000  0.00  0.00    +0.000 OA
ENDBRANCH  28  30
ENDBRANCH  26  28
ENDBRANCH  25  26
ENDBRANCH   6  25
TORSDOF 9
