REMARK  Name = 
REMARK  1 active torsions:
REMARK  status: ('A' for Active; 'I' for Inactive)
REMARK    1  A    between atoms: C_6  and  C_7
REMARK                            x       y       z     vdW  Elec       q    Type
REMARK                         _______ _______ _______ _____ _____    ______ ____
ROOT
ATOM      1  C   UNL     1       3.611   0.226   0.000  0.00  0.00    +0.000 A 
ATOM      2  C   UNL     1       2.897  -0.187   0.000  0.00  0.00    +0.000 A 
ATOM      3  C   UNL     1       2.182   0.226   0.000  0.00  0.00    +0.000 A 
ATOM      4  C   UNL     1       2.182   1.051   0.000  0.00  0.00    +0.000 A 
ATOM      5  C   UNL     1       2.897   1.463   0.000  0.00  0.00    +0.000 A 
ATOM      6  C   UNL     1       3.611   1.051   0.000  0.00  0.00    +0.000 A 
ATOM      7  C   UNL     1       1.537   1.565   0.000  0.00  0.00    +0.000 C 
ATOM      8  C   UNL     1       1.305   0.638   0.000  0.00  0.00    +0.000 C 
ATOM      9  C   UNL     1       1.537  -0.288   0.000  0.00  0.00    +0.000 C 
ATOM     10  C   UNL     1       0.733  -0.105   0.000  0.00  0.00    +0.000 C 
ATOM     11  N   UNL     1       0.375   0.638   0.000  0.00  0.00    +0.000 NA
ATOM     12  C   UNL     1       0.733   1.382   0.000  0.00  0.00    +0.000 C 
ENDROOT
BRANCH   6  13
ATOM     13  C   UNL     1       4.325   1.463   0.000  0.00  0.00    +0.000 C 
ATOM     14  F   UNL     1       5.040   1.876   0.000  0.00  0.00    +0.000 F 
ATOM     15  F   UNL     1       3.913   2.178   0.000  0.00  0.00    +0.000 F 
ATOM     16  F   UNL     1       4.738   0.749   0.000  0.00  0.00    +0.000 F 
ENDBRANCH   6  13
TORSDOF 1
