REMARK  Name = 
REMARK  5 active torsions:
REMARK  status: ('A' for Active; 'I' for Inactive)
REMARK    1  A    between atoms: C_15  and  C_16
REMARK    2  A    between atoms: C_16  and  C_17
REMARK    3  A    between atoms: C_17  and  N_18
REMARK    4  A    between atoms: N_23  and  C_24
REMARK    5  A    between atoms: C_24  and  C_25
REMARK                            x       y       z     vdW  Elec       q    Type
REMARK                         _______ _______ _______ _____ _____    ______ ____
ROOT
ATOM      1  C   UNL     1      -2.501  -0.825   0.000  0.00  0.00    +0.000 A 
ATOM      2  C   UNL     1      -3.215  -0.412   0.000  0.00  0.00    +0.000 A 
ATOM      3  C   UNL     1      -3.930  -0.825   0.000  0.00  0.00    +0.000 A 
ATOM      4  C   UNL     1      -3.930  -1.650   0.000  0.00  0.00    +0.000 A 
ATOM      5  C   UNL     1      -3.215  -2.062   0.000  0.00  0.00    +0.000 A 
ATOM      6  C   UNL     1      -2.501  -1.650   0.000  0.00  0.00    +0.000 A 
ATOM      7  S   UNL     1      -1.786  -2.062   0.000  0.00  0.00    +0.000 S 
ATOM      8  C   UNL     1      -1.072  -1.650   0.000  0.00  0.00    +0.000 A 
ATOM      9  C   UNL     1      -1.072  -0.825   0.000  0.00  0.00    +0.000 A 
ATOM     10  C   UNL     1      -1.786  -0.412   0.000  0.00  0.00    +0.000 C 
ATOM     11  C   UNL     1      -0.357  -0.412   0.000  0.00  0.00    +0.000 A 
ATOM     12  C   UNL     1      -0.357  -2.062   0.000  0.00  0.00    +0.000 A 
ATOM     13  C   UNL     1       0.357  -1.650   0.000  0.00  0.00    +0.000 A 
ATOM     14  C   UNL     1       0.357  -0.825   0.000  0.00  0.00    +0.000 A 
ATOM     15  C   UNL     1      -1.786   0.412   0.000  0.00  0.00    +0.000 C 
ATOM     16 CL   UNL     1       1.072  -0.412   0.000  0.00  0.00    +0.000 Cl
ENDROOT
BRANCH  15  17
ATOM     17  C   UNL     1      -1.072   0.825   0.000  0.00  0.00    +0.000 C 
BRANCH  17  18
ATOM     18  C   UNL     1      -0.357   0.412   0.000  0.00  0.00    +0.000 C 
BRANCH  18  19
ATOM     19  N   UNL     1       0.357   0.825   0.000  0.00  0.00    +0.000 NA
ATOM     20  C   UNL     1       1.072   2.062   0.000  0.00  0.00    +0.000 C 
ATOM     21  C   UNL     1       0.357   1.650   0.000  0.00  0.00    +0.000 C 
ATOM     22  C   UNL     1       1.072   0.412   0.000  0.00  0.00    +0.000 C 
ATOM     23  C   UNL     1       1.786   0.825   0.000  0.00  0.00    +0.000 C 
ATOM     24  N   UNL     1       1.786   1.650   0.000  0.00  0.00    +0.000 NA
BRANCH  24  25
ATOM     25  C   UNL     1       2.501   2.062   0.000  0.00  0.00    +0.000 C 
BRANCH  25  26
ATOM     26  C   UNL     1       3.215   1.650   0.000  0.00  0.00    +0.000 C 
ATOM     27  O   UNL     1       3.930   2.062   0.000  0.00  0.00    +0.000 OA
ENDBRANCH  25  26
ENDBRANCH  24  25
ENDBRANCH  18  19
ENDBRANCH  17  18
ENDBRANCH  15  17
TORSDOF 5
