REMARK  Name = 
REMARK  4 active torsions:
REMARK  status: ('A' for Active; 'I' for Inactive)
REMARK    1  A    between atoms: C_7  and  C_9
REMARK    2  A    between atoms: C_8  and  C_9
REMARK    3  A    between atoms: C_9  and  C_10
REMARK    4  A    between atoms: C_10  and  C_21
REMARK                            x       y       z     vdW  Elec       q    Type
REMARK                         _______ _______ _______ _____ _____    ______ ____
ROOT
ATOM      1  C   UNL     1       1.099  -0.037   0.000  0.00  0.00    +0.000 A 
ATOM      2  C   UNL     1       1.814   0.375   0.000  0.00  0.00    +0.000 A 
ATOM      3  C   UNL     1       1.814   1.200   0.000  0.00  0.00    +0.000 A 
ATOM      4  C   UNL     1       1.099   1.612   0.000  0.00  0.00    +0.000 A 
ATOM      5  C   UNL     1       0.385   0.375   0.000  0.00  0.00    +0.000 A 
ATOM      6  C   UNL     1       0.385   1.200   0.000  0.00  0.00    +0.000 A 
ATOM      7  C   UNL     1      -1.044   0.375   0.000  0.00  0.00    +0.000 A 
ATOM      8  C   UNL     1      -0.330  -0.037   0.000  0.00  0.00    +0.000 A 
ATOM      9  O   UNL     1      -0.330  -0.863   0.000  0.00  0.00    +0.000 OA
ATOM     10  O   UNL     1      -0.330   1.612   0.000  0.00  0.00    +0.000 OA
ATOM     11  C   UNL     1      -1.044   1.200   0.000  0.00  0.00    +0.000 A 
ATOM     12  O   UNL     1      -1.759   1.612   0.000  0.00  0.00    +0.000 OA
ENDROOT
BRANCH   7  13
ATOM     13  C   UNL     1      -1.759  -0.037   0.000  0.00  0.00    +0.000 C 
BRANCH  13  14
ATOM     14  C   UNL     1      -2.473   0.375   0.000  0.00  0.00    +0.000 A 
ATOM     15  C   UNL     1      -3.188  -0.037   0.000  0.00  0.00    +0.000 A 
ATOM     16  C   UNL     1      -2.473   1.200   0.000  0.00  0.00    +0.000 A 
ATOM     17  C   UNL     1      -3.187   1.613   0.000  0.00  0.00    +0.000 A 
ATOM     18  C   UNL     1      -3.902   1.200   0.000  0.00  0.00    +0.000 A 
ATOM     19  C   UNL     1      -3.902   0.375   0.000  0.00  0.00    +0.000 A 
ENDBRANCH  13  14
BRANCH  13  20
ATOM     20  C   UNL     1      -1.759  -0.863   0.000  0.00  0.00    +0.000 C 
BRANCH  20  21
ATOM     21  C   UNL     1      -2.473  -1.275   0.000  0.00  0.00    +0.000 C 
ATOM     22  O   UNL     1      -3.188  -0.862   0.000  0.00  0.00    +0.000 OA
ATOM     23  C   UNL     1      -2.473  -2.100   0.000  0.00  0.00    +0.000 C 
ENDBRANCH  20  21
ENDBRANCH  13  20
ENDBRANCH   7  13
TORSDOF 4
