REMARK  Name = 
REMARK  0 active torsions:
REMARK  status: ('A' for Active; 'I' for Inactive)
REMARK                            x       y       z     vdW  Elec       q    Type
REMARK                         _______ _______ _______ _____ _____    ______ ____
ROOT
ATOM      1 IN   UNL     1       0.035   0.227   0.000  0.00  0.00    +0.000 In
ENDROOT
TORSDOF 0
REMARK  Name = 
REMARK  0 active torsions:
REMARK  status: ('A' for Active; 'I' for Inactive)
REMARK                            x       y       z     vdW  Elec       q    Type
REMARK                         _______ _______ _______ _____ _____    ______ ____
ROOT
ATOM      1  O   UNL     1      -0.874  -0.763   0.000  0.00  0.00    +0.000 OA
ATOM      2  N   UNL     1      -0.874   0.887   0.000  0.00  0.00    +0.000 NA
ATOM      3  C   UNL     1      -1.588   0.474   0.000  0.00  0.00    +0.000 A 
ATOM      4  C   UNL     1      -2.303   0.887   0.000  0.00  0.00    +0.000 A 
ATOM      5  C   UNL     1      -1.588  -0.351   0.000  0.00  0.00    +0.000 A 
ATOM      6  C   UNL     1      -3.017   0.474   0.000  0.00  0.00    +0.000 A 
ATOM      7  C   UNL     1      -2.303   1.712   0.000  0.00  0.00    +0.000 A 
ATOM      8  C   UNL     1      -2.303  -0.763   0.000  0.00  0.00    +0.000 A 
ATOM      9  C   UNL     1      -3.017  -0.351   0.000  0.00  0.00    +0.000 A 
ATOM     10  C   UNL     1      -0.874   1.712   0.000  0.00  0.00    +0.000 A 
ATOM     11  C   UNL     1      -1.588   2.124   0.000  0.00  0.00    +0.000 A 
ENDROOT
TORSDOF 0
REMARK  Name = 
REMARK  0 active torsions:
REMARK  status: ('A' for Active; 'I' for Inactive)
REMARK                            x       y       z     vdW  Elec       q    Type
REMARK                         _______ _______ _______ _____ _____    ______ ____
ROOT
ATOM      1  O   UNL     1       0.159   1.258   0.000  0.00  0.00    +0.000 OA
ATOM      2  N   UNL     1       1.588   0.433   0.000  0.00  0.00    +0.000 NA
ATOM      3  C   UNL     1       1.588   1.258   0.000  0.00  0.00    +0.000 A 
ATOM      4  C   UNL     1       2.303   1.671   0.000  0.00  0.00    +0.000 A 
ATOM      5  C   UNL     1       0.874   1.671   0.000  0.00  0.00    +0.000 A 
ATOM      6  C   UNL     1       2.303   2.495   0.000  0.00  0.00    +0.000 A 
ATOM      7  C   UNL     1       3.017   1.258   0.000  0.00  0.00    +0.000 A 
ATOM      8  C   UNL     1       0.874   2.495   0.000  0.00  0.00    +0.000 A 
ATOM      9  C   UNL     1       1.588   2.908   0.000  0.00  0.00    +0.000 A 
ATOM     10  C   UNL     1       2.303   0.021   0.000  0.00  0.00    +0.000 A 
ATOM     11  C   UNL     1       3.017   0.433   0.000  0.00  0.00    +0.000 A 
ENDROOT
TORSDOF 0
REMARK  Name = 
REMARK  0 active torsions:
REMARK  status: ('A' for Active; 'I' for Inactive)
REMARK                            x       y       z     vdW  Elec       q    Type
REMARK                         _______ _______ _______ _____ _____    ______ ____
ROOT
ATOM      1  O   UNL     1       1.519  -0.433   0.000  0.00  0.00    +0.000 OA
ATOM      2  N   UNL     1       0.090  -1.258   0.000  0.00  0.00    +0.000 NA
ATOM      3  C   UNL     1       0.804  -1.671   0.000  0.00  0.00    +0.000 A 
ATOM      4  C   UNL     1       0.804  -2.495   0.000  0.00  0.00    +0.000 A 
ATOM      5  C   UNL     1       1.519  -1.258   0.000  0.00  0.00    +0.000 A 
ATOM      6  C   UNL     1       1.519  -2.908   0.000  0.00  0.00    +0.000 A 
ATOM      7  C   UNL     1       0.090  -2.908   0.000  0.00  0.00    +0.000 A 
ATOM      8  C   UNL     1       2.233  -1.671   0.000  0.00  0.00    +0.000 A 
ATOM      9  C   UNL     1       2.233  -2.495   0.000  0.00  0.00    +0.000 A 
ATOM     10  C   UNL     1      -0.625  -1.671   0.000  0.00  0.00    +0.000 A 
ATOM     11  C   UNL     1      -0.625  -2.495   0.000  0.00  0.00    +0.000 A 
ENDROOT
TORSDOF 0
