REMARK  Name = 
REMARK  7 active torsions:
REMARK  status: ('A' for Active; 'I' for Inactive)
REMARK    1  A    between atoms: C_2  and  C_3
REMARK    2  A    between atoms: C_2  and  C_15
REMARK    3  A    between atoms: C_8  and  O_13
REMARK    4  A    between atoms: C_15  and  O_17
REMARK    5  A    between atoms: O_17  and  C_18
REMARK    6  A    between atoms: C_18  and  C_19
REMARK    7  A    between atoms: C_19  and  S_20
REMARK                            x       y       z     vdW  Elec       q    Type
REMARK                         _______ _______ _______ _____ _____    ______ ____
ROOT
ATOM      1  C   UNL     1       0.715  -1.238   0.000  0.00  0.00    +0.000 A 
ATOM      2  C   UNL     1       0.715  -0.412   0.000  0.00  0.00    +0.000 A 
ATOM      3  C   UNL     1       1.429   0.000   0.000  0.00  0.00    +0.000 A 
ATOM      4  C   UNL     1       2.143  -0.412   0.000  0.00  0.00    +0.000 A 
ATOM      5  C   UNL     1       2.858   0.000   0.000  0.00  0.00    +0.000 A 
ATOM      6  C   UNL     1       3.572  -0.412   0.000  0.00  0.00    +0.000 A 
ATOM      7  C   UNL     1       3.572  -1.238   0.000  0.00  0.00    +0.000 A 
ATOM      8  C   UNL     1       2.858  -1.650   0.000  0.00  0.00    +0.000 A 
ATOM      9  C   UNL     1       2.143  -1.238   0.000  0.00  0.00    +0.000 A 
ATOM     10  C   UNL     1       1.429  -1.650   0.000  0.00  0.00    +0.000 A 
ENDROOT
BRANCH   6  11
ATOM     11  O   UNL     1       4.287   0.000   0.000  0.00  0.00    +0.000 OA
ATOM     12  C   UNL     1       5.001  -0.412   0.000  0.00  0.00    +0.000 C 
ENDBRANCH   6  11
BRANCH   1  14
ATOM     13  C   UNL     1      -0.715  -1.238   0.000  0.00  0.00    +0.000 C 
ATOM     14  C   UNL     1       0.000  -1.650   0.000  0.00  0.00    +0.000 C 
BRANCH  14  15
ATOM     15  C   UNL     1       0.000  -2.475   0.000  0.00  0.00    +0.000 C 
ATOM     16  O   UNL     1       0.715  -2.888   0.000  0.00  0.00    +0.000 OA
BRANCH  15  17
ATOM     17  O   UNL     1      -0.715  -2.888   0.000  0.00  0.00    +0.000 OA
BRANCH  17  18
ATOM     18  C   UNL     1      -0.715  -3.712   0.000  0.00  0.00    +0.000 C 
BRANCH  18  19
ATOM     19  C   UNL     1      -1.429  -4.125   0.000  0.00  0.00    +0.000 C 
BRANCH  19  20
ATOM     20  S   UNL     1      -1.429  -4.950   0.000  0.00  0.00    +0.000 S 
ATOM     21  O   UNL     1      -1.429  -5.775   0.000  0.00  0.00    +0.000 OA
ATOM     22  O   UNL     1      -2.254  -4.950   0.000  0.00  0.00    +0.000 OA
ATOM     23  C   UNL     1      -0.604  -4.950   0.000  0.00  0.00    +0.000 C 
ENDBRANCH  19  20
ENDBRANCH  18  19
ENDBRANCH  17  18
ENDBRANCH  15  17
ENDBRANCH  14  15
ENDBRANCH   1  14
TORSDOF 7
