REMARK  Name = 
REMARK  3 active torsions:
REMARK  status: ('A' for Active; 'I' for Inactive)
REMARK    1  A    between atoms: N_2  and  C_5
REMARK    2  A    between atoms: C_5  and  C_6
REMARK    3  A    between atoms: C_12  and  C_14
REMARK                            x       y       z     vdW  Elec       q    Type
REMARK                         _______ _______ _______ _____ _____    ______ ____
ROOT
ATOM      1  C   UNL     1       1.296  -0.204   0.000  0.00  0.00    +0.000 C 
ATOM      2  N   UNL     1       0.471  -0.204   0.000  0.00  0.00    +0.000 N 
ATOM      3  C   UNL     1       0.471   0.621   0.000  0.00  0.00    +0.000 C 
ATOM      4  C   UNL     1       0.471  -1.029   0.000  0.00  0.00    +0.000 C 
ENDROOT
BRANCH   2   5
ATOM      5  C   UNL     1      -0.354  -0.204   0.000  0.00  0.00    +0.000 C 
BRANCH   5   6
ATOM      6  C   UNL     1      -0.766   0.510   0.000  0.00  0.00    +0.000 C 
ATOM      7  O   UNL     1      -1.591   0.510   0.000  0.00  0.00    +0.000 OA
ENDBRANCH   5   6
ENDBRANCH   2   5
TORSDOF 2
REMARK  Name = 
REMARK  3 active torsions:
REMARK  status: ('A' for Active; 'I' for Inactive)
REMARK    1  A    between atoms: N_2  and  C_5
REMARK    2  A    between atoms: C_5  and  C_6
REMARK    3  A    between atoms: C_12  and  C_14
REMARK                            x       y       z     vdW  Elec       q    Type
REMARK                         _______ _______ _______ _____ _____    ______ ____
ROOT
ATOM      1  C   UNL     1       5.326  -1.073   0.000  0.00  0.00    +0.000 A 
ATOM      2  C   UNL     1       4.611  -1.485   0.000  0.00  0.00    +0.000 A 
ATOM      3  C   UNL     1       3.897  -1.073   0.000  0.00  0.00    +0.000 A 
ATOM      4  C   UNL     1       3.897  -0.247   0.000  0.00  0.00    +0.000 A 
ATOM      5  C   UNL     1       4.611   0.165   0.000  0.00  0.00    +0.000 A 
ATOM      6  C   UNL     1       5.326  -0.247   0.000  0.00  0.00    +0.000 A 
ATOM      7  O   UNL     1       3.182   0.165   0.000  0.00  0.00    +0.000 OA
ENDROOT
BRANCH   5   8
ATOM      8  C   UNL     1       4.611   0.990   0.000  0.00  0.00    +0.000 C 
ATOM      9  O   UNL     1       3.897   1.403   0.000  0.00  0.00    +0.000 OA
ATOM     10  O   UNL     1       5.326   1.403   0.000  0.00  0.00    +0.000 OA
ENDBRANCH   5   8
TORSDOF 1
