REMARK  Name = 
REMARK  4 active torsions:
REMARK  status: ('A' for Active; 'I' for Inactive)
REMARK    1  A    between atoms: O_2  and  C_3
REMARK    2  A    between atoms: C_9  and  C_10
REMARK    3  A    between atoms: N_18  and  C_19
REMARK    4  A    between atoms: N_21  and  C_24
REMARK                            x       y       z     vdW  Elec       q    Type
REMARK                         _______ _______ _______ _____ _____    ______ ____
ROOT
ATOM      1  C   UNL     1       1.139  -1.365   0.000  0.00  0.00    +0.000 A 
ATOM      2  C   UNL     1       0.654  -0.698   0.000  0.00  0.00    +0.000 A 
ATOM      3  C   UNL     1      -0.171  -0.698   0.000  0.00  0.00    +0.000 C 
ATOM      4  S   UNL     1       1.139  -0.030   0.000  0.00  0.00    +0.000 S 
ATOM      5  C   UNL     1       1.923  -0.285   0.000  0.00  0.00    +0.000 A 
ATOM      6  C   UNL     1       2.638   0.127   0.000  0.00  0.00    +0.000 A 
ATOM      7  N   UNL     1       3.352  -0.285   0.000  0.00  0.00    +0.000 NA
ATOM      8  C   UNL     1       3.352  -1.110   0.000  0.00  0.00    +0.000 A 
ATOM      9  N   UNL     1       4.067  -1.523   0.000  0.00  0.00    +0.000 NA
ATOM     10  N   UNL     1       2.638  -1.523   0.000  0.00  0.00    +0.000 NA
ATOM     11  C   UNL     1       1.923  -1.110   0.000  0.00  0.00    +0.000 A 
ENDROOT
BRANCH   1  18
ATOM     12  C   UNL     1       1.436  -2.763   0.000  0.00  0.00    +0.000 A 
ATOM     13  C   UNL     1       1.181  -3.548   0.000  0.00  0.00    +0.000 A 
ATOM     14  C   UNL     1       0.374  -3.719   0.000  0.00  0.00    +0.000 A 
ATOM     15  F   UNL     1       0.119  -4.504   0.000  0.00  0.00    +0.000 F 
ATOM     16  C   UNL     1      -0.178  -3.106   0.000  0.00  0.00    +0.000 A 
ATOM     17  C   UNL     1       0.077  -2.321   0.000  0.00  0.00    +0.000 A 
ATOM     18  C   UNL     1       0.884  -2.150   0.000  0.00  0.00    +0.000 A 
BRANCH  12  20
ATOM     19  C   UNL     1       2.795  -3.205   0.000  0.00  0.00    +0.000 C 
ATOM     20  O   UNL     1       2.243  -2.592   0.000  0.00  0.00    +0.000 OA
ENDBRANCH  12  20
ENDBRANCH   1  18
BRANCH   9  21
ATOM     21  C   UNL     1       4.067  -2.348   0.000  0.00  0.00    +0.000 A 
ATOM     22  C   UNL     1       4.734  -2.833   0.000  0.00  0.00    +0.000 A 
ATOM     23  N   UNL     1       4.479  -3.618   0.000  0.00  0.00    +0.000 N 
ATOM     24  N   UNL     1       3.654  -3.618   0.000  0.00  0.00    +0.000 NA
ATOM     25  C   UNL     1       3.399  -2.833   0.000  0.00  0.00    +0.000 A 
BRANCH  23  26
ATOM     26  C   UNL     1       4.964  -4.285   0.000  0.00  0.00    +0.000 C 
ATOM     27  C   UNL     1       5.785  -4.199   0.000  0.00  0.00    +0.000 C 
ATOM     28  C   UNL     1       6.270  -4.866   0.000  0.00  0.00    +0.000 C 
ATOM     29  N   UNL     1       5.934  -5.620   0.000  0.00  0.00    +0.000 NA
ATOM     30  C   UNL     1       5.114  -5.706   0.000  0.00  0.00    +0.000 C 
ATOM     31  C   UNL     1       4.629  -5.039   0.000  0.00  0.00    +0.000 C 
ENDBRANCH  23  26
ENDBRANCH   9  21
TORSDOF 4
