REMARK  Name = 
REMARK  5 active torsions:
REMARK  status: ('A' for Active; 'I' for Inactive)
REMARK    1  A    between atoms: C_1  and  C_2
REMARK    2  A    between atoms: C_1  and  C_3
REMARK    3  A    between atoms: C_2  and  C_4
REMARK    4  A    between atoms: C_3  and  C_5
REMARK    5  A    between atoms: C_4  and  C_6
REMARK                            x       y       z     vdW  Elec       q    Type
REMARK                         _______ _______ _______ _____ _____    ______ ____
ROOT
ATOM      1  C   UNL     1       0.000  -0.206   0.000  0.00  0.00    +0.000 C 
ATOM      2  O   UNL     1       0.000  -1.031   0.000  0.00  0.00    +0.000 OA
ENDROOT
BRANCH   1   3
ATOM      3  C   UNL     1      -0.714   0.206   0.000  0.00  0.00    +0.000 C 
ATOM      4  O   UNL     1      -0.714   1.031   0.000  0.00  0.00    +0.000 OA
BRANCH   3   5
ATOM      5  C   UNL     1      -1.429  -0.206   0.000  0.00  0.00    +0.000 C 
ATOM      6  O   UNL     1      -1.429  -1.031   0.000  0.00  0.00    +0.000 OA
BRANCH   5   7
ATOM      7  C   UNL     1      -2.143   0.206   0.000  0.00  0.00    +0.000 C 
ATOM      8  O   UNL     1      -2.858  -0.206   0.000  0.00  0.00    +0.000 OA
ATOM      9  O   UNL     1      -2.143   1.031   0.000  0.00  0.00    +0.000 OA
ENDBRANCH   5   7
ENDBRANCH   3   5
ENDBRANCH   1   3
BRANCH   1  10
ATOM     10  C   UNL     1       0.714   0.206   0.000  0.00  0.00    +0.000 C 
ATOM     11  O   UNL     1       0.714   1.031   0.000  0.00  0.00    +0.000 OA
BRANCH  10  12
ATOM     12  C   UNL     1       1.429  -0.206   0.000  0.00  0.00    +0.000 C 
ATOM     13  O   UNL     1       1.429  -1.031   0.000  0.00  0.00    +0.000 OA
ATOM     14  O   UNL     1       2.143   0.206   0.000  0.00  0.00    +0.000 OA
ENDBRANCH  10  12
ENDBRANCH   1  10
TORSDOF 5
REMARK  Name = 
REMARK  5 active torsions:
REMARK  status: ('A' for Active; 'I' for Inactive)
REMARK    1  A    between atoms: C_1  and  C_2
REMARK    2  A    between atoms: C_1  and  C_3
REMARK    3  A    between atoms: C_2  and  C_4
REMARK    4  A    between atoms: C_3  and  C_5
REMARK    5  A    between atoms: C_4  and  C_6
REMARK                            x       y       z     vdW  Elec       q    Type
REMARK                         _______ _______ _______ _____ _____    ______ ____
ROOT
ATOM      1 CA   UNL     1       2.858   0.619   0.000  0.00  0.00    +0.000 Ca
ENDROOT
TORSDOF 0
