REMARK  Name = 
REMARK  5 active torsions:
REMARK  status: ('A' for Active; 'I' for Inactive)
REMARK    1  A    between atoms: C_2  and  C_3
REMARK    2  A    between atoms: C_9  and  N_11
REMARK    3  A    between atoms: C_14  and  C_16
REMARK    4  A    between atoms: C_19  and  O_22
REMARK    5  A    between atoms: O_22  and  C_23
REMARK                            x       y       z     vdW  Elec       q    Type
REMARK                         _______ _______ _______ _____ _____    ______ ____
ROOT
ATOM      1  N   UNL     1      -0.143  -1.365   0.000  0.00  0.00    +0.000 N 
ATOM      2  C   UNL     1       0.641  -1.110   0.000  0.00  0.00    +0.000 A 
ATOM      3  C   UNL     1       0.641  -0.285   0.000  0.00  0.00    +0.000 A 
ATOM      4  C   UNL     1      -0.143  -0.030   0.000  0.00  0.00    +0.000 A 
ATOM      5  N   UNL     1      -0.628  -0.698   0.000  0.00  0.00    +0.000 NA
ATOM      6  C   UNL     1       1.355   0.127   0.000  0.00  0.00    +0.000 A 
ATOM      7  N   UNL     1       2.070  -0.285   0.000  0.00  0.00    +0.000 NA
ATOM      8  C   UNL     1       2.070  -1.110   0.000  0.00  0.00    +0.000 A 
ATOM      9  N   UNL     1       1.355  -1.523   0.000  0.00  0.00    +0.000 NA
ATOM     10  N   UNL     1       1.355   0.952   0.000  0.00  0.00    +0.000 NA
ENDROOT
BRANCH   1  17
ATOM     11  C   UNL     1       0.451  -4.161   0.000  0.00  0.00    +0.000 C 
ATOM     12  O   UNL     1       1.258  -3.989   0.000  0.00  0.00    +0.000 OA
ATOM     13  N   UNL     1      -0.101  -3.548   0.000  0.00  0.00    +0.000 N 
ATOM     14  C   UNL     1      -0.908  -3.719   0.000  0.00  0.00    +0.000 C 
ATOM     15  C   UNL     1      -1.460  -3.106   0.000  0.00  0.00    +0.000 C 
ATOM     16  C   UNL     1      -1.205  -2.321   0.000  0.00  0.00    +0.000 C 
ATOM     17  C   UNL     1      -0.398  -2.150   0.000  0.00  0.00    +0.000 C 
ATOM     18  C   UNL     1       0.153  -2.763   0.000  0.00  0.00    +0.000 C 
BRANCH  11  20
ATOM     19  C   UNL     1       0.748  -5.559   0.000  0.00  0.00    +0.000 C 
ATOM     20  C   UNL     1       0.196  -4.945   0.000  0.00  0.00    +0.000 C 
ENDBRANCH  11  20
ENDBRANCH   1  17
BRANCH   4  21
ATOM     21  C   UNL     1      -0.398   0.754   0.000  0.00  0.00    +0.000 A 
ATOM     22  C   UNL     1      -1.205   0.926   0.000  0.00  0.00    +0.000 A 
ATOM     23  C   UNL     1      -1.460   1.710   0.000  0.00  0.00    +0.000 A 
ATOM     24  C   UNL     1      -0.908   2.323   0.000  0.00  0.00    +0.000 A 
ATOM     25  C   UNL     1      -0.101   2.152   0.000  0.00  0.00    +0.000 A 
ATOM     26  C   UNL     1       0.153   1.367   0.000  0.00  0.00    +0.000 A 
BRANCH  24  27
ATOM     27  O   UNL     1      -1.163   3.108   0.000  0.00  0.00    +0.000 OA
BRANCH  27  28
ATOM     28  C   UNL     1      -0.611   3.721   0.000  0.00  0.00    +0.000 A 
ATOM     29  C   UNL     1      -0.866   4.506   0.000  0.00  0.00    +0.000 A 
ATOM     30  C   UNL     1      -0.314   5.119   0.000  0.00  0.00    +0.000 A 
ATOM     31  C   UNL     1       0.493   4.947   0.000  0.00  0.00    +0.000 A 
ATOM     32  C   UNL     1       0.748   4.163   0.000  0.00  0.00    +0.000 A 
ATOM     33  C   UNL     1       0.196   3.550   0.000  0.00  0.00    +0.000 A 
ENDBRANCH  27  28
ENDBRANCH  24  27
ENDBRANCH   4  21
TORSDOF 5
