REMARK  Name = 
REMARK  11 active torsions:
REMARK  status: ('A' for Active; 'I' for Inactive)
REMARK    1  A    between atoms: C_1  and  C_2
REMARK    2  A    between atoms: C_1  and  C_3
REMARK    3  A    between atoms: C_2  and  C_6
REMARK    4  A    between atoms: C_10  and  O_12
REMARK    5  A    between atoms: O_12  and  C_13
REMARK    6  A    between atoms: C_13  and  C_14
REMARK    7  A    between atoms: C_14  and  C_15
REMARK    8  A    between atoms: C_15  and  N_16
REMARK    9  A    between atoms: N_16  and  C_18
REMARK   10  A    between atoms: C_18  and  C_19
REMARK   11  A    between atoms: C_19  and  C_22
REMARK                            x       y       z     vdW  Elec       q    Type
REMARK                         _______ _______ _______ _____ _____    ______ ____
ROOT
ATOM      1  C   UNL     1       0.153   0.831   0.000  0.00  0.00    +0.000 C 
ATOM      2  O   UNL     1       0.151   1.656   0.000  0.00  0.00    +0.000 OA
ENDROOT
BRANCH   1   3
ATOM      3  C   UNL     1      -0.560   0.416   0.000  0.00  0.00    +0.000 C 
BRANCH   3   4
ATOM      4  O   UNL     1      -1.276   0.826   0.000  0.00  0.00    +0.000 OA
BRANCH   4   9
ATOM      5  C   UNL     1      -3.414   0.408   0.000  0.00  0.00    +0.000 A 
ATOM      6  C   UNL     1      -3.416  -0.418   0.000  0.00  0.00    +0.000 A 
ATOM      7  C   UNL     1      -2.702  -0.831   0.000  0.00  0.00    +0.000 A 
ATOM      8  C   UNL     1      -1.986  -0.418   0.000  0.00  0.00    +0.000 A 
ATOM      9  C   UNL     1      -1.989   0.411   0.000  0.00  0.00    +0.000 A 
ATOM     10  C   UNL     1      -2.703   0.820   0.000  0.00  0.00    +0.000 A 
ATOM     11  F   UNL     1      -1.271  -0.830   0.000  0.00  0.00    +0.000 F 
ATOM     12  F   UNL     1      -2.702  -1.656   0.000  0.00  0.00    +0.000 F 
BRANCH   5  13
ATOM     13  C   UNL     1      -4.128   0.820   0.000  0.00  0.00    +0.000 C 
BRANCH  13  14
ATOM     14  C   UNL     1      -4.843   0.408   0.000  0.00  0.00    +0.000 C 
BRANCH  14  15
ATOM     15  C   UNL     1      -5.558   0.820   0.000  0.00  0.00    +0.000 C 
ATOM     16  O   UNL     1      -6.272   0.408   0.000  0.00  0.00    +0.000 OA
ATOM     17  O   UNL     1      -5.558   1.645   0.000  0.00  0.00    +0.000 OA
ENDBRANCH  14  15
ENDBRANCH  13  14
ENDBRANCH   5  13
ENDBRANCH   4   9
ENDBRANCH   3   4
ENDBRANCH   1   3
BRANCH   1  18
ATOM     18  C   UNL     1       0.870   0.421   0.000  0.00  0.00    +0.000 C 
BRANCH  18  19
ATOM     19  N   UNL     1       1.583   0.836   0.000  0.00  0.00    +0.000 NA
BRANCH  19  20
ATOM     20  C   UNL     1       2.299   0.426   0.000  0.00  0.00    +0.000 C 
ATOM     21  C   UNL     1       1.877  -0.280   0.000  0.00  0.00    +0.000 C 
ATOM     22  C   UNL     1       2.703  -0.280   0.000  0.00  0.00    +0.000 C 
BRANCH  20  23
ATOM     23  C   UNL     1       3.012   0.841   0.000  0.00  0.00    +0.000 C 
BRANCH  23  24
ATOM     24  C   UNL     1       3.728   0.431   0.000  0.00  0.00    +0.000 C 
ATOM     25  C   UNL     1       3.821  -0.386   0.000  0.00  0.00    +0.000 C 
ATOM     26  C   UNL     1       4.484   0.773   0.000  0.00  0.00    +0.000 C 
ATOM     27  C   UNL     1       5.039   0.162   0.000  0.00  0.00    +0.000 A 
ATOM     28  C   UNL     1       4.627  -0.552   0.000  0.00  0.00    +0.000 A 
ATOM     29  C   UNL     1       5.038  -1.263   0.000  0.00  0.00    +0.000 A 
ATOM     30  C   UNL     1       5.862  -1.263   0.000  0.00  0.00    +0.000 A 
ATOM     31  C   UNL     1       6.272  -0.544   0.000  0.00  0.00    +0.000 A 
ATOM     32  C   UNL     1       5.858   0.164   0.000  0.00  0.00    +0.000 A 
ENDBRANCH  23  24
ENDBRANCH  20  23
ENDBRANCH  19  20
ENDBRANCH  18  19
ENDBRANCH   1  18
TORSDOF 11
