REMARK  Name = 
REMARK  5 active torsions:
REMARK  status: ('A' for Active; 'I' for Inactive)
REMARK    1  A    between atoms: S_1  and  N_10
REMARK    2  A    between atoms: O_2  and  C_18
REMARK    3  A    between atoms: O_2  and  C_20
REMARK    4  A    between atoms: N_10  and  C_21
REMARK    5  A    between atoms: C_11  and  C_16
REMARK                            x       y       z     vdW  Elec       q    Type
REMARK                         _______ _______ _______ _____ _____    ______ ____
ROOT
ATOM      1  O   UNL     1      -2.887  -0.055   0.000  0.00  0.00    +0.000 OA
ATOM      2  N   UNL     1      -1.458  -0.055   0.000  0.00  0.00    +0.000 N 
ATOM      3  C   UNL     1      -1.458   0.770   0.000  0.00  0.00    +0.000 C 
ATOM      4  C   UNL     1      -0.743   1.182   0.000  0.00  0.00    +0.000 C 
ATOM      5  C   UNL     1      -0.743  -0.468   0.000  0.00  0.00    +0.000 C 
ATOM      6  C   UNL     1      -0.029   0.770   0.000  0.00  0.00    +0.000 A 
ATOM      7  C   UNL     1      -0.029  -0.055   0.000  0.00  0.00    +0.000 A 
ATOM      8  C   UNL     1       0.709  -0.496   0.000  0.00  0.00    +0.000 A 
ATOM      9  C   UNL     1      -2.172  -0.468   0.000  0.00  0.00    +0.000 C 
ATOM     10  C   UNL     1       0.709   1.211   0.000  0.00  0.00    +0.000 A 
ATOM     11  C   UNL     1       1.456  -0.072   0.000  0.00  0.00    +0.000 A 
ATOM     12  C   UNL     1       1.456   0.787   0.000  0.00  0.00    +0.000 A 
ENDROOT
BRANCH   3  15
ATOM     13  O   UNL     1      -2.887   0.770   0.000  0.00  0.00    +0.000 OA
ATOM     14  N   UNL     1      -2.172   2.007   0.000  0.00  0.00    +0.000 N 
ATOM     15  C   UNL     1      -2.172   1.182   0.000  0.00  0.00    +0.000 C 
ATOM     16  C   UNL     1      -2.887   2.420   0.000  0.00  0.00    +0.000 C 
ATOM     17  H   UNL     1      -1.729   2.263   0.000  0.00  0.00    +0.000 HD
ENDBRANCH   3  15
BRANCH  11  18
ATOM     18  N   UNL     1       2.169  -0.488   0.000  0.00  0.00    +0.000 N 
ATOM     19  H   UNL     1       2.167  -0.999   0.000  0.00  0.00    +0.000 HD
BRANCH  18  20
ATOM     20  S   UNL     1       2.885  -0.078   0.000  0.00  0.00    +0.000 S 
ATOM     21  O   UNL     1       3.601   0.332   0.000  0.00  0.00    +0.000 OA
ATOM     22  O   UNL     1       2.475   0.638   0.000  0.00  0.00    +0.000 OA
ATOM     23  O   UNL     1       3.295  -0.794   0.000  0.00  0.00    +0.000 OA
ENDBRANCH  18  20
ENDBRANCH  11  18
BRANCH   9  24
ATOM     24  O   UNL     1      -2.172  -1.293   0.000  0.00  0.00    +0.000 OA
BRANCH  24  25
ATOM     25  C   UNL     1      -2.887  -1.705   0.000  0.00  0.00    +0.000 C 
ATOM     26  C   UNL     1      -3.299  -0.991   0.000  0.00  0.00    +0.000 C 
ATOM     27  C   UNL     1      -2.474  -2.420   0.000  0.00  0.00    +0.000 C 
ATOM     28  C   UNL     1      -3.601  -2.118   0.000  0.00  0.00    +0.000 C 
ENDBRANCH  24  25
ENDBRANCH   9  24
TORSDOF 5
