REMARK  Name = 
REMARK  4 active torsions:
REMARK  status: ('A' for Active; 'I' for Inactive)
REMARK    1  A    between atoms: C_5  and  C_7
REMARK    2  A    between atoms: C_7  and  C_8
REMARK    3  A    between atoms: C_7  and  N_15
REMARK    4  A    between atoms: C_21  and  C_23
REMARK                            x       y       z     vdW  Elec       q    Type
REMARK                         _______ _______ _______ _____ _____    ______ ____
ROOT
ATOM      1  C   UNL     1       1.960  -0.039   0.000  0.00  0.00    +0.000 C 
ENDROOT
BRANCH   1   2
ATOM      2  N   UNL     1       1.394  -0.000   0.000  0.00  0.00    +0.000 NA
ATOM      3  C   UNL     1       1.162   0.927   0.000  0.00  0.00    +0.000 C 
ATOM      4  C   UNL     1       0.517   0.412   0.000  0.00  0.00    +0.000 C 
ATOM      5  C   UNL     1       0.517  -0.413   0.000  0.00  0.00    +0.000 C 
ATOM      6  C   UNL     1       1.162  -0.927   0.000  0.00  0.00    +0.000 C 
ATOM      7  C   UNL     1       1.967  -0.743   0.000  0.00  0.00    +0.000 C 
ATOM      8  C   UNL     1       2.325  -0.000   0.000  0.00  0.00    +0.000 C 
ATOM      9  C   UNL     1       1.967   0.743   0.000  0.00  0.00    +0.000 C 
ATOM     10  O   UNL     1       3.110  -0.581   0.000  0.00  0.00    +0.000 OA
BRANCH   8  11
ATOM     11  C   UNL     1       3.060   0.374   0.000  0.00  0.00    +0.000 A 
ATOM     12  N   UNL     1       3.103   1.198   0.000  0.00  0.00    +0.000 NA
ATOM     13  C   UNL     1       3.838   1.573   0.000  0.00  0.00    +0.000 A 
ATOM     14  C   UNL     1       4.530   1.123   0.000  0.00  0.00    +0.000 A 
ATOM     15  C   UNL     1       4.487   0.300   0.000  0.00  0.00    +0.000 A 
ATOM     16  N   UNL     1       3.752  -0.075   0.000  0.00  0.00    +0.000 NA
ENDBRANCH   8  11
ENDBRANCH   1   2
BRANCH   1  21
ATOM     17  C   UNL     1       3.930   1.312   0.000  0.00  0.00    +0.000 A 
ATOM     18  C   UNL     1       3.585   2.061   0.000  0.00  0.00    +0.000 A 
ATOM     19  C   UNL     1       2.763   2.137   0.000  0.00  0.00    +0.000 A 
ATOM     20  C   UNL     1       2.287   1.464   0.000  0.00  0.00    +0.000 A 
ATOM     21  C   UNL     1       2.632   0.714   0.000  0.00  0.00    +0.000 A 
ATOM     22  C   UNL     1       3.453   0.638   0.000  0.00  0.00    +0.000 A 
ATOM     23 CL   UNL     1       1.455   1.872   0.000  0.00  0.00    +0.000 Cl
ENDBRANCH   1  21
BRANCH   1  24
ATOM     24  C   UNL     1       2.632  -0.715   0.000  0.00  0.00    +0.000 A 
ATOM     25  C   UNL     1       3.513  -0.392   0.000  0.00  0.00    +0.000 A 
ATOM     26  C   UNL     1       4.031  -1.002   0.000  0.00  0.00    +0.000 A 
ATOM     27  C   UNL     1       3.865  -1.810   0.000  0.00  0.00    +0.000 A 
ATOM     28  C   UNL     1       3.082  -2.071   0.000  0.00  0.00    +0.000 A 
ATOM     29  C   UNL     1       2.465  -1.523   0.000  0.00  0.00    +0.000 A 
ATOM     30 CL   UNL     1       1.728  -2.026   0.000  0.00  0.00    +0.000 Cl
ENDBRANCH   1  24
TORSDOF 4
