REMARK  Name = 
REMARK  4 active torsions:
REMARK  status: ('A' for Active; 'I' for Inactive)
REMARK    1  A    between atoms: C_4  and  N_8
REMARK    2  A    between atoms: N_11  and  C_12
REMARK    3  A    between atoms: N_11  and  N_15
REMARK    4  A    between atoms: C_12  and  C_13
REMARK                            x       y       z     vdW  Elec       q    Type
REMARK                         _______ _______ _______ _____ _____    ______ ____
ROOT
ATOM      1  N   UNL     1       0.715   2.062   0.000  0.00  0.00    +0.000 NA
ATOM      2  C   UNL     1       1.429   2.475   0.000  0.00  0.00    +0.000 C 
ATOM      3  O   UNL     1       1.429   3.300   0.000  0.00  0.00    +0.000 OA
ATOM      4  N   UNL     1       2.143   2.062   0.000  0.00  0.00    +0.000 N 
ENDROOT
BRANCH   1   8
ATOM      5  C   UNL     1      -1.429   3.300   0.000  0.00  0.00    +0.000 C 
ATOM      6  C   UNL     1      -0.715   3.712   0.000  0.00  0.00    +0.000 C 
ATOM      7  C   UNL     1       0.000   3.300   0.000  0.00  0.00    +0.000 C 
ATOM      8  C   UNL     1       0.000   2.475   0.000  0.00  0.00    +0.000 C 
ATOM      9  C   UNL     1      -0.715   2.062   0.000  0.00  0.00    +0.000 C 
ATOM     10  C   UNL     1      -1.429   2.475   0.000  0.00  0.00    +0.000 C 
ATOM     11  O   UNL     1      -0.715   1.238   0.000  0.00  0.00    +0.000 OA
ATOM     12  O   UNL     1       0.715   3.712   0.000  0.00  0.00    +0.000 OA
ENDBRANCH   1   8
BRANCH   4  13
ATOM     13  N   UNL     1       2.143   1.238   0.000  0.00  0.00    +0.000 NA
ATOM     14  O   UNL     1       2.858   0.825   0.000  0.00  0.00    +0.000 OA
ENDBRANCH   4  13
BRANCH   4  15
ATOM     15  C   UNL     1       2.858   2.475   0.000  0.00  0.00    +0.000 C 
BRANCH  15  16
ATOM     16  C   UNL     1       3.572   2.062   0.000  0.00  0.00    +0.000 C 
ATOM     17 CL   UNL     1       4.287   2.475   0.000  0.00  0.00    +0.000 Cl
ENDBRANCH  15  16
ENDBRANCH   4  15
TORSDOF 4
