REMARK  Name = 
REMARK  13 active torsions:
REMARK  status: ('A' for Active; 'I' for Inactive)
REMARK    1  A    between atoms: C_9  and  C_10
REMARK    2  A    between atoms: C_10  and  O_12
REMARK    3  A    between atoms: O_12  and  C_13
REMARK    4  A    between atoms: C_13  and  C_14
REMARK    5  A    between atoms: C_14  and  C_15
REMARK    6  A    between atoms: C_14  and  O_29
REMARK    7  A    between atoms: C_15  and  N_16
REMARK    8  A    between atoms: N_16  and  C_17
REMARK    9  A    between atoms: C_17  and  C_20
REMARK   10  A    between atoms: C_20  and  N_21
REMARK   11  A    between atoms: C_22  and  C_24
REMARK   12  A    between atoms: O_29  and  C_30
REMARK   13  A    between atoms: C_30  and  C_32
REMARK                            x       y       z     vdW  Elec       q    Type
REMARK                         _______ _______ _______ _____ _____    ______ ____
ROOT
ATOM      1  C   UNL     1       3.381  -0.523   0.000  0.00  0.00    +0.000 C 
ENDROOT
BRANCH   1   2
ATOM      2  C   UNL     1       2.556  -0.523   0.000  0.00  0.00    +0.000 C 
BRANCH   2   3
ATOM      3  O   UNL     1       2.143  -1.238   0.000  0.00  0.00    +0.000 OA
BRANCH   3   4
ATOM      4  C   UNL     1       1.318  -1.238   0.000  0.00  0.00    +0.000 C 
ATOM      5  O   UNL     1       0.906  -0.523   0.000  0.00  0.00    +0.000 OA
BRANCH   4  14
ATOM      6  C   UNL     1       2.143  -2.666   0.000  0.00  0.00    +0.000 C 
ATOM      7  C   UNL     1       1.318  -2.666   0.000  0.00  0.00    +0.000 A 
ATOM      8  C   UNL     1       0.906  -3.381   0.000  0.00  0.00    +0.000 A 
ATOM      9  C   UNL     1       0.081  -3.381   0.000  0.00  0.00    +0.000 A 
ATOM     10  O   UNL     1      -0.332  -4.095   0.000  0.00  0.00    +0.000 OA
ATOM     11  C   UNL     1      -0.332  -2.666   0.000  0.00  0.00    +0.000 A 
ATOM     12  O   UNL     1      -1.157  -2.666   0.000  0.00  0.00    +0.000 OA
ATOM     13  C   UNL     1       0.081  -1.952   0.000  0.00  0.00    +0.000 A 
ATOM     14  C   UNL     1       0.906  -1.952   0.000  0.00  0.00    +0.000 A 
ENDBRANCH   4  14
ENDBRANCH   3   4
ENDBRANCH   2   3
ENDBRANCH   1   2
BRANCH   1  15
ATOM     15  C   UNL     1       3.793   0.191   0.000  0.00  0.00    +0.000 C 
BRANCH  15  16
ATOM     16  N   UNL     1       4.618   0.191   0.000  0.00  0.00    +0.000 NA
BRANCH  16  17
ATOM     17  C   UNL     1       5.031   0.906   0.000  0.00  0.00    +0.000 C 
ATOM     18  C   UNL     1       5.745   0.493   0.000  0.00  0.00    +0.000 C 
ATOM     19  C   UNL     1       4.316   1.318   0.000  0.00  0.00    +0.000 C 
BRANCH  17  20
ATOM     20  C   UNL     1       5.443   1.620   0.000  0.00  0.00    +0.000 C 
BRANCH  20  21
ATOM     21  N   UNL     1       6.268   1.620   0.000  0.00  0.00    +0.000 NA
ATOM     22  C   UNL     1       6.681   2.335   0.000  0.00  0.00    +0.000 C 
ATOM     23  O   UNL     1       6.268   3.049   0.000  0.00  0.00    +0.000 OA
BRANCH  22  24
ATOM     24  C   UNL     1       7.506   2.335   0.000  0.00  0.00    +0.000 C 
ATOM     25  C   UNL     1       7.991   3.002   0.000  0.00  0.00    +0.000 C 
ATOM     26  C   UNL     1       8.775   2.747   0.000  0.00  0.00    +0.000 C 
ATOM     27  O   UNL     1       8.775   1.922   0.000  0.00  0.00    +0.000 OA
ATOM     28  C   UNL     1       7.991   1.667   0.000  0.00  0.00    +0.000 C 
ENDBRANCH  22  24
ENDBRANCH  20  21
ENDBRANCH  17  20
ENDBRANCH  16  17
ENDBRANCH  15  16
ENDBRANCH   1  15
BRANCH   1  29
ATOM     29  O   UNL     1       3.793  -1.238   0.000  0.00  0.00    +0.000 OA
BRANCH  29  30
ATOM     30  C   UNL     1       4.618  -1.238   0.000  0.00  0.00    +0.000 C 
ATOM     31  O   UNL     1       5.031  -0.523   0.000  0.00  0.00    +0.000 OA
BRANCH  30  32
ATOM     32  C   UNL     1       5.031  -1.952   0.000  0.00  0.00    +0.000 C 
ATOM     33  C   UNL     1       4.399  -2.482   0.000  0.00  0.00    +0.000 C 
ATOM     34  C   UNL     1       5.806  -1.670   0.000  0.00  0.00    +0.000 C 
ATOM     35  C   UNL     1       5.663  -2.482   0.000  0.00  0.00    +0.000 C 
ENDBRANCH  30  32
ENDBRANCH  29  30
ENDBRANCH   1  29
TORSDOF 13
