REMARK  Name = 
REMARK  10 active torsions:
REMARK  status: ('A' for Active; 'I' for Inactive)
REMARK    1  A    between atoms: C_1  and  N_2
REMARK    2  A    between atoms: C_7  and  C_13
REMARK    3  A    between atoms: C_13  and  O_16
REMARK    4  A    between atoms: O_16  and  P_18
REMARK    5  A    between atoms: P_18  and  O_19
REMARK    6  A    between atoms: O_19  and  P_22
REMARK    7  A    between atoms: P_22  and  O_25
REMARK    8  A    between atoms: O_25  and  C_26
REMARK    9  A    between atoms: C_32  and  C_33
REMARK   10  A    between atoms: C_33  and  S_36
REMARK                            x       y       z     vdW  Elec       q    Type
REMARK                         _______ _______ _______ _____ _____    ______ ____
ROOT
ATOM      1  P   UNL     1      -0.252   0.401   0.000  0.00  0.00    +0.000 P 
ATOM      2  O   UNL     1      -0.255  -0.421   0.000  0.00  0.00    +0.000 OA
ATOM      3  O   UNL     1      -0.255   1.222   0.000  0.00  0.00    +0.000 OA
ENDROOT
BRANCH   1   4
ATOM      4  O   UNL     1       0.570   0.401   0.000  0.00  0.00    +0.000 OA
BRANCH   4   5
ATOM      5  C   UNL     1       1.154   0.975   0.000  0.00  0.00    +0.000 C 
BRANCH   5   9
ATOM      6  C   UNL     1       3.254   0.741   0.000  0.00  0.00    +0.000 C 
ATOM      7  O   UNL     1       2.611   1.212   0.000  0.00  0.00    +0.000 OA
ATOM      8  C   UNL     1       3.013  -0.067   0.000  0.00  0.00    +0.000 C 
ATOM      9  C   UNL     1       1.941   0.720   0.000  0.00  0.00    +0.000 C 
ATOM     10  C   UNL     1       2.185  -0.067   0.000  0.00  0.00    +0.000 C 
ATOM     11  O   UNL     1       3.498  -0.730   0.000  0.00  0.00    +0.000 OA
ATOM     12  O   UNL     1       1.697  -0.726   0.000  0.00  0.00    +0.000 OA
BRANCH   6  13
ATOM     13  N   UNL     1       4.044   0.999   0.000  0.00  0.00    +0.000 N 
ATOM     14  C   UNL     1       4.663   0.449   0.000  0.00  0.00    +0.000 A 
ATOM     15  C   UNL     1       4.216   1.806   0.000  0.00  0.00    +0.000 A 
ATOM     16  N   UNL     1       5.450   0.710   0.000  0.00  0.00    +0.000 NA
ATOM     17  O   UNL     1       4.498  -0.355   0.000  0.00  0.00    +0.000 OA
ATOM     18  C   UNL     1       4.993   2.071   0.000  0.00  0.00    +0.000 A 
ATOM     19  C   UNL     1       5.618   1.518   0.000  0.00  0.00    +0.000 A 
ATOM     20  O   UNL     1       6.402   1.775   0.000  0.00  0.00    +0.000 OA
ENDBRANCH   6  13
ENDBRANCH   5   9
ENDBRANCH   4   5
ENDBRANCH   1   4
BRANCH   1  21
ATOM     21  O   UNL     1      -1.073   0.401   0.000  0.00  0.00    +0.000 OA
BRANCH  21  22
ATOM     22  P   UNL     1      -1.894   0.404   0.000  0.00  0.00    +0.000 P 
ATOM     23  O   UNL     1      -1.901  -0.417   0.000  0.00  0.00    +0.000 OA
ATOM     24  O   UNL     1      -1.901   1.229   0.000  0.00  0.00    +0.000 OA
BRANCH  22  25
ATOM     25  O   UNL     1      -2.719   0.404   0.000  0.00  0.00    +0.000 OA
BRANCH  25  26
ATOM     26  C   UNL     1      -3.434  -0.009   0.000  0.00  0.00    +0.000 C 
ATOM     27  C   UNL     1      -3.434  -0.834   0.000  0.00  0.00    +0.000 C 
ATOM     28  O   UNL     1      -2.719  -1.246   0.000  0.00  0.00    +0.000 OA
ATOM     29  C   UNL     1      -4.862  -0.834   0.000  0.00  0.00    +0.000 C 
ATOM     30  O   UNL     1      -5.577  -1.246   0.000  0.00  0.00    +0.000 OA
ATOM     31  C   UNL     1      -4.148  -1.246   0.000  0.00  0.00    +0.000 C 
ATOM     32  C   UNL     1      -4.862  -0.009   0.000  0.00  0.00    +0.000 C 
ATOM     33  O   UNL     1      -4.148   0.404   0.000  0.00  0.00    +0.000 OA
ATOM     34  O   UNL     1      -4.148  -2.071   0.000  0.00  0.00    +0.000 OA
BRANCH  32  35
ATOM     35  C   UNL     1      -5.577   0.404   0.000  0.00  0.00    +0.000 C 
BRANCH  35  36
ATOM     36  S   UNL     1      -5.577   1.229   0.000  0.00  0.00    +0.000 S 
ATOM     37  O   UNL     1      -6.402   1.229   0.000  0.00  0.00    +0.000 OA
ATOM     38  O   UNL     1      -5.577   2.054   0.000  0.00  0.00    +0.000 OA
ATOM     39  O   UNL     1      -4.752   1.229   0.000  0.00  0.00    +0.000 OA
ENDBRANCH  35  36
ENDBRANCH  32  35
ENDBRANCH  25  26
ENDBRANCH  22  25
ENDBRANCH  21  22
ENDBRANCH   1  21
TORSDOF 10
