REMARK  Name = 
REMARK  7 active torsions:
REMARK  status: ('A' for Active; 'I' for Inactive)
REMARK    1  A    between atoms: C_2  and  C_4
REMARK    2  A    between atoms: C_7  and  C_10
REMARK    3  A    between atoms: C_10  and  N_13
REMARK    4  A    between atoms: C_14  and  C_16
REMARK    5  A    between atoms: N_23  and  C_24
REMARK    6  A    between atoms: C_24  and  C_25
REMARK    7  A    between atoms: C_28  and  C_31
REMARK                            x       y       z     vdW  Elec       q    Type
REMARK                         _______ _______ _______ _____ _____    ______ ____
ROOT
ATOM      1  C   UNL     1       1.952  -0.302   0.000  0.00  0.00    +0.000 C 
ATOM      2  C   UNL     1       1.127  -0.302   0.000  0.00  0.00    +0.000 C 
ATOM      3  C   UNL     1       0.715   0.412   0.000  0.00  0.00    +0.000 C 
ATOM      4  C   UNL     1       0.000   0.000   0.000  0.00  0.00    +0.000 C 
ATOM      5  C   UNL     1       0.000   0.825   0.000  0.00  0.00    +0.000 C 
ATOM      6  C   UNL     1       1.127   1.127   0.000  0.00  0.00    +0.000 C 
ATOM      7  C   UNL     1       1.952   1.127   0.000  0.00  0.00    +0.000 C 
ATOM      8  N   UNL     1       2.365   0.412   0.000  0.00  0.00    +0.000 NA
ENDROOT
BRANCH   1  10
ATOM      9  N   UNL     1       3.189  -1.016   0.000  0.00  0.00    +0.000 NA
ATOM     10  C   UNL     1       2.365  -1.016   0.000  0.00  0.00    +0.000 C 
ATOM     11  O   UNL     1       1.952  -1.731   0.000  0.00  0.00    +0.000 OA
BRANCH   9  12
ATOM     12  C   UNL     1       3.602  -1.731   0.000  0.00  0.00    +0.000 C 
ATOM     13  C   UNL     1       2.970  -2.261   0.000  0.00  0.00    +0.000 C 
ATOM     14  C   UNL     1       3.745  -2.543   0.000  0.00  0.00    +0.000 C 
BRANCH  12  18
ATOM     15  C   UNL     1       5.928  -0.884   0.000  0.00  0.00    +0.000 A 
ATOM     16  C   UNL     1       5.785  -1.697   0.000  0.00  0.00    +0.000 A 
ATOM     17  C   UNL     1       5.009  -1.979   0.000  0.00  0.00    +0.000 A 
ATOM     18  C   UNL     1       4.377  -1.449   0.000  0.00  0.00    +0.000 A 
ATOM     19  C   UNL     1       4.521  -0.636   0.000  0.00  0.00    +0.000 A 
ATOM     20  C   UNL     1       5.296  -0.354   0.000  0.00  0.00    +0.000 A 
BRANCH  15  22
ATOM     21  O   UNL     1       6.846   0.210   0.000  0.00  0.00    +0.000 OA
ATOM     22  C   UNL     1       6.703  -0.602   0.000  0.00  0.00    +0.000 C 
ATOM     23  O   UNL     1       7.335  -1.133   0.000  0.00  0.00    +0.000 OA
ENDBRANCH  15  22
ENDBRANCH  12  18
ENDBRANCH   9  12
ENDBRANCH   1  10
BRANCH   8  24
ATOM     24  C   UNL     1       3.189   0.412   0.000  0.00  0.00    +0.000 C 
BRANCH  24  25
ATOM     25  C   UNL     1       3.602   1.127   0.000  0.00  0.00    +0.000 A 
ATOM     26  C   UNL     1       3.189   1.841   0.000  0.00  0.00    +0.000 A 
ATOM     27  C   UNL     1       3.602   2.556   0.000  0.00  0.00    +0.000 A 
ATOM     28  C   UNL     1       4.427   2.556   0.000  0.00  0.00    +0.000 A 
ATOM     29  C   UNL     1       4.840   1.841   0.000  0.00  0.00    +0.000 A 
ATOM     30  C   UNL     1       4.427   1.127   0.000  0.00  0.00    +0.000 A 
BRANCH  28  31
ATOM     31  C   UNL     1       4.840   3.270   0.000  0.00  0.00    +0.000 C 
ATOM     32  F   UNL     1       5.252   3.985   0.000  0.00  0.00    +0.000 F 
ATOM     33  F   UNL     1       5.554   2.858   0.000  0.00  0.00    +0.000 F 
ATOM     34  F   UNL     1       4.125   3.683   0.000  0.00  0.00    +0.000 F 
ENDBRANCH  28  31
ENDBRANCH  24  25
ENDBRANCH   8  24
TORSDOF 7
