REMARK  Name = 
REMARK  4 active torsions:
REMARK  status: ('A' for Active; 'I' for Inactive)
REMARK    1  A    between atoms: S_4  and  C_8
REMARK    2  A    between atoms: N_7  and  C_14
REMARK    3  A    between atoms: C_8  and  C_12
REMARK    4  A    between atoms: C_14  and  C_15
REMARK                            x       y       z     vdW  Elec       q    Type
REMARK                         _______ _______ _______ _____ _____    ______ ____
ROOT
ATOM      1  O   UNL     1      -0.905   1.635   0.000  0.00  0.00    +0.000 OA
ATOM      2  N   UNL     1      -0.191   0.397   0.000  0.00  0.00    +0.000 NA
ATOM      3  C   UNL     1      -0.191   1.222   0.000  0.00  0.00    +0.000 C 
ENDROOT
BRANCH   3   6
ATOM      4 CL   UNL     1       2.063   1.222   0.000  0.00  0.00    +0.000 Cl
ATOM      5 CL   UNL     1       1.761   2.349   0.000  0.00  0.00    +0.000 Cl
ATOM      6  C   UNL     1       0.523   1.635   0.000  0.00  0.00    +0.000 C 
ATOM      7  C   UNL     1       0.936   0.920   0.000  0.00  0.00    +0.000 C 
ATOM      8  C   UNL     1       1.348   1.635   0.000  0.00  0.00    +0.000 C 
ATOM      9  C   UNL     1       0.936   0.095   0.000  0.00  0.00    +0.000 C 
BRANCH   6  10
ATOM     10  S   UNL     1       0.523   2.460   0.000  0.00  0.00    +0.000 S 
ATOM     11  O   UNL     1       0.936   3.174   0.000  0.00  0.00    +0.000 OA
ATOM     12  C   UNL     1      -0.191   2.872   0.000  0.00  0.00    +0.000 C 
ENDBRANCH   6  10
ENDBRANCH   3   6
BRANCH   2  13
ATOM     13  C   UNL     1      -0.905  -0.015   0.000  0.00  0.00    +0.000 C 
ATOM     14  C   UNL     1      -1.620   0.397   0.000  0.00  0.00    +0.000 C 
BRANCH  13  16
ATOM     15 BR   UNL     1      -0.905  -3.315   0.000  0.00  0.00    +0.000 Br
ATOM     16  C   UNL     1      -0.905  -0.840   0.000  0.00  0.00    +0.000 A 
ATOM     17  C   UNL     1      -0.191  -1.253   0.000  0.00  0.00    +0.000 A 
ATOM     18  C   UNL     1      -1.620  -1.253   0.000  0.00  0.00    +0.000 A 
ATOM     19  C   UNL     1      -0.191  -2.078   0.000  0.00  0.00    +0.000 A 
ATOM     20  C   UNL     1      -1.620  -2.078   0.000  0.00  0.00    +0.000 A 
ATOM     21  C   UNL     1      -0.905  -2.490   0.000  0.00  0.00    +0.000 A 
ENDBRANCH  13  16
ENDBRANCH   2  13
TORSDOF 4
