REMARK  Name = 
REMARK  3 active torsions:
REMARK  status: ('A' for Active; 'I' for Inactive)
REMARK    1  A    between atoms: C_14  and  N_26
REMARK    2  A    between atoms: C_16  and  C_21
REMARK    3  A    between atoms: C_19  and  N_25
REMARK                            x       y       z     vdW  Elec       q    Type
REMARK                         _______ _______ _______ _____ _____    ______ ____
ROOT
ATOM      1  C   UNL     1       1.429   2.475   0.000  0.00  0.00    +0.000 A 
ATOM      2  C   UNL     1       1.429   0.825   0.000  0.00  0.00    +0.000 A 
ATOM      3  C   UNL     1       3.572   1.238   0.000  0.00  0.00    +0.000 A 
ATOM      4  C   UNL     1       2.143   2.062   0.000  0.00  0.00    +0.000 A 
ATOM      5  C   UNL     1       3.572   2.062   0.000  0.00  0.00    +0.000 A 
ATOM      6  C   UNL     1       0.715   2.062   0.000  0.00  0.00    +0.000 A 
ATOM      7  C   UNL     1       2.143   1.238   0.000  0.00  0.00    +0.000 A 
ATOM      8  C   UNL     1       0.715   1.238   0.000  0.00  0.00    +0.000 A 
ATOM      9  C   UNL     1       2.858   2.475   0.000  0.00  0.00    +0.000 A 
ATOM     10  F   UNL     1       0.000   2.475   0.000  0.00  0.00    +0.000 F 
ATOM     11  N   UNL     1       2.858   0.825   0.000  0.00  0.00    +0.000 N 
ATOM     12  O   UNL     1       2.858   3.300   0.000  0.00  0.00    +0.000 OA
ENDROOT
BRANCH   8  19
ATOM     13  C   UNL     1      -2.143  -0.412   0.000  0.00  0.00    +0.000 C 
ATOM     14  C   UNL     1      -0.715  -0.412   0.000  0.00  0.00    +0.000 C 
ATOM     15  C   UNL     1      -1.429   0.825   0.000  0.00  0.00    +0.000 C 
ATOM     16  C   UNL     1       0.000   0.000   0.000  0.00  0.00    +0.000 C 
ATOM     17  C   UNL     1      -0.715   1.238   0.000  0.00  0.00    +0.000 C 
ATOM     18  N   UNL     1      -1.429   0.000   0.000  0.00  0.00    +0.000 NA
ATOM     19  N   UNL     1       0.000   0.825   0.000  0.00  0.00    +0.000 N 
ENDBRANCH   8  19
BRANCH  11  25
ATOM     20  C   UNL     1       3.572  -1.238   0.000  0.00  0.00    +0.000 A 
ATOM     21  C   UNL     1       2.143  -1.238   0.000  0.00  0.00    +0.000 A 
ATOM     22  C   UNL     1       3.572  -0.412   0.000  0.00  0.00    +0.000 A 
ATOM     23  C   UNL     1       2.143  -0.412   0.000  0.00  0.00    +0.000 A 
ATOM     24  C   UNL     1       2.858  -1.650   0.000  0.00  0.00    +0.000 A 
ATOM     25  C   UNL     1       2.858   0.000   0.000  0.00  0.00    +0.000 A 
ATOM     26  F   UNL     1       2.858  -2.475   0.000  0.00  0.00    +0.000 F 
ENDBRANCH  11  25
BRANCH   5  27
ATOM     27  C   UNL     1       4.287   2.475   0.000  0.00  0.00    +0.000 C 
ATOM     28  O   UNL     1       4.287   3.300   0.000  0.00  0.00    +0.000 OA
ATOM     29  O   UNL     1       5.001   2.062   0.000  0.00  0.00    +0.000 OA
ENDBRANCH   5  27
TORSDOF 3
