REMARK  Name = 
REMARK  7 active torsions:
REMARK  status: ('A' for Active; 'I' for Inactive)
REMARK    1  A    between atoms: C_2  and  C_4
REMARK    2  A    between atoms: C_7  and  C_13
REMARK    3  A    between atoms: N_15  and  C_16
REMARK    4  A    between atoms: C_16  and  C_17
REMARK    5  A    between atoms: N_20  and  C_23
REMARK    6  A    between atoms: C_23  and  C_24
REMARK    7  A    between atoms: C_30  and  O_32
REMARK                            x       y       z     vdW  Elec       q    Type
REMARK                         _______ _______ _______ _____ _____    ______ ____
ROOT
ATOM      1  C   UNL     1       4.067   2.602   0.000  0.00  0.00    +0.000 C 
ATOM      2  C   UNL     1       4.067   3.427   0.000  0.00  0.00    +0.000 C 
ATOM      3  C   UNL     1       4.781   3.840   0.000  0.00  0.00    +0.000 C 
ATOM      4  N   UNL     1       5.496   3.427   0.000  0.00  0.00    +0.000 NA
ATOM      5  C   UNL     1       5.496   2.602   0.000  0.00  0.00    +0.000 C 
ATOM      6  C   UNL     1       4.781   2.190   0.000  0.00  0.00    +0.000 C 
ENDROOT
BRANCH   1   7
ATOM      7  C   UNL     1       3.352   2.190   0.000  0.00  0.00    +0.000 C 
BRANCH   7  10
ATOM      8  C   UNL     1       2.638   0.952   0.000  0.00  0.00    +0.000 C 
ATOM      9  O   UNL     1       1.923   1.365   0.000  0.00  0.00    +0.000 OA
ATOM     10  N   UNL     1       3.352   1.365   0.000  0.00  0.00    +0.000 NA
BRANCH   8  14
ATOM     11  C   UNL     1       0.654  -0.698   0.000  0.00  0.00    +0.000 A 
ATOM     12  N   UNL     1       1.139  -0.030   0.000  0.00  0.00    +0.000 NA
ATOM     13  C   UNL     1       1.923  -0.285   0.000  0.00  0.00    +0.000 A 
ATOM     14  C   UNL     1       2.638   0.127   0.000  0.00  0.00    +0.000 A 
ATOM     15  C   UNL     1       3.352  -0.285   0.000  0.00  0.00    +0.000 A 
ATOM     16  C   UNL     1       3.352  -1.110   0.000  0.00  0.00    +0.000 A 
ATOM     17  C   UNL     1       2.638  -1.523   0.000  0.00  0.00    +0.000 A 
ATOM     18  C   UNL     1       1.923  -1.110   0.000  0.00  0.00    +0.000 A 
ATOM     19  N   UNL     1       1.139  -1.365   0.000  0.00  0.00    +0.000 NA
BRANCH  11  21
ATOM     20  C   UNL     1      -0.584  -1.412   0.000  0.00  0.00    +0.000 C 
ATOM     21  C   UNL     1      -0.171  -0.698   0.000  0.00  0.00    +0.000 C 
ATOM     22  C   UNL     1      -0.584   0.017   0.000  0.00  0.00    +0.000 C 
ENDBRANCH  11  21
ENDBRANCH   8  14
ENDBRANCH   7  10
ENDBRANCH   1   7
BRANCH   4  23
ATOM     23  C   UNL     1       6.210   3.840   0.000  0.00  0.00    +0.000 C 
BRANCH  23  24
ATOM     24  C   UNL     1       6.925   3.427   0.000  0.00  0.00    +0.000 C 
ATOM     25  C   UNL     1       7.639   3.840   0.000  0.00  0.00    +0.000 C 
ATOM     26  C   UNL     1       8.354   3.427   0.000  0.00  0.00    +0.000 C 
ATOM     27  N   UNL     1       8.354   2.602   0.000  0.00  0.00    +0.000 N 
ATOM     28  C   UNL     1       7.639   2.190   0.000  0.00  0.00    +0.000 C 
ATOM     29  C   UNL     1       6.925   2.602   0.000  0.00  0.00    +0.000 C 
ATOM     30  C   UNL     1       9.068   2.190   0.000  0.00  0.00    +0.000 C 
ATOM     31  O   UNL     1       9.068   1.365   0.000  0.00  0.00    +0.000 OA
BRANCH  30  32
ATOM     32  O   UNL     1       9.783   2.602   0.000  0.00  0.00    +0.000 OA
ATOM     33  C   UNL     1       9.783   3.427   0.000  0.00  0.00    +0.000 C 
ENDBRANCH  30  32
ENDBRANCH  23  24
ENDBRANCH   4  23
TORSDOF 7
