REMARK  Name = 
REMARK  3 active torsions:
REMARK  status: ('A' for Active; 'I' for Inactive)
REMARK    1  A    between atoms: C_13  and  O_14
REMARK    2  A    between atoms: O_14  and  C_15
REMARK    3  A    between atoms: N_17  and  C_18
REMARK                            x       y       z     vdW  Elec       q    Type
REMARK                         _______ _______ _______ _____ _____    ______ ____
ROOT
ATOM      1  C   UNL     1       3.936  -0.805   0.000  0.00  0.00    +0.000 C 
ATOM      2  N   UNL     1       3.438  -0.147   0.000  0.00  0.00    +0.000 NA
ATOM      3  C   UNL     1       3.677   0.642   0.000  0.00  0.00    +0.000 C 
ATOM      4  C   UNL     1       3.001   1.114   0.000  0.00  0.00    +0.000 C 
ATOM      5  C   UNL     1       2.343   0.616   0.000  0.00  0.00    +0.000 C 
ATOM      6  C   UNL     1       2.072   1.396   0.000  0.00  0.00    +0.000 C 
ATOM      7  C   UNL     1       2.613  -0.163   0.000  0.00  0.00    +0.000 C 
ATOM      8  N   UNL     1       1.955  -0.661   0.000  0.00  0.00    +0.000 N 
ATOM      9  C   UNL     1       1.972  -1.486   0.000  0.00  0.00    +0.000 C 
ATOM     10  C   UNL     1       1.278  -0.190   0.000  0.00  0.00    +0.000 A 
ATOM     11  C   UNL     1       0.475  -0.377   0.000  0.00  0.00    +0.000 A 
ATOM     12  C   UNL     1      -0.089   0.225   0.000  0.00  0.00    +0.000 A 
ATOM     13  C   UNL     1       0.150   1.015   0.000  0.00  0.00    +0.000 A 
ATOM     14  C   UNL     1       0.954   1.202   0.000  0.00  0.00    +0.000 A 
ATOM     15  C   UNL     1       1.518   0.600   0.000  0.00  0.00    +0.000 A 
ENDROOT
BRANCH  13  16
ATOM     16  O   UNL     1      -0.414   1.617   0.000  0.00  0.00    +0.000 OA
BRANCH  16  17
ATOM     17  C   UNL     1      -0.174   2.406   0.000  0.00  0.00    +0.000 C 
ATOM     18  O   UNL     1       0.629   2.594   0.000  0.00  0.00    +0.000 OA
ATOM     19  N   UNL     1      -0.738   3.008   0.000  0.00  0.00    +0.000 NA
BRANCH  19  20
ATOM     20  C   UNL     1      -0.499   3.798   0.000  0.00  0.00    +0.000 A 
ATOM     21  C   UNL     1      -1.063   4.400   0.000  0.00  0.00    +0.000 A 
ATOM     22  C   UNL     1      -0.823   5.189   0.000  0.00  0.00    +0.000 A 
ATOM     23  C   UNL     1      -0.020   5.377   0.000  0.00  0.00    +0.000 A 
ATOM     24  C   UNL     1       0.544   4.775   0.000  0.00  0.00    +0.000 A 
ATOM     25  C   UNL     1       0.305   3.985   0.000  0.00  0.00    +0.000 A 
ENDBRANCH  19  20
ENDBRANCH  16  17
ENDBRANCH  13  16
TORSDOF 3
