REMARK  Name = 
REMARK  0 active torsions:
REMARK  status: ('A' for Active; 'I' for Inactive)
REMARK                            x       y       z     vdW  Elec       q    Type
REMARK                         _______ _______ _______ _____ _____    ______ ____
ROOT
ATOM      1  C   UNL     1       4.515   1.030   0.000  0.00  0.00    +0.000 C 
ATOM      2  C   UNL     1       4.157   1.774   0.000  0.00  0.00    +0.000 C 
ATOM      3  C   UNL     1       4.157   0.287   0.000  0.00  0.00    +0.000 C 
ATOM      4  C   UNL     1       3.353   1.957   0.000  0.00  0.00    +0.000 C 
ATOM      5  C   UNL     1       3.353   0.104   0.000  0.00  0.00    +0.000 C 
ATOM      6  C   UNL     1       2.708   1.443   0.000  0.00  0.00    +0.000 A 
ATOM      7  N   UNL     1       1.923   1.698   0.000  0.00  0.00    +0.000 NA
ATOM      8  N   UNL     1       1.438   1.030   0.000  0.00  0.00    +0.000 NA
ATOM      9  N   UNL     1       1.923   0.363   0.000  0.00  0.00    +0.000 NA
ATOM     10  N   UNL     1       2.708   0.618   0.000  0.00  0.00    +0.000 N 
ENDROOT
TORSDOF 0
