REMARK  Name = 
REMARK  9 active torsions:
REMARK  status: ('A' for Active; 'I' for Inactive)
REMARK    1  A    between atoms: C_2  and  C_3
REMARK    2  A    between atoms: C_3  and  C_4
REMARK    3  A    between atoms: C_4  and  C_18
REMARK    4  A    between atoms: N_5  and  O_6
REMARK    5  A    between atoms: O_6  and  C_7
REMARK    6  A    between atoms: C_7  and  C_8
REMARK    7  A    between atoms: C_8  and  O_10
REMARK    8  A    between atoms: O_10  and  C_11
REMARK    9  A    between atoms: C_22  and  C_26
REMARK                            x       y       z     vdW  Elec       q    Type
REMARK                         _______ _______ _______ _____ _____    ______ ____
ROOT
ATOM      1  C   UNL     1      -2.858  -4.950   0.000  0.00  0.00    +0.000 C 
ATOM      2  N   UNL     1      -2.143  -5.362   0.000  0.00  0.00    +0.000 NA
ENDROOT
BRANCH   1   3
ATOM      3  C   UNL     1      -3.572  -5.362   0.000  0.00  0.00    +0.000 C 
ATOM      4  C   UNL     1      -3.572  -6.188   0.000  0.00  0.00    +0.000 C 
ATOM      5  O   UNL     1      -2.858  -6.600   0.000  0.00  0.00    +0.000 OA
ATOM      6  C   UNL     1      -4.287  -6.600   0.000  0.00  0.00    +0.000 C 
ATOM      7  C   UNL     1      -5.001  -6.188   0.000  0.00  0.00    +0.000 C 
ATOM      8  C   UNL     1      -5.001  -5.362   0.000  0.00  0.00    +0.000 C 
ATOM      9  C   UNL     1      -4.287  -4.950   0.000  0.00  0.00    +0.000 C 
ATOM     10  O   UNL     1      -4.287  -4.125   0.000  0.00  0.00    +0.000 OA
BRANCH   7  11
ATOM     11  C   UNL     1      -5.716  -6.600   0.000  0.00  0.00    +0.000 C 
ATOM     12  C   UNL     1      -5.716  -7.425   0.000  0.00  0.00    +0.000 C 
ATOM     13  C   UNL     1      -6.430  -7.838   0.000  0.00  0.00    +0.000 C 
ATOM     14  C   UNL     1      -7.145  -7.425   0.000  0.00  0.00    +0.000 C 
ATOM     15  S   UNL     1      -7.145  -6.600   0.000  0.00  0.00    +0.000 S 
ATOM     16  C   UNL     1      -6.430  -6.188   0.000  0.00  0.00    +0.000 C 
ENDBRANCH   7  11
ENDBRANCH   1   3
BRANCH   2  17
ATOM     17  O   UNL     1      -1.429  -4.950   0.000  0.00  0.00    +0.000 OA
BRANCH  17  18
ATOM     18  C   UNL     1      -0.715  -5.362   0.000  0.00  0.00    +0.000 C 
BRANCH  18  19
ATOM     19  C   UNL     1       0.000  -4.950   0.000  0.00  0.00    +0.000 C 
ATOM     20  C   UNL     1       0.000  -4.125   0.000  0.00  0.00    +0.000 C 
BRANCH  19  21
ATOM     21  O   UNL     1       0.715  -5.362   0.000  0.00  0.00    +0.000 OA
BRANCH  21  22
ATOM     22  C   UNL     1       1.429  -4.950   0.000  0.00  0.00    +0.000 A 
ATOM     23  C   UNL     1       1.429  -4.125   0.000  0.00  0.00    +0.000 A 
ATOM     24  C   UNL     1       2.143  -3.712   0.000  0.00  0.00    +0.000 A 
ATOM     25  C   UNL     1       2.858  -4.125   0.000  0.00  0.00    +0.000 A 
ATOM     26 CL   UNL     1       3.572  -3.712   0.000  0.00  0.00    +0.000 Cl
ATOM     27  C   UNL     1       2.858  -4.950   0.000  0.00  0.00    +0.000 A 
ATOM     28  C   UNL     1       2.143  -5.362   0.000  0.00  0.00    +0.000 A 
ENDBRANCH  21  22
ENDBRANCH  19  21
ENDBRANCH  18  19
ENDBRANCH  17  18
ENDBRANCH   2  17
BRANCH   1  29
ATOM     29  C   UNL     1      -2.858  -4.125   0.000  0.00  0.00    +0.000 C 
BRANCH  29  31
ATOM     30  C   UNL     1      -3.572  -2.888   0.000  0.00  0.00    +0.000 C 
ATOM     31  C   UNL     1      -3.572  -3.712   0.000  0.00  0.00    +0.000 C 
ENDBRANCH  29  31
ENDBRANCH   1  29
TORSDOF 9
