REMARK  Name = 
REMARK  3 active torsions:
REMARK  status: ('A' for Active; 'I' for Inactive)
REMARK    1  A    between atoms: C_10  and  C_14
REMARK    2  A    between atoms: C_10  and  C_17
REMARK    3  A    between atoms: C_13  and  C_15
REMARK                            x       y       z     vdW  Elec       q    Type
REMARK                         _______ _______ _______ _____ _____    ______ ____
ROOT
ATOM      1  O   UNL     1      -0.114  -0.589   0.000  0.00  0.00    +0.000 OA
ATOM      2  O   UNL     1       1.982  -0.998   0.000  0.00  0.00    +0.000 OA
ATOM      3  O   UNL     1       0.929  -2.451   0.000  0.00  0.00    +0.000 OA
ATOM      4  C   UNL     1       0.671  -0.332   0.000  0.00  0.00    +0.000 C 
ATOM      5  C   UNL     1       1.157  -0.999   0.000  0.00  0.00    +0.000 C 
ATOM      6  C   UNL     1       0.673  -1.667   0.000  0.00  0.00    +0.000 C 
ATOM      7  C   UNL     1      -0.112  -1.414   0.000  0.00  0.00    +0.000 C 
ENDROOT
BRANCH   4  12
ATOM      8  N   UNL     1      -0.366   0.703   0.000  0.00  0.00    +0.000 N 
ATOM      9  N   UNL     1      -1.081   0.291   0.000  0.00  0.00    +0.000 NA
ATOM     10  N   UNL     1      -1.795   1.528   0.000  0.00  0.00    +0.000 NA
ATOM     11  N   UNL     1      -1.081   2.766   0.000  0.00  0.00    +0.000 NA
ATOM     12  C   UNL     1       0.414   0.452   0.000  0.00  0.00    +0.000 A 
ATOM     13  C   UNL     1       0.896   1.116   0.000  0.00  0.00    +0.000 A 
ATOM     14  C   UNL     1      -0.366   1.528   0.000  0.00  0.00    +0.000 A 
ATOM     15  C   UNL     1       0.414   1.780   0.000  0.00  0.00    +0.000 A 
ATOM     16  C   UNL     1      -1.081   1.941   0.000  0.00  0.00    +0.000 A 
ATOM     17  C   UNL     1      -1.795   0.703   0.000  0.00  0.00    +0.000 A 
ENDBRANCH   4  12
BRANCH   7  19
ATOM     18  O   UNL     1      -0.691  -2.720   0.000  0.00  0.00    +0.000 OA
ATOM     19  C   UNL     1      -0.779  -1.900   0.000  0.00  0.00    +0.000 C 
ENDBRANCH   7  19
BRANCH   4  21
ATOM     20  N   UNL     1       2.004   0.640   0.000  0.00  0.00    +0.000 NA
ATOM     21  C   UNL     1       1.337   0.154   0.000  0.00  0.00    +0.000 C 
ENDBRANCH   4  21
TORSDOF 3
