REMARK  Name = 
REMARK  10 active torsions:
REMARK  status: ('A' for Active; 'I' for Inactive)
REMARK    1  A    between atoms: C_1  and  C_2
REMARK    2  A    between atoms: C_1  and  C_3
REMARK    3  A    between atoms: C_1  and  C_4
REMARK    4  A    between atoms: C_1  and  O_5
REMARK    5  A    between atoms: C_4  and  O_10
REMARK    6  A    between atoms: O_5  and  C_12
REMARK    7  A    between atoms: O_10  and  C_17
REMARK    8  A    between atoms: C_12  and  C_18
REMARK    9  A    between atoms: C_17  and  C_21
REMARK   10  A    between atoms: C_21  and  N_23
REMARK                            x       y       z     vdW  Elec       q    Type
REMARK                         _______ _______ _______ _____ _____    ______ ____
ROOT
ATOM      1  C   UNL     1      -0.702   0.000   0.000  0.00  0.00    +0.000 C 
ENDROOT
BRANCH   1   2
ATOM      2  C   UNL     1      -0.702  -0.811   0.000  0.00  0.00    +0.000 A 
ATOM      3  C   UNL     1      -1.433  -1.220   0.000  0.00  0.00    +0.000 A 
ATOM      4  C   UNL     1       0.003  -1.225   0.000  0.00  0.00    +0.000 A 
ATOM      5  C   UNL     1      -1.433  -2.046   0.000  0.00  0.00    +0.000 A 
ATOM      6  C   UNL     1       0.012  -2.046   0.000  0.00  0.00    +0.000 A 
ATOM      7  C   UNL     1      -0.702  -2.462   0.000  0.00  0.00    +0.000 A 
ENDBRANCH   1   2
BRANCH   1   8
ATOM      8  C   UNL     1      -0.702   0.811   0.000  0.00  0.00    +0.000 A 
ATOM      9  C   UNL     1       0.003   1.235   0.000  0.00  0.00    +0.000 A 
ATOM     10  C   UNL     1      -1.423   1.235   0.000  0.00  0.00    +0.000 A 
ATOM     11  C   UNL     1       0.012   2.044   0.000  0.00  0.00    +0.000 A 
ATOM     12  C   UNL     1      -1.433   2.044   0.000  0.00  0.00    +0.000 A 
ATOM     13  C   UNL     1      -0.702   2.462   0.000  0.00  0.00    +0.000 A 
ENDBRANCH   1   8
BRANCH   1  14
ATOM     14  C   UNL     1       0.121   0.000   0.000  0.00  0.00    +0.000 C 
ATOM     15  O   UNL     1       0.517   0.705   0.000  0.00  0.00    +0.000 OA
BRANCH  14  16
ATOM     16  O   UNL     1       0.517  -0.718   0.000  0.00  0.00    +0.000 OA
BRANCH  16  17
ATOM     17  C   UNL     1       1.326  -0.703   0.000  0.00  0.00    +0.000 C 
BRANCH  17  18
ATOM     18  C   UNL     1       1.734  -1.440   0.000  0.00  0.00    +0.000 C 
BRANCH  18  19
ATOM     19  N   UNL     1       2.739  -1.440   0.000  0.00  0.00    +0.000 NA
ATOM     20  C   UNL     1       3.518  -2.308   0.000  0.00  0.00    +0.000 C 
ATOM     21  C   UNL     1       3.585  -0.658   0.000  0.00  0.00    +0.000 C 
ENDBRANCH  18  19
ENDBRANCH  17  18
ENDBRANCH  16  17
ENDBRANCH  14  16
ENDBRANCH   1  14
BRANCH   1  22
ATOM     22  O   UNL     1      -1.529   0.000   0.000  0.00  0.00    +0.000 OA
BRANCH  22  23
ATOM     23  C   UNL     1      -1.940  -0.703   0.000  0.00  0.00    +0.000 C 
BRANCH  23  24
ATOM     24  C   UNL     1      -2.759  -0.703   0.000  0.00  0.00    +0.000 C 
ATOM     25  C   UNL     1      -3.585  -0.703   0.000  0.00  0.00    +0.000 C 
ENDBRANCH  23  24
ENDBRANCH  22  23
ENDBRANCH   1  22
TORSDOF 10
