REMARK  Name = 
REMARK  8 active torsions:
REMARK  status: ('A' for Active; 'I' for Inactive)
REMARK    1  A    between atoms: C_1  and  C_4
REMARK    2  A    between atoms: C_2  and  O_6
REMARK    3  A    between atoms: C_7  and  S_12
REMARK    4  A    between atoms: N_8  and  C_13
REMARK    5  A    between atoms: C_13  and  C_17
REMARK    6  A    between atoms: C_17  and  N_18
REMARK    7  A    between atoms: N_18  and  C_19
REMARK    8  A    between atoms: N_18  and  C_20
REMARK                            x       y       z     vdW  Elec       q    Type
REMARK                         _______ _______ _______ _____ _____    ______ ____
ROOT
ATOM      1  C   UNL     1      -1.072   0.206   0.000  0.00  0.00    +0.000 A 
ATOM      2  C   UNL     1      -1.072  -0.619   0.000  0.00  0.00    +0.000 A 
ATOM      3  C   UNL     1      -1.786   0.619   0.000  0.00  0.00    +0.000 A 
ATOM      4  C   UNL     1      -1.786  -1.031   0.000  0.00  0.00    +0.000 A 
ATOM      5  C   UNL     1      -2.501   0.206   0.000  0.00  0.00    +0.000 A 
ATOM      6  C   UNL     1      -2.501  -0.619   0.000  0.00  0.00    +0.000 A 
ENDROOT
BRANCH   5   7
ATOM      7  S   UNL     1      -3.215   0.619   0.000  0.00  0.00    +0.000 S 
ATOM      8  C   UNL     1      -3.930   1.031   0.000  0.00  0.00    +0.000 C 
ATOM      9  O   UNL     1      -3.628  -0.096   0.000  0.00  0.00    +0.000 OA
ATOM     10  O   UNL     1      -2.803   1.333   0.000  0.00  0.00    +0.000 OA
ENDBRANCH   5   7
BRANCH   1  11
ATOM     11  C   UNL     1      -0.357   0.619   0.000  0.00  0.00    +0.000 C 
ATOM     12  N   UNL     1       0.357   0.206   0.000  0.00  0.00    +0.000 NA
ATOM     13  O   UNL     1      -0.357   1.444   0.000  0.00  0.00    +0.000 OA
BRANCH  12  14
ATOM     14  C   UNL     1       1.072   0.619   0.000  0.00  0.00    +0.000 C 
BRANCH  14  15
ATOM     15  C   UNL     1       1.786   0.206   0.000  0.00  0.00    +0.000 C 
BRANCH  15  16
ATOM     16  N   UNL     1       2.501   0.619   0.000  0.00  0.00    +0.000 NA
BRANCH  16  17
ATOM     17  C   UNL     1       2.501   1.444   0.000  0.00  0.00    +0.000 C 
ATOM     18  C   UNL     1       3.215   1.856   0.000  0.00  0.00    +0.000 C 
ENDBRANCH  16  17
BRANCH  16  19
ATOM     19  C   UNL     1       3.215   0.206   0.000  0.00  0.00    +0.000 C 
ATOM     20  C   UNL     1       3.930   0.619   0.000  0.00  0.00    +0.000 C 
ENDBRANCH  16  19
ENDBRANCH  15  16
ENDBRANCH  14  15
ENDBRANCH  12  14
ENDBRANCH   1  11
BRANCH   2  21
ATOM     21  O   UNL     1      -0.357  -1.031   0.000  0.00  0.00    +0.000 OA
ATOM     22  C   UNL     1      -0.357  -1.856   0.000  0.00  0.00    +0.000 C 
ENDBRANCH   2  21
TORSDOF 8
