REMARK  Name = 
REMARK  8 active torsions:
REMARK  status: ('A' for Active; 'I' for Inactive)
REMARK    1  A    between atoms: C_2  and  C_3
REMARK    2  A    between atoms: C_3  and  N_4
REMARK    3  A    between atoms: N_7  and  C_10
REMARK    4  A    between atoms: C_13  and  C_16
REMARK    5  A    between atoms: N_18  and  C_19
REMARK    6  A    between atoms: C_19  and  C_25
REMARK    7  A    between atoms: N_27  and  C_28
REMARK    8  A    between atoms: C_28  and  C_29
REMARK                            x       y       z     vdW  Elec       q    Type
REMARK                         _______ _______ _______ _____ _____    ______ ____
ROOT
ATOM      1  C   UNL     1      -2.189   0.187   0.000  0.00  0.00    +0.000 A 
ATOM      2  C   UNL     1      -1.377   0.044   0.000  0.00  0.00    +0.000 A 
ATOM      3  C   UNL     1      -1.095  -0.732   0.000  0.00  0.00    +0.000 A 
ATOM      4  C   UNL     1      -1.625  -1.363   0.000  0.00  0.00    +0.000 A 
ATOM      5  C   UNL     1      -2.437  -1.220   0.000  0.00  0.00    +0.000 A 
ATOM      6  C   UNL     1      -2.720  -0.445   0.000  0.00  0.00    +0.000 A 
ENDROOT
BRANCH   1  10
ATOM      7  N   UNL     1      -3.036   2.513   0.000  0.00  0.00    +0.000 NA
ATOM      8  C   UNL     1      -2.223   2.369   0.000  0.00  0.00    +0.000 C 
ATOM      9  C   UNL     1      -1.941   1.594   0.000  0.00  0.00    +0.000 C 
ATOM     10  N   UNL     1      -2.471   0.962   0.000  0.00  0.00    +0.000 N 
ATOM     11  C   UNL     1      -3.284   1.105   0.000  0.00  0.00    +0.000 C 
ATOM     12  C   UNL     1      -3.566   1.881   0.000  0.00  0.00    +0.000 C 
BRANCH   7  13
ATOM     13  C   UNL     1      -3.318   3.288   0.000  0.00  0.00    +0.000 C 
BRANCH  13  15
ATOM     14  C   UNL     1      -4.413   4.207   0.000  0.00  0.00    +0.000 C 
ATOM     15  C   UNL     1      -4.130   3.431   0.000  0.00  0.00    +0.000 C 
ENDBRANCH  13  15
ENDBRANCH   7  13
ENDBRANCH   1  10
BRANCH   4  16
ATOM     16  C   UNL     1      -1.343  -2.139   0.000  0.00  0.00    +0.000 C 
ATOM     17  O   UNL     1      -1.873  -2.771   0.000  0.00  0.00    +0.000 OA
ATOM     18  N   UNL     1      -0.530  -2.282   0.000  0.00  0.00    +0.000 NA
BRANCH  18  19
ATOM     19  C   UNL     1      -0.248  -3.057   0.000  0.00  0.00    +0.000 C 
ATOM     20  C   UNL     1       0.282  -3.689   0.000  0.00  0.00    +0.000 C 
ATOM     21  C   UNL     1       0.000  -4.465   0.000  0.00  0.00    +0.000 C 
ATOM     22  C   UNL     1      -0.812  -4.608   0.000  0.00  0.00    +0.000 C 
ATOM     23  C   UNL     1      -1.343  -3.976   0.000  0.00  0.00    +0.000 C 
ATOM     24  C   UNL     1      -1.061  -3.200   0.000  0.00  0.00    +0.000 C 
BRANCH  19  25
ATOM     25  C   UNL     1       0.466  -2.645   0.000  0.00  0.00    +0.000 C 
ATOM     26  O   UNL     1       1.181  -3.057   0.000  0.00  0.00    +0.000 OA
ATOM     27  N   UNL     1       0.466  -1.820   0.000  0.00  0.00    +0.000 NA
BRANCH  27  28
ATOM     28  C   UNL     1       1.181  -1.407   0.000  0.00  0.00    +0.000 C 
BRANCH  28  29
ATOM     29  C   UNL     1       1.895  -1.820   0.000  0.00  0.00    +0.000 C 
ATOM     30  N   UNL     1       2.610  -2.232   0.000  0.00  0.00    +0.000 NA
ENDBRANCH  28  29
ENDBRANCH  27  28
ENDBRANCH  19  25
ENDBRANCH  18  19
ENDBRANCH   4  16
TORSDOF 8
