REMARK  Name = 
REMARK  7 active torsions:
REMARK  status: ('A' for Active; 'I' for Inactive)
REMARK    1  A    between atoms: C_6  and  C_18
REMARK    2  A    between atoms: C_11  and  C_21
REMARK    3  A    between atoms: C_11  and  C_24
REMARK    4  A    between atoms: C_26  and  O_32
REMARK    5  A    between atoms: C_27  and  O_33
REMARK    6  A    between atoms: C_28  and  O_34
REMARK    7  A    between atoms: C_29  and  O_35
REMARK                            x       y       z     vdW  Elec       q    Type
REMARK                         _______ _______ _______ _____ _____    ______ ____
ROOT
ATOM      1  C   UNL     1       4.508   0.604   0.000  0.00  0.00    +0.000 C 
ATOM      2  C   UNL     1       3.683   0.604   0.000  0.00  0.00    +0.000 C 
ATOM      3  C   UNL     1       3.270  -1.540   0.000  0.00  0.00    +0.000 C 
ATOM      4  C   UNL     1       5.745  -0.111   0.000  0.00  0.00    +0.000 A 
ATOM      5  C   UNL     1       4.920  -1.540   0.000  0.00  0.00    +0.000 A 
ATOM      6  C   UNL     1       2.445  -0.111   0.000  0.00  0.00    +0.000 C 
ATOM      7  C   UNL     1       2.033  -0.825   0.000  0.00  0.00    +0.000 C 
ATOM      8  C   UNL     1       4.920  -0.111   0.000  0.00  0.00    +0.000 A 
ATOM      9  C   UNL     1       2.445  -1.540   0.000  0.00  0.00    +0.000 C 
ATOM     10  C   UNL     1       4.508  -0.825   0.000  0.00  0.00    +0.000 A 
ATOM     11  C   UNL     1       3.683  -0.825   0.000  0.00  0.00    +0.000 C 
ATOM     12  C   UNL     1       6.158  -0.825   0.000  0.00  0.00    +0.000 A 
ATOM     13  C   UNL     1       5.745  -1.540   0.000  0.00  0.00    +0.000 A 
ATOM     14  N   UNL     1       3.270  -0.111   0.000  0.00  0.00    +0.000 NA
ENDROOT
BRANCH  12  16
ATOM     15  C   UNL     1       7.395  -0.111   0.000  0.00  0.00    +0.000 C 
ATOM     16  O   UNL     1       6.983  -0.825   0.000  0.00  0.00    +0.000 OA
ENDBRANCH  12  16
BRANCH  13  18
ATOM     17  C   UNL     1       6.983  -2.254   0.000  0.00  0.00    +0.000 C 
ATOM     18  O   UNL     1       6.158  -2.254   0.000  0.00  0.00    +0.000 OA
ENDBRANCH  13  18
BRANCH   7  20
ATOM     19  C   UNL     1       0.795  -0.111   0.000  0.00  0.00    +0.000 C 
ATOM     20  C   UNL     1       1.208  -0.825   0.000  0.00  0.00    +0.000 C 
ENDBRANCH   7  20
BRANCH   9  21
ATOM     21  C   UNL     1       2.033  -2.254   0.000  0.00  0.00    +0.000 C 
BRANCH  21  28
ATOM     22  C   UNL     1      -0.442  -2.254   0.000  0.00  0.00    +0.000 C 
ATOM     23  C   UNL     1      -0.030  -1.540   0.000  0.00  0.00    +0.000 C 
ATOM     24  C   UNL     1      -0.442  -3.683   0.000  0.00  0.00    +0.000 A 
ATOM     25  C   UNL     1       1.208  -3.683   0.000  0.00  0.00    +0.000 A 
ATOM     26  C   UNL     1      -0.030  -2.968   0.000  0.00  0.00    +0.000 A 
ATOM     27  C   UNL     1       0.795  -2.968   0.000  0.00  0.00    +0.000 A 
ATOM     28  C   UNL     1       1.208  -2.254   0.000  0.00  0.00    +0.000 C 
ATOM     29  C   UNL     1      -0.030  -4.397   0.000  0.00  0.00    +0.000 A 
ATOM     30  C   UNL     1       0.795  -4.397   0.000  0.00  0.00    +0.000 A 
ATOM     31  N   UNL     1       0.795  -1.540   0.000  0.00  0.00    +0.000 NA
BRANCH  30  33
ATOM     32  C   UNL     1       0.795  -5.826   0.000  0.00  0.00    +0.000 C 
ATOM     33  O   UNL     1       1.208  -5.112   0.000  0.00  0.00    +0.000 OA
ENDBRANCH  30  33
BRANCH  29  35
ATOM     34  C   UNL     1      -0.030  -5.826   0.000  0.00  0.00    +0.000 C 
ATOM     35  O   UNL     1      -0.442  -5.112   0.000  0.00  0.00    +0.000 OA
ENDBRANCH  29  35
ENDBRANCH  21  28
ENDBRANCH   9  21
TORSDOF 7
