REMARK  Name = 
REMARK  0 active torsions:
REMARK  status: ('A' for Active; 'I' for Inactive)
REMARK                            x       y       z     vdW  Elec       q    Type
REMARK                         _______ _______ _______ _____ _____    ______ ____
ROOT
ATOM      1  C   UNL     1       0.363  -0.423   0.000  0.00  0.00    +0.000 A 
ATOM      2  C   UNL     1      -0.351  -0.828   0.000  0.00  0.00    +0.000 A 
ATOM      3  C   UNL     1       0.363   0.419   0.000  0.00  0.00    +0.000 A 
ATOM      4  C   UNL     1       1.070  -0.843   0.000  0.00  0.00    +0.000 C 
ATOM      5  C   UNL     1      -1.070  -0.423   0.000  0.00  0.00    +0.000 A 
ATOM      6 CL   UNL     1      -0.351  -1.647   0.000  0.00  0.00    +0.000 Cl
ATOM      7  C   UNL     1      -0.339   0.817   0.000  0.00  0.00    +0.000 A 
ATOM      8  C   UNL     1      -1.064   0.418   0.000  0.00  0.00    +0.000 A 
ATOM      9  O   UNL     1      -0.339   1.647   0.000  0.00  0.00    +0.000 OA
ENDROOT
TORSDOF 0
