REMARK  Name = 
REMARK  8 active torsions:
REMARK  status: ('A' for Active; 'I' for Inactive)
REMARK    1  A    between atoms: O_2  and  C_13
REMARK    2  A    between atoms: N_11  and  C_13
REMARK    3  A    between atoms: C_13  and  C_14
REMARK    4  A    between atoms: C_13  and  C_17
REMARK    5  A    between atoms: C_15  and  C_16
REMARK    6  A    between atoms: C_15  and  C_21
REMARK    7  A    between atoms: C_15  and  C_23
REMARK    8  A    between atoms: CA_20  and  C_26
REMARK                            x       y       z     vdW  Elec       q    Type
REMARK                         _______ _______ _______ _____ _____    ______ ____
ROOT
ATOM      1  C   UNL     1       1.167  -0.206   0.000  0.00  0.00    +0.000 C 
ENDROOT
BRANCH   1   4
ATOM      2  O   UNL     1       1.882  -1.444   0.000  0.00  0.00    +0.000 OA
ATOM      3  N   UNL     1       0.453  -1.444   0.000  0.00  0.00    +0.000 NA
ATOM      4  C   UNL     1       1.167  -1.031   0.000  0.00  0.00    +0.000 C 
ATOM      5  C   UNL     1       1.882  -2.269   0.000  0.00  0.00    +0.000 C 
ATOM      6  C   UNL     1       1.167  -2.681   0.000  0.00  0.00    +0.000 C 
ATOM      7  CA  UNL     1       0.453  -2.269   0.000  0.00  0.00    +0.000 C 
ATOM      8  C   UNL     1       1.167  -3.506   0.000  0.00  0.00    +0.000 C 
BRANCH   7  11
ATOM      9  O   UNL     1      -0.976  -2.269   0.000  0.00  0.00    +0.000 OA
ATOM     10  OXT UNL     1      -0.261  -3.506   0.000  0.00  0.00    +0.000 OA
ATOM     11  C   UNL     1      -0.261  -2.681   0.000  0.00  0.00    +0.000 C 
ENDBRANCH   7  11
ENDBRANCH   1   4
BRANCH   1  13
ATOM     12  O   UNL     1      -0.261   0.619   0.000  0.00  0.00    +0.000 OA
ATOM     13  N   UNL     1       1.167   0.619   0.000  0.00  0.00    +0.000 N 
ATOM     14  C   UNL     1       0.453   1.031   0.000  0.00  0.00    +0.000 C 
ATOM     15  H   UNL     1       1.610   0.875   0.000  0.00  0.00    +0.000 HD
BRANCH  14  16
ATOM     16  C   UNL     1       0.453   1.856   0.000  0.00  0.00    +0.000 C 
BRANCH  16  18
ATOM     17  O   UNL     1      -2.405   3.506   0.000  0.00  0.00    +0.000 OA
ATOM     18  C   UNL     1      -0.261   2.269   0.000  0.00  0.00    +0.000 A 
ATOM     19  C   UNL     1      -0.261   3.094   0.000  0.00  0.00    +0.000 A 
ATOM     20  C   UNL     1      -0.976   1.856   0.000  0.00  0.00    +0.000 A 
ATOM     21  C   UNL     1      -0.976   3.506   0.000  0.00  0.00    +0.000 A 
ATOM     22  C   UNL     1      -1.690   2.269   0.000  0.00  0.00    +0.000 A 
ATOM     23  C   UNL     1      -1.690   3.094   0.000  0.00  0.00    +0.000 A 
ENDBRANCH  16  18
BRANCH  16  26
ATOM     24  O   UNL     1       1.167   3.094   0.000  0.00  0.00    +0.000 OA
ATOM     25  O   UNL     1       1.882   1.856   0.000  0.00  0.00    +0.000 OA
ATOM     26  C   UNL     1       1.167   2.269   0.000  0.00  0.00    +0.000 C 
ENDBRANCH  16  26
ENDBRANCH  14  16
ENDBRANCH   1  13
BRANCH   1  29
ATOM     27  O   UNL     1       2.405   0.508   0.000  0.00  0.00    +0.000 OA
ATOM     28  O   UNL     1       2.405  -0.921   0.000  0.00  0.00    +0.000 OA
ATOM     29  C   UNL     1       1.992  -0.206   0.000  0.00  0.00    +0.000 C 
ENDBRANCH   1  29
BRANCH   1  30
ATOM     30  O   UNL     1       0.342  -0.206   0.000  0.00  0.00    +0.000 OA
ATOM     31  C   UNL     1      -0.070  -0.921   0.000  0.00  0.00    +0.000 C 
ENDBRANCH   1  30
TORSDOF 8
