REMARK  Name = 
REMARK  5 active torsions:
REMARK  status: ('A' for Active; 'I' for Inactive)
REMARK    1  A    between atoms: C_3  and  C_23
REMARK    2  A    between atoms: N_9  and  C_13
REMARK    3  A    between atoms: C_13  and  C_14
REMARK    4  A    between atoms: C_14  and  C_15
REMARK    5  A    between atoms: C_15  and  N_16
REMARK                            x       y       z     vdW  Elec       q    Type
REMARK                         _______ _______ _______ _____ _____    ______ ____
ROOT
ATOM      1  C   UNL     1      -1.627  -6.408   0.000  0.00  0.00    +0.000 C 
ATOM      2  C   UNL     1      -2.040  -5.693   0.000  0.00  0.00    +0.000 A 
ATOM      3  C   UNL     1      -1.704  -4.940   0.000  0.00  0.00    +0.000 A 
ATOM      4  N   UNL     1      -2.317  -4.388   0.000  0.00  0.00    +0.000 NA
ATOM      5  C   UNL     1      -3.032  -4.800   0.000  0.00  0.00    +0.000 A 
ATOM      6  C   UNL     1      -2.860  -5.607   0.000  0.00  0.00    +0.000 A 
ATOM      7  C   UNL     1      -3.384  -6.244   0.000  0.00  0.00    +0.000 C 
ATOM      8  O   UNL     1      -3.038  -6.993   0.000  0.00  0.00    +0.000 OA
ATOM      9  N   UNL     1      -4.209  -6.232   0.000  0.00  0.00    +0.000 N 
ATOM     10  C   UNL     1      -4.714  -5.579   0.000  0.00  0.00    +0.000 C 
ATOM     11  C   UNL     1      -4.518  -4.778   0.000  0.00  0.00    +0.000 C 
ATOM     12  C   UNL     1      -3.770  -4.431   0.000  0.00  0.00    +0.000 C 
ENDROOT
BRANCH   3  13
ATOM     13  C   UNL     1      -0.897  -4.768   0.000  0.00  0.00    +0.000 C 
ATOM     14  C   UNL     1      -0.642  -3.983   0.000  0.00  0.00    +0.000 C 
ATOM     15  C   UNL     1       0.142  -3.728   0.000  0.00  0.00    +0.000 A 
ATOM     16  C   UNL     1       0.857  -4.141   0.000  0.00  0.00    +0.000 A 
ATOM     17  C   UNL     1       1.571  -3.728   0.000  0.00  0.00    +0.000 A 
ATOM     18  C   UNL     1       1.571  -2.904   0.000  0.00  0.00    +0.000 A 
ATOM     19  C   UNL     1       0.857  -2.491   0.000  0.00  0.00    +0.000 A 
ATOM     20  C   UNL     1       0.142  -2.904   0.000  0.00  0.00    +0.000 A 
ATOM     21  N   UNL     1      -0.642  -2.649   0.000  0.00  0.00    +0.000 NA
ATOM     22  C   UNL     1      -1.127  -3.316   0.000  0.00  0.00    +0.000 C 
ATOM     23  O   UNL     1      -1.952  -3.316   0.000  0.00  0.00    +0.000 OA
ATOM     24  F   UNL     1       2.285  -4.141   0.000  0.00  0.00    +0.000 F 
ENDBRANCH   3  13
BRANCH   9  25
ATOM     25  C   UNL     1      -4.578  -6.970   0.000  0.00  0.00    +0.000 C 
BRANCH  25  26
ATOM     26  C   UNL     1      -5.402  -7.019   0.000  0.00  0.00    +0.000 C 
ATOM     27  O   UNL     1      -5.856  -6.331   0.000  0.00  0.00    +0.000 OA
BRANCH  26  28
ATOM     28  C   UNL     1      -5.771  -7.757   0.000  0.00  0.00    +0.000 C 
BRANCH  28  29
ATOM     29  N   UNL     1      -6.594  -7.806   0.000  0.00  0.00    +0.000 NA
ATOM     30  C   UNL     1      -6.963  -8.544   0.000  0.00  0.00    +0.000 C 
ATOM     31  C   UNL     1      -7.787  -8.594   0.000  0.00  0.00    +0.000 C 
ATOM     32  O   UNL     1      -8.242  -7.905   0.000  0.00  0.00    +0.000 OA
ATOM     33  C   UNL     1      -7.872  -7.167   0.000  0.00  0.00    +0.000 C 
ATOM     34  C   UNL     1      -7.049  -7.118   0.000  0.00  0.00    +0.000 C 
ENDBRANCH  28  29
ENDBRANCH  26  28
ENDBRANCH  25  26
ENDBRANCH   9  25
TORSDOF 5
