REMARK  Name = 
REMARK  3 active torsions:
REMARK  status: ('A' for Active; 'I' for Inactive)
REMARK    1  A    between atoms: O_1  and  C_2
REMARK    2  A    between atoms: C_4  and  O_5
REMARK    3  A    between atoms: C_8  and  O_9
REMARK                            x       y       z     vdW  Elec       q    Type
REMARK                         _______ _______ _______ _____ _____    ______ ____
ROOT
ATOM      1  C   UNL     1       0.357   0.619   0.000  0.00  0.00    +0.000 A 
ATOM      2  C   UNL     1      -0.360   1.031   0.000  0.00  0.00    +0.000 A 
ATOM      3  C   UNL     1      -1.070   0.619   0.000  0.00  0.00    +0.000 A 
ATOM      4  C   UNL     1      -1.070  -0.206   0.000  0.00  0.00    +0.000 A 
ATOM      5  C   UNL     1      -0.360  -0.619   0.000  0.00  0.00    +0.000 A 
ATOM      6  C   UNL     1       0.357  -0.206   0.000  0.00  0.00    +0.000 A 
ENDROOT
BRANCH   1   7
ATOM      7  O   UNL     1       1.071   1.032   0.000  0.00  0.00    +0.000 OA
ATOM      8  C   UNL     1       1.786   0.620   0.000  0.00  0.00    +0.000 C 
ENDBRANCH   1   7
BRANCH   3   9
ATOM      9  O   UNL     1      -1.785   1.030   0.000  0.00  0.00    +0.000 OA
ATOM     10  C   UNL     1      -1.786   1.855   0.000  0.00  0.00    +0.000 C 
ENDBRANCH   3   9
BRANCH   5  11
ATOM     11  O   UNL     1      -0.362  -1.444   0.000  0.00  0.00    +0.000 OA
ATOM     12  C   UNL     1      -1.078  -1.855   0.000  0.00  0.00    +0.000 C 
ENDBRANCH   5  11
TORSDOF 3
