REMARK  Name = 
REMARK  7 active torsions:
REMARK  status: ('A' for Active; 'I' for Inactive)
REMARK    1  A    between atoms: C_3  and  C_13
REMARK    2  A    between atoms: C_7  and  C_15
REMARK    3  A    between atoms: C_10  and  C_17
REMARK    4  A    between atoms: C_11  and  C_16
REMARK    5  A    between atoms: C_11  and  C_18
REMARK    6  A    between atoms: C_15  and  C_18
REMARK    7  A    between atoms: C_17  and  C_22
REMARK                            x       y       z     vdW  Elec       q    Type
REMARK                         _______ _______ _______ _____ _____    ______ ____
ROOT
ATOM      1  C   UNL     1       0.193  -1.745   0.000  0.00  0.00    +0.000 C 
ATOM      2  O   UNL     1       0.193  -2.557   0.000  0.00  0.00    +0.000 OA
ENDROOT
BRANCH   1   3
ATOM      3  C   UNL     1       0.938  -1.402   0.000  0.00  0.00    +0.000 A 
ATOM      4  C   UNL     1       0.938  -0.575   0.000  0.00  0.00    +0.000 A 
ATOM      5  C   UNL     1       1.706  -1.866   0.000  0.00  0.00    +0.000 A 
ATOM      6  C   UNL     1       2.412  -0.575   0.000  0.00  0.00    +0.000 A 
ATOM      7  C   UNL     1       2.412  -1.445   0.000  0.00  0.00    +0.000 A 
ATOM      8  C   UNL     1       1.687  -0.126   0.000  0.00  0.00    +0.000 A 
BRANCH   6   9
ATOM      9  C   UNL     1       3.113  -0.155   0.000  0.00  0.00    +0.000 C 
BRANCH   9  14
ATOM     10  N   UNL     1       3.485   1.890   0.000  0.00  0.00    +0.000 NA
ATOM     11  C   UNL     1       2.673   1.904   0.000  0.00  0.00    +0.000 C 
ATOM     12  C   UNL     1       3.736   1.150   0.000  0.00  0.00    +0.000 C 
ATOM     13  S   UNL     1       2.431   1.121   0.000  0.00  0.00    +0.000 S 
ATOM     14  C   UNL     1       3.098   0.672   0.000  0.00  0.00    +0.000 C 
ATOM     15  O   UNL     1       2.185   2.557   0.000  0.00  0.00    +0.000 OA
ATOM     16  O   UNL     1       4.529   0.909   0.000  0.00  0.00    +0.000 OA
ENDBRANCH   9  14
ENDBRANCH   6   9
ENDBRANCH   1   3
BRANCH   1  17
ATOM     17  C   UNL     1      -0.503  -1.257   0.000  0.00  0.00    +0.000 C 
BRANCH  17  18
ATOM     18  C   UNL     1      -1.266  -1.701   0.000  0.00  0.00    +0.000 C 
BRANCH  18  22
ATOM     19  N   UNL     1      -2.112  -0.474   0.000  0.00  0.00    +0.000 NA
ATOM     20  C   UNL     1      -2.905  -0.387   0.000  0.00  0.00    +0.000 A 
ATOM     21  O   UNL     1      -3.243  -1.126   0.000  0.00  0.00    +0.000 OA
ATOM     22  C   UNL     1      -1.933  -1.257   0.000  0.00  0.00    +0.000 A 
ATOM     23  C   UNL     1      -2.629  -1.677   0.000  0.00  0.00    +0.000 A 
ATOM     24  C   UNL     1      -2.716  -2.475   0.000  0.00  0.00    +0.000 C 
BRANCH  20  25
ATOM     25  C   UNL     1      -3.311   0.324   0.000  0.00  0.00    +0.000 A 
ATOM     26  C   UNL     1      -2.866   1.025   0.000  0.00  0.00    +0.000 A 
ATOM     27  C   UNL     1      -4.123   0.324   0.000  0.00  0.00    +0.000 A 
ATOM     28  C   UNL     1      -3.272   1.750   0.000  0.00  0.00    +0.000 A 
ATOM     29  C   UNL     1      -4.529   1.063   0.000  0.00  0.00    +0.000 A 
ATOM     30  C   UNL     1      -4.084   1.759   0.000  0.00  0.00    +0.000 A 
ENDBRANCH  20  25
ENDBRANCH  18  22
ENDBRANCH  17  18
ENDBRANCH   1  17
TORSDOF 7
