REMARK  Name = 
REMARK  9 active torsions:
REMARK  status: ('A' for Active; 'I' for Inactive)
REMARK    1  A    between atoms: C_2  and  O_3
REMARK    2  A    between atoms: O_3  and  C_4
REMARK    3  A    between atoms: C_4  and  C_5
REMARK    4  A    between atoms: C_4  and  C_29
REMARK    5  A    between atoms: C_5  and  C_6
REMARK    6  A    between atoms: C_9  and  O_12
REMARK    7  A    between atoms: O_12  and  C_13
REMARK    8  A    between atoms: C_13  and  C_14
REMARK    9  A    between atoms: C_14  and  N_15
REMARK                            x       y       z     vdW  Elec       q    Type
REMARK                         _______ _______ _______ _____ _____    ______ ____
ROOT
ATOM      1  C   UNL     1       1.429  -1.650   0.000  0.00  0.00    +0.000 C 
ENDROOT
BRANCH   1   2
ATOM      2  C   UNL     1       2.143  -1.238   0.000  0.00  0.00    +0.000 C 
BRANCH   2   3
ATOM      3  N   UNL     1       2.143  -0.412   0.000  0.00  0.00    +0.000 N 
ATOM      4  C   UNL     1       2.858   0.000   0.000  0.00  0.00    +0.000 A 
ATOM      5  C   UNL     1       3.572  -0.412   0.000  0.00  0.00    +0.000 A 
ATOM      6  C   UNL     1       4.287   0.000   0.000  0.00  0.00    +0.000 A 
ATOM      7  C   UNL     1       4.287   0.825   0.000  0.00  0.00    +0.000 A 
ATOM      8  C   UNL     1       3.572   1.238   0.000  0.00  0.00    +0.000 A 
ATOM      9  C   UNL     1       2.858   0.825   0.000  0.00  0.00    +0.000 A 
ATOM     10  O   UNL     1       2.143   1.238   0.000  0.00  0.00    +0.000 OA
ATOM     11  C   UNL     1       1.429   0.825   0.000  0.00  0.00    +0.000 A 
ATOM     12  C   UNL     1       1.429   0.000   0.000  0.00  0.00    +0.000 A 
ATOM     13  C   UNL     1       0.715  -0.412   0.000  0.00  0.00    +0.000 A 
ATOM     14  C   UNL     1       0.000   0.000   0.000  0.00  0.00    +0.000 A 
ATOM     15  C   UNL     1       0.000   0.825   0.000  0.00  0.00    +0.000 A 
ATOM     16  C   UNL     1       0.715   1.238   0.000  0.00  0.00    +0.000 A 
ENDBRANCH   2   3
ENDBRANCH   1   2
BRANCH   1  17
ATOM     17  O   UNL     1       1.429  -2.475   0.000  0.00  0.00    +0.000 OA
BRANCH  17  21
ATOM     18  C   UNL     1      -0.715  -3.712   0.000  0.00  0.00    +0.000 A 
ATOM     19  C   UNL     1      -0.715  -2.888   0.000  0.00  0.00    +0.000 A 
ATOM     20  C   UNL     1       0.000  -2.475   0.000  0.00  0.00    +0.000 A 
ATOM     21  C   UNL     1       0.715  -2.888   0.000  0.00  0.00    +0.000 A 
ATOM     22  C   UNL     1       0.715  -3.712   0.000  0.00  0.00    +0.000 A 
ATOM     23  C   UNL     1       0.000  -4.125   0.000  0.00  0.00    +0.000 A 
BRANCH  18  24
ATOM     24  C   UNL     1      -1.429  -4.125   0.000  0.00  0.00    +0.000 C 
BRANCH  24  25
ATOM     25  C   UNL     1      -1.429  -4.950   0.000  0.00  0.00    +0.000 C 
BRANCH  25  26
ATOM     26  C   UNL     1      -0.715  -5.362   0.000  0.00  0.00    +0.000 C 
ATOM     27  O   UNL     1       0.000  -4.950   0.000  0.00  0.00    +0.000 OA
ATOM     28  O   UNL     1      -0.715  -6.188   0.000  0.00  0.00    +0.000 OA
ENDBRANCH  25  26
BRANCH  25  29
ATOM     29  O   UNL     1      -2.143  -5.362   0.000  0.00  0.00    +0.000 OA
BRANCH  29  31
ATOM     30  C   UNL     1      -2.858  -6.600   0.000  0.00  0.00    +0.000 C 
ATOM     31  C   UNL     1      -2.143  -6.188   0.000  0.00  0.00    +0.000 C 
ENDBRANCH  29  31
ENDBRANCH  25  29
ENDBRANCH  24  25
ENDBRANCH  18  24
ENDBRANCH  17  21
ENDBRANCH   1  17
TORSDOF 9
