REMARK  Name = 
REMARK  7 active torsions:
REMARK  status: ('A' for Active; 'I' for Inactive)
REMARK    1  A    between atoms: C_17  and  C_22
REMARK    2  A    between atoms: C_18  and  N_27
REMARK    3  A    between atoms: C_19  and  O_33
REMARK    4  A    between atoms: C_21  and  S_34
REMARK    5  A    between atoms: C_23  and  O_33
REMARK    6  A    between atoms: N_28  and  S_34
REMARK    7  A    between atoms: C_41  and  S_45
REMARK                            x       y       z     vdW  Elec       q    Type
REMARK                         _______ _______ _______ _____ _____    ______ ____
ROOT
ATOM      1  C   UNL     1       0.613   1.388   0.000  0.00  0.00    +0.000 C 
ATOM      2  C   UNL     1      -2.245   1.388   0.000  0.00  0.00    +0.000 C 
ATOM      3  C   UNL     1      -0.102   0.151   0.000  0.00  0.00    +0.000 C 
ATOM      4  C   UNL     1      -1.531   0.151   0.000  0.00  0.00    +0.000 C 
ATOM      5  C   UNL     1      -0.102   0.976   0.000  0.00  0.00    +0.000 C 
ATOM      6  C   UNL     1      -1.531   0.976   0.000  0.00  0.00    +0.000 C 
ATOM      7  N   UNL     1      -0.816  -0.262   0.000  0.00  0.00    +0.000 N 
ATOM      8  N   UNL     1      -0.816   1.388   0.000  0.00  0.00    +0.000 NA
ENDROOT
BRANCH   7  13
ATOM      9  C   UNL     1      -1.531  -1.499   0.000  0.00  0.00    +0.000 A 
ATOM     10  C   UNL     1      -0.102  -1.499   0.000  0.00  0.00    +0.000 A 
ATOM     11  C   UNL     1      -1.531  -2.324   0.000  0.00  0.00    +0.000 A 
ATOM     12  C   UNL     1      -0.102  -2.324   0.000  0.00  0.00    +0.000 A 
ATOM     13  C   UNL     1      -0.816  -1.087   0.000  0.00  0.00    +0.000 A 
ATOM     14  C   UNL     1      -0.816  -2.736   0.000  0.00  0.00    +0.000 A 
BRANCH  14  15
ATOM     15  O   UNL     1      -0.816  -3.562   0.000  0.00  0.00    +0.000 OA
BRANCH  15  16
ATOM     16  C   UNL     1      -0.102  -3.974   0.000  0.00  0.00    +0.000 C 
ATOM     17  F   UNL     1       0.613  -4.386   0.000  0.00  0.00    +0.000 F 
ATOM     18  F   UNL     1       0.311  -3.260   0.000  0.00  0.00    +0.000 F 
ATOM     19  F   UNL     1      -0.514  -4.688   0.000  0.00  0.00    +0.000 F 
ENDBRANCH  15  16
ENDBRANCH  14  15
ENDBRANCH   7  13
BRANCH   8  22
ATOM     20  O   UNL     1       0.009   2.213   0.000  0.00  0.00    +0.000 OA
ATOM     21  O   UNL     1      -1.641   2.213   0.000  0.00  0.00    +0.000 OA
ATOM     22  S   UNL     1      -0.816   2.213   0.000  0.00  0.00    +0.000 S 
BRANCH  22  31
ATOM     23  C   UNL     1      -0.102   4.276   0.000  0.00  0.00    +0.000 A 
ATOM     24  C   UNL     1      -0.816   4.688   0.000  0.00  0.00    +0.000 A 
ATOM     25  C   UNL     1      -0.102   3.451   0.000  0.00  0.00    +0.000 A 
ATOM     26  C   UNL     1      -2.315   4.531   0.000  0.00  0.00    +0.000 C 
ATOM     27  C   UNL     1      -2.315   3.196   0.000  0.00  0.00    +0.000 C 
ATOM     28  C   UNL     1      -1.531   4.276   0.000  0.00  0.00    +0.000 A 
ATOM     29  C   UNL     1      -2.800   3.863   0.000  0.00  0.00    +0.000 C 
ATOM     30  C   UNL     1      -1.531   3.451   0.000  0.00  0.00    +0.000 A 
ATOM     31  C   UNL     1      -0.816   3.038   0.000  0.00  0.00    +0.000 A 
BRANCH  29  32
ATOM     32  C   UNL     1      -3.625   3.863   0.000  0.00  0.00    +0.000 C 
ATOM     33  O   UNL     1      -4.038   3.149   0.000  0.00  0.00    +0.000 OA
ATOM     34  O   UNL     1      -4.038   4.578   0.000  0.00  0.00    +0.000 OA
ENDBRANCH  29  32
ENDBRANCH  22  31
ENDBRANCH   8  22
TORSDOF 6
REMARK  Name = 
REMARK  7 active torsions:
REMARK  status: ('A' for Active; 'I' for Inactive)
REMARK    1  A    between atoms: C_17  and  C_22
REMARK    2  A    between atoms: C_18  and  N_27
REMARK    3  A    between atoms: C_19  and  O_33
REMARK    4  A    between atoms: C_21  and  S_34
REMARK    5  A    between atoms: C_23  and  O_33
REMARK    6  A    between atoms: N_28  and  S_34
REMARK    7  A    between atoms: C_41  and  S_45
REMARK                            x       y       z     vdW  Elec       q    Type
REMARK                         _______ _______ _______ _____ _____    ______ ____
ROOT
ATOM      1  C   UNL     1       3.213  -1.241   0.000  0.00  0.00    +0.000 C 
ATOM      2  C   UNL     1       3.927  -0.004   0.000  0.00  0.00    +0.000 A 
ATOM      3  C   UNL     1       2.498  -0.004   0.000  0.00  0.00    +0.000 A 
ATOM      4  C   UNL     1       3.927   0.821   0.000  0.00  0.00    +0.000 A 
ATOM      5  C   UNL     1       2.498   0.821   0.000  0.00  0.00    +0.000 A 
ATOM      6  C   UNL     1       3.213  -0.416   0.000  0.00  0.00    +0.000 A 
ATOM      7  C   UNL     1       3.213   1.234   0.000  0.00  0.00    +0.000 A 
ENDROOT
BRANCH   7  11
ATOM      8  O   UNL     1       3.213   2.884   0.000  0.00  0.00    +0.000 OA
ATOM      9  O   UNL     1       4.038   2.059   0.000  0.00  0.00    +0.000 OA
ATOM     10  O   UNL     1       2.388   2.059   0.000  0.00  0.00    +0.000 OA
ATOM     11  S   UNL     1       3.213   2.059   0.000  0.00  0.00    +0.000 S 
ENDBRANCH   7  11
TORSDOF 1
