REMARK  Name = 
REMARK  6 active torsions:
REMARK  status: ('A' for Active; 'I' for Inactive)
REMARK    1  A    between atoms: C_6  and  C_7
REMARK    2  A    between atoms: C_7  and  S_8
REMARK    3  A    between atoms: S_8  and  C_9
REMARK    4  A    between atoms: C_9  and  C_10
REMARK    5  A    between atoms: C_9  and  C_16
REMARK    6  A    between atoms: C_10  and  N_11
REMARK                            x       y       z     vdW  Elec       q    Type
REMARK                         _______ _______ _______ _____ _____    ______ ____
ROOT
ATOM      1  C   UNL     1       0.715  -1.238   0.000  0.00  0.00    +0.000 C 
ENDROOT
BRANCH   1   2
ATOM      2  C   UNL     1       0.715  -0.412   0.000  0.00  0.00    +0.000 A 
ATOM      3  C   UNL     1       0.000   0.000   0.000  0.00  0.00    +0.000 A 
ATOM      4  C   UNL     1       0.000   0.825   0.000  0.00  0.00    +0.000 A 
ATOM      5  C   UNL     1       0.715   1.238   0.000  0.00  0.00    +0.000 A 
ATOM      6  C   UNL     1       1.429   0.825   0.000  0.00  0.00    +0.000 A 
ATOM      7  C   UNL     1       1.429   0.000   0.000  0.00  0.00    +0.000 A 
ATOM      8 CL   UNL     1       0.715   2.062   0.000  0.00  0.00    +0.000 Cl
ATOM      9 CL   UNL     1      -0.715  -0.412   0.000  0.00  0.00    +0.000 Cl
ENDBRANCH   1   2
BRANCH   1  10
ATOM     10  S   UNL     1       0.000  -1.650   0.000  0.00  0.00    +0.000 S 
BRANCH  10  11
ATOM     11  C   UNL     1       0.000  -2.475   0.000  0.00  0.00    +0.000 C 
BRANCH  11  17
ATOM     12  C   UNL     1      -0.715  -3.712   0.000  0.00  0.00    +0.000 A 
ATOM     13  C   UNL     1      -1.429  -4.125   0.000  0.00  0.00    +0.000 A 
ATOM     14  C   UNL     1      -2.143  -3.712   0.000  0.00  0.00    +0.000 A 
ATOM     15  C   UNL     1      -2.143  -2.888   0.000  0.00  0.00    +0.000 A 
ATOM     16  C   UNL     1      -1.429  -2.475   0.000  0.00  0.00    +0.000 A 
ATOM     17  C   UNL     1      -0.715  -2.888   0.000  0.00  0.00    +0.000 A 
ATOM     18 CL   UNL     1      -2.858  -4.125   0.000  0.00  0.00    +0.000 Cl
ENDBRANCH  11  17
ENDBRANCH  10  11
ENDBRANCH   1  10
BRANCH   1  19
ATOM     19  C   UNL     1       1.429  -1.650   0.000  0.00  0.00    +0.000 C 
BRANCH  19  20
ATOM     20  N   UNL     1       1.429  -2.475   0.000  0.00  0.00    +0.000 N 
ATOM     21  C   UNL     1       2.096  -2.960   0.000  0.00  0.00    +0.000 A 
ATOM     22  C   UNL     1       1.841  -3.744   0.000  0.00  0.00    +0.000 A 
ATOM     23  N   UNL     1       1.016  -3.744   0.000  0.00  0.00    +0.000 NA
ATOM     24  C   UNL     1       0.761  -2.960   0.000  0.00  0.00    +0.000 A 
ENDBRANCH  19  20
ENDBRANCH   1  19
TORSDOF 6
