REMARK  Name = 
REMARK  6 active torsions:
REMARK  status: ('A' for Active; 'I' for Inactive)
REMARK    1  A    between atoms: C_9  and  C_25
REMARK    2  A    between atoms: C_10  and  O_11
REMARK    3  A    between atoms: O_11  and  C_12
REMARK    4  A    between atoms: C_12  and  C_13
REMARK    5  A    between atoms: C_15  and  C_16
REMARK    6  A    between atoms: N_26  and  C_27
REMARK                            x       y       z     vdW  Elec       q    Type
REMARK                         _______ _______ _______ _____ _____    ______ ____
ROOT
ATOM      1  C   UNL     1      -2.643   1.591   0.000  0.00  0.00    +0.000 A 
ATOM      2  C   UNL     1      -2.643   2.416   0.000  0.00  0.00    +0.000 A 
ATOM      3  C   UNL     1      -1.929   2.829   0.000  0.00  0.00    +0.000 A 
ATOM      4  C   UNL     1      -1.929   1.179   0.000  0.00  0.00    +0.000 A 
ATOM      5  C   UNL     1      -1.214   1.591   0.000  0.00  0.00    +0.000 A 
ATOM      6  C   UNL     1      -1.214   2.416   0.000  0.00  0.00    +0.000 A 
ATOM      7  S   UNL     1      -0.500   2.829   0.000  0.00  0.00    +0.000 S 
ATOM      8  N   UNL     1       0.215   2.416   0.000  0.00  0.00    +0.000 N 
ATOM      9  C   UNL     1       0.215   1.591   0.000  0.00  0.00    +0.000 C 
ATOM     10  C   UNL     1      -0.499   1.179   0.000  0.00  0.00    +0.000 C 
ATOM     11  O   UNL     1       0.031   3.461   0.000  0.00  0.00    +0.000 OA
ATOM     12  O   UNL     1      -1.030   3.461   0.000  0.00  0.00    +0.000 OA
ATOM     13  C   UNL     1       0.929   2.829   0.000  0.00  0.00    +0.000 C 
ENDROOT
BRANCH   9  14
ATOM     14  C   UNL     1       0.929   1.179   0.000  0.00  0.00    +0.000 C 
ATOM     15  N   UNL     1       0.929   0.354   0.000  0.00  0.00    +0.000 NA
ATOM     16  O   UNL     1       1.644   1.591   0.000  0.00  0.00    +0.000 OA
BRANCH  15  17
ATOM     17  C   UNL     1       1.704   0.071   0.000  0.00  0.00    +0.000 A 
ATOM     18  C   UNL     1       2.337   0.602   0.000  0.00  0.00    +0.000 A 
ATOM     19  C   UNL     1       3.112   0.320   0.000  0.00  0.00    +0.000 A 
ATOM     20  C   UNL     1       3.255  -0.493   0.000  0.00  0.00    +0.000 A 
ATOM     21  C   UNL     1       2.623  -1.023   0.000  0.00  0.00    +0.000 A 
ATOM     22  N   UNL     1       1.848  -0.741   0.000  0.00  0.00    +0.000 NA
ENDBRANCH  15  17
ENDBRANCH   9  14
BRANCH  10  23
ATOM     23  O   UNL     1      -0.499   0.353   0.000  0.00  0.00    +0.000 OA
BRANCH  23  24
ATOM     24  C   UNL     1      -1.275   0.071   0.000  0.00  0.00    +0.000 C 
ATOM     25  O   UNL     1      -1.717   0.443   0.000  0.00  0.00    +0.000 OA
BRANCH  24  26
ATOM     26  C   UNL     1      -1.418  -0.741   0.000  0.00  0.00    +0.000 C 
ATOM     27  C   UNL     1      -2.193  -1.023   0.000  0.00  0.00    +0.000 C 
BRANCH  27  28
ATOM     28  C   UNL     1      -2.337  -1.836   0.000  0.00  0.00    +0.000 A 
ATOM     29  C   UNL     1      -3.112  -2.118   0.000  0.00  0.00    +0.000 A 
ATOM     30  C   UNL     1      -3.255  -2.930   0.000  0.00  0.00    +0.000 A 
ATOM     31  C   UNL     1      -2.623  -3.461   0.000  0.00  0.00    +0.000 A 
ATOM     32  C   UNL     1      -1.848  -3.178   0.000  0.00  0.00    +0.000 A 
ATOM     33  C   UNL     1      -1.704  -2.366   0.000  0.00  0.00    +0.000 A 
ENDBRANCH  27  28
ENDBRANCH  24  26
ENDBRANCH  23  24
ENDBRANCH  10  23
TORSDOF 6
