REMARK  Name = 
REMARK  2 active torsions:
REMARK  status: ('A' for Active; 'I' for Inactive)
REMARK    1  A    between atoms: C_1  and  C_28
REMARK    2  A    between atoms: C_28  and  C_29
REMARK                            x       y       z     vdW  Elec       q    Type
REMARK                         _______ _______ _______ _____ _____    ______ ____
ROOT
ATOM      1  C   UNL     1       1.523   0.338   0.000  0.00  0.00    +0.000 C 
ATOM      2  C   UNL     1       0.725   0.097   0.000  0.00  0.00    +0.000 C 
ATOM      3  C   UNL     1       0.725  -0.725   0.000  0.00  0.00    +0.000 C 
ATOM      4  C   UNL     1      -1.426  -1.160   0.000  0.00  0.00    +0.000 C 
ATOM      5  C   UNL     1       0.024  -1.160   0.000  0.00  0.00    +0.000 C 
ATOM      6  C   UNL     1       1.982  -0.314   0.000  0.00  0.00    +0.000 C 
ATOM      7  C   UNL     1      -0.701  -0.725   0.000  0.00  0.00    +0.000 C 
ATOM      8  C   UNL     1      -1.426  -2.006   0.000  0.00  0.00    +0.000 C 
ATOM      9  C   UNL     1       0.024   0.507   0.000  0.00  0.00    +0.000 C 
ATOM     10  C   UNL     1      -0.701   0.097   0.000  0.00  0.00    +0.000 C 
ATOM     11  C   UNL     1      -2.151  -0.725   0.000  0.00  0.00    +0.000 C 
ATOM     12  C   UNL     1       1.523  -1.015   0.000  0.00  0.00    +0.000 C 
ATOM     13  C   UNL     1      -2.151  -2.393   0.000  0.00  0.00    +0.000 C 
ATOM     14  C   UNL     1       0.024  -2.006   0.000  0.00  0.00    +0.000 C 
ATOM     15  C   UNL     1      -2.876  -1.160   0.000  0.00  0.00    +0.000 C 
ATOM     16  C   UNL     1      -2.876  -2.006   0.000  0.00  0.00    +0.000 C 
ATOM     17  C   UNL     1      -0.701  -2.393   0.000  0.00  0.00    +0.000 C 
ATOM     18  O   UNL     1      -3.601  -2.417   0.000  0.00  0.00    +0.000 OA
ATOM     19  C   UNL     1       0.725   0.918   0.000  0.00  0.00    +0.000 C 
ATOM     20  O   UNL     1      -1.426   0.532   0.000  0.00  0.00    +0.000 OA
ATOM     21  C   UNL     1      -1.426  -0.314   0.000  0.00  0.00    +0.000 C 
ATOM     22  O   UNL     1       2.006   0.991   0.000  0.00  0.00    +0.000 OA
ATOM     23  C   UNL     1       2.780   0.725   0.000  0.00  0.00    +0.000 C 
ATOM     24  O   UNL     1       2.755  -0.072   0.000  0.00  0.00    +0.000 OA
ATOM     25  C   UNL     1       3.601   0.725   0.000  0.00  0.00    +0.000 C 
ATOM     26  C   UNL     1       3.360   1.305   0.000  0.00  0.00    +0.000 C 
ENDROOT
BRANCH   1  27
ATOM     27  C   UNL     1       1.523   1.184   0.000  0.00  0.00    +0.000 C 
ATOM     28  O   UNL     1       0.822   1.595   0.000  0.00  0.00    +0.000 OA
BRANCH  27  29
ATOM     29  C   UNL     1       2.224   1.595   0.000  0.00  0.00    +0.000 C 
ATOM     30  O   UNL     1       2.224   2.417   0.000  0.00  0.00    +0.000 OA
ENDBRANCH  27  29
ENDBRANCH   1  27
TORSDOF 2
