REMARK  Name = 
REMARK  5 active torsions:
REMARK  status: ('A' for Active; 'I' for Inactive)
REMARK    1  A    between atoms: C_2  and  C_3
REMARK    2  A    between atoms: C_2  and  O_29
REMARK    3  A    between atoms: C_3  and  N_4
REMARK    4  A    between atoms: C_8  and  C_19
REMARK    5  A    between atoms: C_21  and  C_25
REMARK                            x       y       z     vdW  Elec       q    Type
REMARK                         _______ _______ _______ _____ _____    ______ ____
ROOT
ATOM      1  N   UNL     1       0.955  -1.254   0.000  0.00  0.00    +0.000 N 
ATOM      2  C   UNL     1       1.488  -1.884   0.000  0.00  0.00    +0.000 A 
ATOM      3  C   UNL     1       2.312  -1.910   0.000  0.00  0.00    +0.000 A 
ATOM      4  C   UNL     1       2.747  -1.208   0.000  0.00  0.00    +0.000 A 
ATOM      5  C   UNL     1       3.571  -1.234   0.000  0.00  0.00    +0.000 A 
ATOM      6  C   UNL     1       3.962  -1.961   0.000  0.00  0.00    +0.000 A 
ATOM      7  C   UNL     1       3.527  -2.662   0.000  0.00  0.00    +0.000 A 
ATOM      8  C   UNL     1       2.702  -2.637   0.000  0.00  0.00    +0.000 A 
ATOM      9  N   UNL     1       2.268  -3.338   0.000  0.00  0.00    +0.000 NA
ATOM     10  C   UNL     1       1.443  -3.312   0.000  0.00  0.00    +0.000 A 
ATOM     11  C   UNL     1       1.053  -2.585   0.000  0.00  0.00    +0.000 A 
ATOM     12  N   UNL     1       0.252  -2.389   0.000  0.00  0.00    +0.000 N 
ATOM     13  C   UNL     1       0.191  -1.566   0.000  0.00  0.00    +0.000 A 
ATOM     14  O   UNL     1      -0.510  -1.131   0.000  0.00  0.00    +0.000 OA
ATOM     15  C   UNL     1      -0.378  -2.921   0.000  0.00  0.00    +0.000 C 
ENDROOT
BRANCH   5  16
ATOM     16  C   UNL     1       4.006  -0.533   0.000  0.00  0.00    +0.000 A 
ATOM     17  C   UNL     1       3.616   0.194   0.000  0.00  0.00    +0.000 A 
ATOM     18  C   UNL     1       4.051   0.895   0.000  0.00  0.00    +0.000 A 
ATOM     19  C   UNL     1       4.875   0.870   0.000  0.00  0.00    +0.000 A 
ATOM     20  N   UNL     1       5.265   0.142   0.000  0.00  0.00    +0.000 NA
ATOM     21  C   UNL     1       4.831  -0.559   0.000  0.00  0.00    +0.000 A 
BRANCH  18  22
ATOM     22  C   UNL     1       3.661   1.622   0.000  0.00  0.00    +0.000 C 
ATOM     23  C   UNL     1       3.271   2.349   0.000  0.00  0.00    +0.000 C 
ATOM     24  C   UNL     1       2.934   1.232   0.000  0.00  0.00    +0.000 C 
ATOM     25  O   UNL     1       4.388   2.012   0.000  0.00  0.00    +0.000 OA
ENDBRANCH  18  22
ENDBRANCH   5  16
BRANCH   1  26
ATOM     26  C   UNL     1       1.152  -0.453   0.000  0.00  0.00    +0.000 C 
BRANCH  26  28
ATOM     27  C   UNL     1      -0.236  -0.112   0.000  0.00  0.00    +0.000 C 
ATOM     28  C   UNL     1       0.556   0.118   0.000  0.00  0.00    +0.000 C 
BRANCH  28  29
ATOM     29  O   UNL     1       0.753   0.919   0.000  0.00  0.00    +0.000 OA
ATOM     30  C   UNL     1       0.157   1.490   0.000  0.00  0.00    +0.000 C 
ENDBRANCH  28  29
ENDBRANCH  26  28
ENDBRANCH   1  26
TORSDOF 5
