REMARK  Name = 
REMARK  8 active torsions:
REMARK  status: ('A' for Active; 'I' for Inactive)
REMARK    1  A    between atoms: C_4  and  C_7
REMARK    2  A    between atoms: C_7  and  C_30
REMARK    3  A    between atoms: C_10  and  C_21
REMARK    4  A    between atoms: C_12  and  C_13
REMARK    5  A    between atoms: N_14  and  C_15
REMARK    6  A    between atoms: C_15  and  C_16
REMARK    7  A    between atoms: N_17  and  C_18
REMARK    8  A    between atoms: C_18  and  C_19
REMARK                            x       y       z     vdW  Elec       q    Type
REMARK                         _______ _______ _______ _____ _____    ______ ____
ROOT
ATOM      1  C   UNL     1       0.283  -1.456   0.000  0.00  0.00    +0.000 A 
ATOM      2  C   UNL     1      -1.147  -0.629   0.000  0.00  0.00    +0.000 A 
ATOM      3  C   UNL     1      -1.149  -1.457   0.000  0.00  0.00    +0.000 A 
ATOM      4  C   UNL     1      -0.434  -1.869   0.000  0.00  0.00    +0.000 A 
ATOM      5  C   UNL     1       0.280  -0.625   0.000  0.00  0.00    +0.000 A 
ATOM      6  C   UNL     1      -0.435  -0.216   0.000  0.00  0.00    +0.000 A 
ATOM      7  C   UNL     1       0.992  -0.208   0.000  0.00  0.00    +0.000 C 
ENDROOT
BRANCH   2  11
ATOM      8  C   UNL     1      -3.130   0.208   0.000  0.00  0.00    +0.000 C 
ATOM      9  O   UNL     1      -2.650   0.872   0.000  0.00  0.00    +0.000 OA
ATOM     10  N   UNL     1      -1.865   0.616   0.000  0.00  0.00    +0.000 NA
ATOM     11  C   UNL     1      -1.865  -0.209   0.000  0.00  0.00    +0.000 C 
ATOM     12  C   UNL     1      -2.652  -0.464   0.000  0.00  0.00    +0.000 C 
BRANCH   8  16
ATOM     13  C   UNL     1      -5.269   1.446   0.000  0.00  0.00    +0.000 A 
ATOM     14  C   UNL     1      -5.270   0.619   0.000  0.00  0.00    +0.000 A 
ATOM     15  C   UNL     1      -4.555   0.206   0.000  0.00  0.00    +0.000 A 
ATOM     16  C   UNL     1      -3.838   0.619   0.000  0.00  0.00    +0.000 A 
ATOM     17  C   UNL     1      -3.841   1.450   0.000  0.00  0.00    +0.000 A 
ATOM     18  C   UNL     1      -4.557   1.859   0.000  0.00  0.00    +0.000 A 
ATOM     19 CL   UNL     1      -5.988   0.212   0.000  0.00  0.00    +0.000 Cl
ATOM     20 CL   UNL     1      -4.563   2.688   0.000  0.00  0.00    +0.000 Cl
ENDBRANCH   8  16
BRANCH   8  21
ATOM     21  C   UNL     1      -3.717  -0.375   0.000  0.00  0.00    +0.000 C 
ATOM     22  F   UNL     1      -3.508  -1.046   0.000  0.00  0.00    +0.000 F 
ATOM     23  F   UNL     1      -4.474  -0.233   0.000  0.00  0.00    +0.000 F 
ATOM     24  F   UNL     1      -4.305  -0.958   0.000  0.00  0.00    +0.000 F 
ENDBRANCH   8  21
ENDBRANCH   2  11
BRANCH   1  25
ATOM     25  C   UNL     1       0.995  -1.865   0.000  0.00  0.00    +0.000 C 
ATOM     26  N   UNL     1       1.708  -1.452   0.000  0.00  0.00    +0.000 NA
ATOM     27  O   UNL     1       0.988  -2.688   0.000  0.00  0.00    +0.000 OA
BRANCH  26  28
ATOM     28  C   UNL     1       2.420  -1.860   0.000  0.00  0.00    +0.000 C 
BRANCH  28  29
ATOM     29  C   UNL     1       3.133  -1.448   0.000  0.00  0.00    +0.000 C 
ATOM     30  N   UNL     1       3.845  -1.856   0.000  0.00  0.00    +0.000 NA
ATOM     31  O   UNL     1       3.125  -0.621   0.000  0.00  0.00    +0.000 OA
BRANCH  30  32
ATOM     32  C   UNL     1       4.558  -1.444   0.000  0.00  0.00    +0.000 C 
BRANCH  32  33
ATOM     33  C   UNL     1       5.273  -1.855   0.000  0.00  0.00    +0.000 C 
ATOM     34  F   UNL     1       5.988  -2.267   0.000  0.00  0.00    +0.000 F 
ATOM     35  F   UNL     1       4.861  -2.570   0.000  0.00  0.00    +0.000 F 
ATOM     36  F   UNL     1       5.685  -1.140   0.000  0.00  0.00    +0.000 F 
ENDBRANCH  32  33
ENDBRANCH  30  32
ENDBRANCH  28  29
ENDBRANCH  26  28
ENDBRANCH   1  25
TORSDOF 8
