REMARK  Name = 
REMARK  4 active torsions:
REMARK  status: ('A' for Active; 'I' for Inactive)
REMARK    1  A    between atoms: P_1  and  O_7
REMARK    2  A    between atoms: P_2  and  O_8
REMARK    3  A    between atoms: O_7  and  C_17
REMARK    4  A    between atoms: O_8  and  C_19
REMARK                            x       y       z     vdW  Elec       q    Type
REMARK                         _______ _______ _______ _____ _____    ______ ____
ROOT
ATOM      1  C   UNL     1       0.330  -0.412   0.000  0.00  0.00    +0.000 A 
ATOM      2  C   UNL     1       0.330   0.412   0.000  0.00  0.00    +0.000 A 
ATOM      3  C   UNL     1      -0.385  -0.825   0.000  0.00  0.00    +0.000 A 
ATOM      4  C   UNL     1      -1.099  -0.412   0.000  0.00  0.00    +0.000 A 
ATOM      5  C   UNL     1      -0.385   0.825   0.000  0.00  0.00    +0.000 A 
ATOM      6  C   UNL     1      -1.099   0.412   0.000  0.00  0.00    +0.000 A 
ATOM      7  C   UNL     1       1.067  -0.854   0.000  0.00  0.00    +0.000 A 
ATOM      8  C   UNL     1       1.067   0.854   0.000  0.00  0.00    +0.000 A 
ATOM      9  C   UNL     1      -1.814  -0.825   0.000  0.00  0.00    +0.000 C 
ATOM     10  C   UNL     1       1.815  -0.430   0.000  0.00  0.00    +0.000 A 
ATOM     11  C   UNL     1       1.815   0.430   0.000  0.00  0.00    +0.000 A 
ENDROOT
BRANCH   3  12
ATOM     12  O   UNL     1      -0.385  -1.650   0.000  0.00  0.00    +0.000 OA
BRANCH  12  13
ATOM     13  P   UNL     1      -1.099  -2.062   0.000  0.00  0.00    +0.000 P 
ATOM     14  O   UNL     1      -1.814  -2.475   0.000  0.00  0.00    +0.000 OA
ATOM     15  O   UNL     1      -0.687  -2.777   0.000  0.00  0.00    +0.000 OA
ATOM     16  O   UNL     1      -1.512  -1.348   0.000  0.00  0.00    +0.000 OA
ENDBRANCH  12  13
ENDBRANCH   3  12
BRANCH   5  17
ATOM     17  O   UNL     1      -0.385   1.650   0.000  0.00  0.00    +0.000 OA
BRANCH  17  18
ATOM     18  P   UNL     1      -1.099   2.062   0.000  0.00  0.00    +0.000 P 
ATOM     19  O   UNL     1      -1.814   2.475   0.000  0.00  0.00    +0.000 OA
ATOM     20  O   UNL     1      -0.687   2.777   0.000  0.00  0.00    +0.000 OA
ATOM     21  O   UNL     1      -1.512   1.348   0.000  0.00  0.00    +0.000 OA
ENDBRANCH  17  18
ENDBRANCH   5  17
TORSDOF 4
REMARK  Name = 
REMARK  4 active torsions:
REMARK  status: ('A' for Active; 'I' for Inactive)
REMARK    1  A    between atoms: P_1  and  O_7
REMARK    2  A    between atoms: P_2  and  O_8
REMARK    3  A    between atoms: O_7  and  C_17
REMARK    4  A    between atoms: O_8  and  C_19
REMARK                            x       y       z     vdW  Elec       q    Type
REMARK                         _______ _______ _______ _____ _____    ______ ____
ROOT
ATOM      1 NA   UNL     1      -1.814  -3.300   0.000  0.00  0.00    +0.000 Na
ENDROOT
TORSDOF 0
REMARK  Name = 
REMARK  4 active torsions:
REMARK  status: ('A' for Active; 'I' for Inactive)
REMARK    1  A    between atoms: P_1  and  O_7
REMARK    2  A    between atoms: P_2  and  O_8
REMARK    3  A    between atoms: O_7  and  C_17
REMARK    4  A    between atoms: O_8  and  C_19
REMARK                            x       y       z     vdW  Elec       q    Type
REMARK                         _______ _______ _______ _____ _____    ______ ____
ROOT
ATOM      1 NA   UNL     1       0.138  -2.777   0.000  0.00  0.00    +0.000 Na
ENDROOT
TORSDOF 0
REMARK  Name = 
REMARK  4 active torsions:
REMARK  status: ('A' for Active; 'I' for Inactive)
REMARK    1  A    between atoms: P_1  and  O_7
REMARK    2  A    between atoms: P_2  and  O_8
REMARK    3  A    between atoms: O_7  and  C_17
REMARK    4  A    between atoms: O_8  and  C_19
REMARK                            x       y       z     vdW  Elec       q    Type
REMARK                         _______ _______ _______ _____ _____    ______ ____
ROOT
ATOM      1 NA   UNL     1      -1.814   3.300   0.000  0.00  0.00    +0.000 Na
ENDROOT
TORSDOF 0
REMARK  Name = 
REMARK  4 active torsions:
REMARK  status: ('A' for Active; 'I' for Inactive)
REMARK    1  A    between atoms: P_1  and  O_7
REMARK    2  A    between atoms: P_2  and  O_8
REMARK    3  A    between atoms: O_7  and  C_17
REMARK    4  A    between atoms: O_8  and  C_19
REMARK                            x       y       z     vdW  Elec       q    Type
REMARK                         _______ _______ _______ _____ _____    ______ ____
ROOT
ATOM      1 NA   UNL     1       0.138   2.777   0.000  0.00  0.00    +0.000 Na
ENDROOT
TORSDOF 0
