REMARK  Name = 
REMARK  1 active torsions:
REMARK  status: ('A' for Active; 'I' for Inactive)
REMARK    1  A    between atoms: C_5  and  C_8
REMARK                            x       y       z     vdW  Elec       q    Type
REMARK                         _______ _______ _______ _____ _____    ______ ____
ROOT
ATOM      1  C   UNL     1       3.960   0.584   0.000  0.00  0.00    +0.000 A 
ATOM      2  C   UNL     1       3.705  -0.201   0.000  0.00  0.00    +0.000 A 
ATOM      3  C   UNL     1       2.898  -0.372   0.000  0.00  0.00    +0.000 A 
ATOM      4  C   UNL     1       2.346   0.241   0.000  0.00  0.00    +0.000 A 
ATOM      5  C   UNL     1       2.601   1.026   0.000  0.00  0.00    +0.000 A 
ATOM      6  N   UNL     1       1.934   1.510   0.000  0.00  0.00    +0.000 NA
ATOM      7  C   UNL     1       1.266   1.026   0.000  0.00  0.00    +0.000 A 
ATOM      8  C   UNL     1       1.521   0.241   0.000  0.00  0.00    +0.000 A 
ATOM      9  C   UNL     1       0.969  -0.372   0.000  0.00  0.00    +0.000 A 
ATOM     10  N   UNL     1       0.162  -0.201   0.000  0.00  0.00    +0.000 NA
ATOM     11  C   UNL     1      -0.092   0.584   0.000  0.00  0.00    +0.000 A 
ATOM     12  C   UNL     1       0.460   1.197   0.000  0.00  0.00    +0.000 A 
ATOM     13  C   UNL     1       3.408   1.197   0.000  0.00  0.00    +0.000 A 
ENDROOT
BRANCH   1  18
ATOM     14  F   UNL     1       7.188   1.270   0.000  0.00  0.00    +0.000 F 
ATOM     15  C   UNL     1       6.381   1.099   0.000  0.00  0.00    +0.000 A 
ATOM     16  C   UNL     1       6.126   0.314   0.000  0.00  0.00    +0.000 A 
ATOM     17  C   UNL     1       5.319   0.142   0.000  0.00  0.00    +0.000 A 
ATOM     18  C   UNL     1       4.767   0.756   0.000  0.00  0.00    +0.000 A 
ATOM     19  C   UNL     1       5.022   1.540   0.000  0.00  0.00    +0.000 A 
ATOM     20  N   UNL     1       5.829   1.712   0.000  0.00  0.00    +0.000 NA
ENDBRANCH   1  18
TORSDOF 1
