REMARK  Name = 
REMARK  0 active torsions:
REMARK  status: ('A' for Active; 'I' for Inactive)
REMARK                            x       y       z     vdW  Elec       q    Type
REMARK                         _______ _______ _______ _____ _____    ______ ____
ROOT
ATOM      1  I   UNL     1       2.337  -0.157   0.000  0.00  0.00    +0.000 I 
ATOM      2  O   UNL     1      -0.465   1.493   0.000  0.00  0.00    +0.000 OA
ATOM      3  N   UNL     1      -0.465  -0.982   0.000  0.00  0.00    +0.000 NA
ATOM      4  N   UNL     1       1.030   0.507   0.000  0.00  0.00    +0.000 NA
ATOM      5  N   UNL     1       1.030  -0.821   0.000  0.00  0.00    +0.000 NA
ATOM      6  N   UNL     1      -1.179   0.256   0.000  0.00  0.00    +0.000 NA
ATOM      7  N   UNL     1      -1.894  -0.982   0.000  0.00  0.00    +0.000 NA
ATOM      8  C   UNL     1       0.250   0.256   0.000  0.00  0.00    +0.000 A 
ATOM      9  C   UNL     1       0.250  -0.569   0.000  0.00  0.00    +0.000 A 
ATOM     10  C   UNL     1      -0.465   0.668   0.000  0.00  0.00    +0.000 A 
ATOM     11  C   UNL     1      -1.179  -0.569   0.000  0.00  0.00    +0.000 A 
ATOM     12  C   UNL     1       1.512  -0.157   0.000  0.00  0.00    +0.000 A 
ENDROOT
TORSDOF 0
