REMARK  Name = 
REMARK  6 active torsions:
REMARK  status: ('A' for Active; 'I' for Inactive)
REMARK    1  A    between atoms: O_2  and  C_3
REMARK    2  A    between atoms: C_5  and  O_6
REMARK    3  A    between atoms: C_10  and  C_11
REMARK    4  A    between atoms: N_17  and  C_18
REMARK    5  A    between atoms: C_23  and  N_24
REMARK    6  A    between atoms: C_25  and  C_27
REMARK                            x       y       z     vdW  Elec       q    Type
REMARK                         _______ _______ _______ _____ _____    ______ ____
ROOT
ATOM      1  C   UNL     1       0.715  -0.412   0.000  0.00  0.00    +0.000 A 
ATOM      2  C   UNL     1       1.429   0.000   0.000  0.00  0.00    +0.000 A 
ATOM      3  C   UNL     1       2.143  -0.412   0.000  0.00  0.00    +0.000 A 
ATOM      4  C   UNL     1       2.858   0.000   0.000  0.00  0.00    +0.000 A 
ATOM      5  N   UNL     1       3.572  -0.412   0.000  0.00  0.00    +0.000 NA
ATOM      6  C   UNL     1       3.572  -1.238   0.000  0.00  0.00    +0.000 A 
ATOM      7  N   UNL     1       4.287  -1.650   0.000  0.00  0.00    +0.000 NA
ATOM      8  N   UNL     1       2.858  -1.650   0.000  0.00  0.00    +0.000 NA
ATOM      9  C   UNL     1       2.143  -1.238   0.000  0.00  0.00    +0.000 A 
ATOM     10  C   UNL     1       1.429  -1.650   0.000  0.00  0.00    +0.000 A 
ATOM     11  C   UNL     1       0.715  -1.238   0.000  0.00  0.00    +0.000 A 
ENDROOT
BRANCH   1  17
ATOM     12  C   UNL     1      -1.429   0.000   0.000  0.00  0.00    +0.000 A 
ATOM     13  C   UNL     1      -1.429   0.825   0.000  0.00  0.00    +0.000 A 
ATOM     14  C   UNL     1      -0.715   1.238   0.000  0.00  0.00    +0.000 A 
ATOM     15  C   UNL     1       0.000   0.825   0.000  0.00  0.00    +0.000 A 
ATOM     16 CL   UNL     1       0.715   1.238   0.000  0.00  0.00    +0.000 Cl
ATOM     17  C   UNL     1       0.000   0.000   0.000  0.00  0.00    +0.000 A 
ATOM     18  C   UNL     1      -0.715  -0.412   0.000  0.00  0.00    +0.000 A 
ATOM     19 CL   UNL     1      -0.715  -1.238   0.000  0.00  0.00    +0.000 Cl
BRANCH  12  21
ATOM     20  C   UNL     1      -2.858   0.000   0.000  0.00  0.00    +0.000 C 
ATOM     21  O   UNL     1      -2.143  -0.412   0.000  0.00  0.00    +0.000 OA
ENDBRANCH  12  21
BRANCH  14  22
ATOM     22  O   UNL     1      -0.715   2.062   0.000  0.00  0.00    +0.000 OA
ATOM     23  C   UNL     1       0.000   2.475   0.000  0.00  0.00    +0.000 C 
ENDBRANCH  14  22
ENDBRANCH   1  17
BRANCH   7  24
ATOM     24  C   UNL     1       5.001  -1.238   0.000  0.00  0.00    +0.000 C 
ATOM     25  C   UNL     1       5.001  -0.412   0.000  0.00  0.00    +0.000 C 
ATOM     26  O   UNL     1       5.716   0.000   0.000  0.00  0.00    +0.000 OA
ATOM     27  C   UNL     1       6.430  -0.412   0.000  0.00  0.00    +0.000 C 
ATOM     28  C   UNL     1       6.430  -1.238   0.000  0.00  0.00    +0.000 C 
ATOM     29  C   UNL     1       5.716  -1.650   0.000  0.00  0.00    +0.000 C 
BRANCH  29  30
ATOM     30  N   UNL     1       5.716  -2.475   0.000  0.00  0.00    +0.000 NA
ATOM     31  C   UNL     1       6.430  -2.888   0.000  0.00  0.00    +0.000 C 
ATOM     32  O   UNL     1       7.145  -2.475   0.000  0.00  0.00    +0.000 OA
BRANCH  31  33
ATOM     33  C   UNL     1       6.430  -3.712   0.000  0.00  0.00    +0.000 C 
ATOM     34  C   UNL     1       7.145  -4.125   0.000  0.00  0.00    +0.000 C 
ENDBRANCH  31  33
ENDBRANCH  29  30
ENDBRANCH   7  24
TORSDOF 6
