REMARK  Name = 
REMARK  2 active torsions:
REMARK  status: ('A' for Active; 'I' for Inactive)
REMARK    1  A    between atoms: C_2  and  C_3
REMARK    2  A    between atoms: C_3  and  C_5
REMARK                            x       y       z     vdW  Elec       q    Type
REMARK                         _______ _______ _______ _____ _____    ______ ____
ROOT
ATOM      1  O   UNL     1       0.715   0.619   0.000  0.00  0.00    +0.000 OA
ATOM      2  C   UNL     1       0.715  -0.206   0.000  0.00  0.00    +0.000 C 
ATOM      3  C   UNL     1       1.429  -0.619   0.000  0.00  0.00    +0.000 C 
ENDROOT
BRANCH   2   4
ATOM      4  C   UNL     1       0.000  -0.619   0.000  0.00  0.00    +0.000 C 
BRANCH   4   5
ATOM      5  C   UNL     1      -0.715  -0.206   0.000  0.00  0.00    +0.000 C 
ATOM      6  O   UNL     1      -1.429  -0.619   0.000  0.00  0.00    +0.000 OA
ENDBRANCH   4   5
ENDBRANCH   2   4
TORSDOF 2
