REMARK  Name = 
REMARK  8 active torsions:
REMARK  status: ('A' for Active; 'I' for Inactive)
REMARK    1  A    between atoms: C_9  and  O_12
REMARK    2  A    between atoms: O_12  and  C_13
REMARK    3  A    between atoms: C_16  and  O_22
REMARK    4  A    between atoms: O_22  and  C_23
REMARK    5  A    between atoms: C_23  and  C_24
REMARK    6  A    between atoms: C_24  and  O_26
REMARK    7  A    between atoms: O_26  and  C_27
REMARK    8  A    between atoms: C_27  and  C_29
REMARK                            x       y       z     vdW  Elec       q    Type
REMARK                         _______ _______ _______ _____ _____    ______ ____
ROOT
ATOM      1  C   UNL     1      -6.067   0.849   0.000  0.00  0.00    +0.000 A 
ATOM      2  C   UNL     1      -5.242   0.849   0.000  0.00  0.00    +0.000 A 
ATOM      3  C   UNL     1      -4.690   1.462   0.000  0.00  0.00    +0.000 A 
ATOM      4  C   UNL     1      -3.936   1.127   0.000  0.00  0.00    +0.000 A 
ATOM      5  C   UNL     1      -4.022   0.306   0.000  0.00  0.00    +0.000 A 
ATOM      6  N   UNL     1      -4.829   0.135   0.000  0.00  0.00    +0.000 N 
ATOM      7  N   UNL     1      -5.242  -0.580   0.000  0.00  0.00    +0.000 NA
ATOM      8  C   UNL     1      -6.067  -0.580   0.000  0.00  0.00    +0.000 A 
ATOM      9  N   UNL     1      -6.479   0.135   0.000  0.00  0.00    +0.000 NA
ATOM     10  C   UNL     1      -4.861   2.269   0.000  0.00  0.00    +0.000 C 
ENDROOT
BRANCH   4  11
ATOM     11  O   UNL     1      -3.221   1.540   0.000  0.00  0.00    +0.000 OA
BRANCH  11  12
ATOM     12  C   UNL     1      -2.507   1.127   0.000  0.00  0.00    +0.000 C 
BRANCH  12  13
ATOM     13  C   UNL     1      -1.793   1.540   0.000  0.00  0.00    +0.000 C 
ATOM     14  C   UNL     1      -1.793   2.365   0.000  0.00  0.00    +0.000 C 
BRANCH  13  15
ATOM     15  O   UNL     1      -1.078   1.127   0.000  0.00  0.00    +0.000 OA
BRANCH  15  16
ATOM     16  C   UNL     1      -0.364   1.540   0.000  0.00  0.00    +0.000 C 
ATOM     17  O   UNL     1      -0.364   2.365   0.000  0.00  0.00    +0.000 OA
BRANCH  16  18
ATOM     18  C   UNL     1       0.351   1.127   0.000  0.00  0.00    +0.000 C 
ATOM     19  C   UNL     1       1.065   1.540   0.000  0.00  0.00    +0.000 C 
ATOM     20  N   UNL     1       0.351   0.302   0.000  0.00  0.00    +0.000 NA
ENDBRANCH  16  18
ENDBRANCH  15  16
ENDBRANCH  13  15
ENDBRANCH  12  13
ENDBRANCH  11  12
ENDBRANCH   4  11
BRANCH   1  21
ATOM     21  O   UNL     1      -6.479   1.564   0.000  0.00  0.00    +0.000 OA
BRANCH  21  30
ATOM     22  C   UNL     1     -10.562   0.159   0.000  0.00  0.00    +0.000 C 
ATOM     23  C   UNL     1      -9.847   0.572   0.000  0.00  0.00    +0.000 A 
ATOM     24  C   UNL     1      -9.094   0.236   0.000  0.00  0.00    +0.000 A 
ATOM     25  C   UNL     1      -8.542   0.849   0.000  0.00  0.00    +0.000 A 
ATOM     26  C   UNL     1      -8.954   1.564   0.000  0.00  0.00    +0.000 A 
ATOM     27  N   UNL     1      -9.761   1.392   0.000  0.00  0.00    +0.000 NA
ATOM     28  C   UNL     1      -8.542   2.278   0.000  0.00  0.00    +0.000 A 
ATOM     29  C   UNL     1      -7.717   2.278   0.000  0.00  0.00    +0.000 A 
ATOM     30  C   UNL     1      -7.304   1.564   0.000  0.00  0.00    +0.000 A 
ATOM     31  C   UNL     1      -7.717   0.849   0.000  0.00  0.00    +0.000 A 
ATOM     32  F   UNL     1      -7.304   0.135   0.000  0.00  0.00    +0.000 F 
ENDBRANCH  21  30
ENDBRANCH   1  21
TORSDOF 8
