REMARK  Name = 
REMARK  3 active torsions:
REMARK  status: ('A' for Active; 'I' for Inactive)
REMARK    1  A    between atoms: C_2  and  C_4
REMARK    2  A    between atoms: C_4  and  C_5
REMARK    3  A    between atoms: C_5  and  C_6
REMARK                            x       y       z     vdW  Elec       q    Type
REMARK                         _______ _______ _______ _____ _____    ______ ____
ROOT
ATOM      1  C   UNL     1      -0.356  -0.621   0.000  0.00  0.00    +0.000 C 
ATOM      2  C   UNL     1      -1.073  -0.208   0.000  0.00  0.00    +0.000 C 
ATOM      3  C   UNL     1      -1.783  -0.621   0.000  0.00  0.00    +0.000 C 
ATOM      4  C   UNL     1      -1.783  -1.446   0.000  0.00  0.00    +0.000 C 
ATOM      5  C   UNL     1      -1.073  -1.858   0.000  0.00  0.00    +0.000 C 
ATOM      6  C   UNL     1      -0.356  -1.446   0.000  0.00  0.00    +0.000 C 
ENDROOT
BRANCH   1   7
ATOM      7  C   UNL     1       0.358  -0.208   0.000  0.00  0.00    +0.000 C 
BRANCH   7   8
ATOM      8  C   UNL     1       0.357   0.620   0.000  0.00  0.00    +0.000 C 
BRANCH   8  10
ATOM      9  O   UNL     1       1.067   1.858   0.000  0.00  0.00    +0.000 OA
ATOM     10  C   UNL     1       1.068   1.030   0.000  0.00  0.00    +0.000 C 
ATOM     11  O   UNL     1       1.783   0.618   0.000  0.00  0.00    +0.000 OA
ENDBRANCH   8  10
ENDBRANCH   7   8
ENDBRANCH   1   7
TORSDOF 3
