REMARK  Name = 
REMARK  7 active torsions:
REMARK  status: ('A' for Active; 'I' for Inactive)
REMARK    1  A    between atoms: S_2  and  O_5
REMARK    2  A    between atoms: O_5  and  C_6
REMARK    3  A    between atoms: C_6  and  C_7
REMARK    4  A    between atoms: C_7  and  C_8
REMARK    5  A    between atoms: C_8  and  C_9
REMARK    6  A    between atoms: C_9  and  O_10
REMARK    7  A    between atoms: O_10  and  S_11
REMARK                            x       y       z     vdW  Elec       q    Type
REMARK                         _______ _______ _______ _____ _____    ______ ____
ROOT
ATOM      1  C   UNL     1       0.825   0.000   0.000  0.00  0.00    +0.000 C 
ATOM      2  O   UNL     1       0.000   0.000   0.000  0.00  0.00    +0.000 OA
ENDROOT
BRANCH   1   3
ATOM      3  C   UNL     1       1.238   0.715   0.000  0.00  0.00    +0.000 C 
ATOM      4  O   UNL     1       2.062   0.715   0.000  0.00  0.00    +0.000 OA
BRANCH   3   5
ATOM      5  C   UNL     1       0.825   1.429   0.000  0.00  0.00    +0.000 C 
BRANCH   5   6
ATOM      6  O   UNL     1       1.238   2.143   0.000  0.00  0.00    +0.000 OA
BRANCH   6   7
ATOM      7  S   UNL     1       0.825   2.858   0.000  0.00  0.00    +0.000 S 
ATOM      8  O   UNL     1       0.412   3.572   0.000  0.00  0.00    +0.000 OA
ATOM      9  O   UNL     1       1.540   3.270   0.000  0.00  0.00    +0.000 OA
ATOM     10  C   UNL     1       0.111   2.445   0.000  0.00  0.00    +0.000 C 
ENDBRANCH   6   7
ENDBRANCH   5   6
ENDBRANCH   3   5
ENDBRANCH   1   3
BRANCH   1  11
ATOM     11  C   UNL     1       1.238  -0.715   0.000  0.00  0.00    +0.000 C 
BRANCH  11  12
ATOM     12  O   UNL     1       0.825  -1.429   0.000  0.00  0.00    +0.000 OA
BRANCH  12  14
ATOM     13  C   UNL     1       1.650  -2.858   0.000  0.00  0.00    +0.000 C 
ATOM     14  S   UNL     1       1.238  -2.143   0.000  0.00  0.00    +0.000 S 
ATOM     15  O   UNL     1       1.952  -1.731   0.000  0.00  0.00    +0.000 OA
ATOM     16  O   UNL     1       0.523  -2.556   0.000  0.00  0.00    +0.000 OA
ENDBRANCH  12  14
ENDBRANCH  11  12
ENDBRANCH   1  11
TORSDOF 7
