REMARK  Name = 
REMARK  4 active torsions:
REMARK  status: ('A' for Active; 'I' for Inactive)
REMARK    1  A    between atoms: C_3  and  C_7
REMARK    2  A    between atoms: N_9  and  C_10
REMARK    3  A    between atoms: C_13  and  C_17
REMARK    4  A    between atoms: C_19  and  O_24
REMARK                            x       y       z     vdW  Elec       q    Type
REMARK                         _______ _______ _______ _____ _____    ______ ____
ROOT
ATOM      1  C   UNL     1       3.837  -4.118   0.000  0.00  0.00    +0.000 A 
ATOM      2  C   UNL     1       4.009  -3.311   0.000  0.00  0.00    +0.000 A 
ATOM      3  C   UNL     1       4.793  -3.056   0.000  0.00  0.00    +0.000 A 
ATOM      4  C   UNL     1       5.406  -3.608   0.000  0.00  0.00    +0.000 A 
ATOM      5  C   UNL     1       5.235  -4.415   0.000  0.00  0.00    +0.000 A 
ATOM      6  N   UNL     1       4.450  -4.670   0.000  0.00  0.00    +0.000 NA
ATOM      7  N   UNL     1       5.848  -4.967   0.000  0.00  0.00    +0.000 NA
ENDROOT
BRANCH   4   8
ATOM      8  C   UNL     1       6.191  -3.353   0.000  0.00  0.00    +0.000 A 
ATOM      9  C   UNL     1       6.362  -2.546   0.000  0.00  0.00    +0.000 A 
ATOM     10  C   UNL     1       7.147  -2.291   0.000  0.00  0.00    +0.000 A 
ATOM     11  C   UNL     1       7.760  -2.843   0.000  0.00  0.00    +0.000 A 
ATOM     12  C   UNL     1       7.589  -3.650   0.000  0.00  0.00    +0.000 A 
ATOM     13  C   UNL     1       6.804  -3.905   0.000  0.00  0.00    +0.000 A 
ATOM     14 CL   UNL     1       6.633  -4.712   0.000  0.00  0.00    +0.000 Cl
BRANCH  10  15
ATOM     15  O   UNL     1       7.319  -1.484   0.000  0.00  0.00    +0.000 OA
ATOM     16  C   UNL     1       6.706  -0.932   0.000  0.00  0.00    +0.000 C 
ENDBRANCH  10  15
ENDBRANCH   4   8
BRANCH   1  19
ATOM     17  C   UNL     1       2.881  -5.180   0.000  0.00  0.00    +0.000 C 
ATOM     18  O   UNL     1       3.494  -5.732   0.000  0.00  0.00    +0.000 OA
ATOM     19  N   UNL     1       3.053  -4.373   0.000  0.00  0.00    +0.000 NA
BRANCH  17  22
ATOM     20  C   UNL     1       1.429  -4.125   0.000  0.00  0.00    +0.000 C 
ATOM     21  N   UNL     1       1.429  -4.950   0.000  0.00  0.00    +0.000 N 
ATOM     22  C   UNL     1       2.096  -5.435   0.000  0.00  0.00    +0.000 A 
ATOM     23  C   UNL     1       1.841  -6.220   0.000  0.00  0.00    +0.000 A 
ATOM     24  C   UNL     1       1.016  -6.220   0.000  0.00  0.00    +0.000 A 
ATOM     25  N   UNL     1       0.761  -5.435   0.000  0.00  0.00    +0.000 NA
ENDBRANCH  17  22
ENDBRANCH   1  19
TORSDOF 4
