REMARK  Name = 
REMARK  7 active torsions:
REMARK  status: ('A' for Active; 'I' for Inactive)
REMARK    1  A    between atoms: C_1  and  C_16
REMARK    2  A    between atoms: C_16  and  C_17
REMARK    3  A    between atoms: C_17  and  C_18
REMARK    4  A    between atoms: C_18  and  N_19
REMARK    5  A    between atoms: N_19  and  C_20
REMARK    6  A    between atoms: C_20  and  C_21
REMARK    7  A    between atoms: C_25  and  O_26
REMARK                            x       y       z     vdW  Elec       q    Type
REMARK                         _______ _______ _______ _____ _____    ______ ____
ROOT
ATOM      1  C   UNL     1       0.433  -1.752   0.000  0.00  0.00    +0.000 C 
ATOM      2  C   UNL     1       0.842  -2.466   0.000  0.00  0.00    +0.000 C 
ATOM      3  C   UNL     1       1.648  -2.297   0.000  0.00  0.00    +0.000 C 
ATOM      4  C   UNL     1       1.737  -1.479   0.000  0.00  0.00    +0.000 C 
ATOM      5  C   UNL     1       0.986  -1.142   0.000  0.00  0.00    +0.000 C 
ATOM      6  C   UNL     1      -1.211  -1.744   0.000  0.00  0.00    +0.000 C 
ATOM      7  C   UNL     1      -0.802  -2.458   0.000  0.00  0.00    +0.000 C 
ATOM      8  O   UNL     1       0.017  -2.461   0.000  0.00  0.00    +0.000 OA
ATOM      9  C   UNL     1       0.023  -1.036   0.000  0.00  0.00    +0.000 C 
ATOM     10  C   UNL     1      -0.802  -1.032   0.000  0.00  0.00    +0.000 C 
ENDROOT
BRANCH  10  11
ATOM     11  C   UNL     1      -1.607  -0.808   0.000  0.00  0.00    +0.000 A 
ATOM     12  N   UNL     1      -1.610   0.017   0.000  0.00  0.00    +0.000 NA
ATOM     13  C   UNL     1      -2.325   0.426   0.000  0.00  0.00    +0.000 A 
ATOM     14  C   UNL     1      -3.038   0.010   0.000  0.00  0.00    +0.000 A 
ATOM     15  C   UNL     1      -3.030  -0.819   0.000  0.00  0.00    +0.000 A 
ATOM     16  C   UNL     1      -2.315  -1.223   0.000  0.00  0.00    +0.000 A 
ENDBRANCH  10  11
BRANCH  10  17
ATOM     17  C   UNL     1      -0.806  -0.202   0.000  0.00  0.00    +0.000 C 
BRANCH  17  18
ATOM     18  C   UNL     1      -0.092   0.215   0.000  0.00  0.00    +0.000 C 
BRANCH  18  19
ATOM     19  N   UNL     1      -0.096   1.042   0.000  0.00  0.00    +0.000 NA
BRANCH  19  20
ATOM     20  C   UNL     1       0.618   1.459   0.000  0.00  0.00    +0.000 C 
BRANCH  20  21
ATOM     21  C   UNL     1       1.337   1.050   0.000  0.00  0.00    +0.000 A 
ATOM     22  S   UNL     1       1.424   0.231   0.000  0.00  0.00    +0.000 S 
ATOM     23  C   UNL     1       2.234   0.063   0.000  0.00  0.00    +0.000 A 
ATOM     24  C   UNL     1       2.644   0.782   0.000  0.00  0.00    +0.000 A 
ATOM     25  C   UNL     1       2.087   1.394   0.000  0.00  0.00    +0.000 A 
BRANCH  25  26
ATOM     26  O   UNL     1       2.253   2.204   0.000  0.00  0.00    +0.000 OA
ATOM     27  C   UNL     1       3.038   2.466   0.000  0.00  0.00    +0.000 C 
ENDBRANCH  25  26
ENDBRANCH  20  21
ENDBRANCH  19  20
ENDBRANCH  18  19
ENDBRANCH  17  18
ENDBRANCH  10  17
TORSDOF 7
