REMARK  Name = 
REMARK  3 active torsions:
REMARK  status: ('A' for Active; 'I' for Inactive)
REMARK    1  A    between atoms: C_2  and  O_34
REMARK    2  A    between atoms: C_19  and  O_38
REMARK    3  A    between atoms: O_34  and  C_39
REMARK                            x       y       z     vdW  Elec       q    Type
REMARK                         _______ _______ _______ _____ _____    ______ ____
ROOT
ATOM      1  C   UNL     1      -2.352   0.762   0.000  0.00  0.00    +0.000 C 
ATOM      2  C   UNL     1      -2.352  -0.654   0.000  0.00  0.00    +0.000 C 
ATOM      3  C   UNL     1      -1.640  -1.062   0.000  0.00  0.00    +0.000 C 
ATOM      4  C   UNL     1      -1.327   1.359   0.000  0.00  0.00    +0.000 C 
ATOM      5  C   UNL     1      -1.335   2.538   0.000  0.00  0.00    +0.000 C 
ATOM      6  C   UNL     1      -0.623   2.950   0.000  0.00  0.00    +0.000 C 
ATOM      7  C   UNL     1       0.090   2.538   0.000  0.00  0.00    +0.000 C 
ATOM      8  C   UNL     1       0.802   2.950   0.000  0.00  0.00    +0.000 C 
ATOM      9  C   UNL     1       1.515   2.538   0.000  0.00  0.00    +0.000 C 
ATOM     10  C   UNL     1       2.227   2.950   0.000  0.00  0.00    +0.000 C 
ATOM     11  C   UNL     1       2.940   2.538   0.000  0.00  0.00    +0.000 C 
ATOM     12  C   UNL     1       3.652   2.950   0.000  0.00  0.00    +0.000 C 
ATOM     13  C   UNL     1       2.940   1.712   0.000  0.00  0.00    +0.000 C 
ATOM     14  O   UNL     1       2.225   1.300   0.000  0.00  0.00    +0.000 OA
ATOM     15  C   UNL     1       0.827  -2.950   0.000  0.00  0.00    +0.000 C 
ATOM     16  O   UNL     1      -0.202  -3.538   0.000  0.00  0.00    +0.000 OA
ATOM     17  C   UNL     1      -0.919  -3.125   0.000  0.00  0.00    +0.000 C 
ATOM     18  C   UNL     1      -0.923  -2.300   0.000  0.00  0.00    +0.000 C 
ATOM     19  C   UNL     1      -1.639  -1.888   0.000  0.00  0.00    +0.000 C 
ATOM     20  C   UNL     1       1.105  -0.817   0.000  0.00  0.00    +0.000 A 
ATOM     21  C   UNL     1       1.817  -0.404   0.000  0.00  0.00    +0.000 A 
ATOM     22  C   UNL     1       2.532  -0.813   0.000  0.00  0.00    +0.000 A 
ATOM     23  C   UNL     1       2.533  -1.640   0.000  0.00  0.00    +0.000 A 
ATOM     24  C   UNL     1       3.248  -2.051   0.000  0.00  0.00    +0.000 A 
ATOM     25  C   UNL     1       3.963  -1.636   0.000  0.00  0.00    +0.000 A 
ATOM     26  C   UNL     1       3.959  -0.806   0.000  0.00  0.00    +0.000 A 
ATOM     27  C   UNL     1       3.243  -0.399   0.000  0.00  0.00    +0.000 A 
ATOM     28  C   UNL     1       1.819  -2.057   0.000  0.00  0.00    +0.000 A 
ATOM     29  C   UNL     1       1.104  -1.647   0.000  0.00  0.00    +0.000 A 
ATOM     30  O   UNL     1       0.493  -2.200   0.000  0.00  0.00    +0.000 OA
ATOM     31  C   UNL     1       1.650  -2.863   0.000  0.00  0.00    +0.000 C 
ATOM     32  C   UNL     1       0.090   1.712   0.000  0.00  0.00    +0.000 C 
ATOM     33  O   UNL     1      -0.610   0.951   0.000  0.00  0.00    +0.000 OA
ATOM     34  C   UNL     1      -3.068   1.173   0.000  0.00  0.00    +0.000 C 
ATOM     35  O   UNL     1      -0.623   3.775   0.000  0.00  0.00    +0.000 OA
ATOM     36  C   UNL     1      -2.052   2.946   0.000  0.00  0.00    +0.000 C 
ATOM     37  O   UNL     1       1.810   0.425   0.000  0.00  0.00    +0.000 OA
ATOM     38  O   UNL     1       3.236   0.429   0.000  0.00  0.00    +0.000 OA
ATOM     39  N   UNL     1       4.499   0.692   0.000  0.00  0.00    +0.000 NA
ATOM     40  C   UNL     1       0.823  -3.775   0.000  0.00  0.00    +0.000 C 
ATOM     41  O   UNL     1       3.244  -2.875   0.000  0.00  0.00    +0.000 OA
ATOM     42  O   UNL     1       2.231  -3.446   0.000  0.00  0.00    +0.000 OA
ATOM     43  C   UNL     1       0.390  -0.404   0.000  0.00  0.00    +0.000 C 
ATOM     44  C   UNL     1      -0.926  -0.649   0.000  0.00  0.00    +0.000 C 
ENDROOT
BRANCH  19  45
ATOM     45  O   UNL     1      -2.354  -2.301   0.000  0.00  0.00    +0.000 OA
ATOM     46  C   UNL     1      -3.068  -1.889   0.000  0.00  0.00    +0.000 C 
ENDBRANCH  19  45
BRANCH   2  47
ATOM     47  O   UNL     1      -3.066  -1.068   0.000  0.00  0.00    +0.000 OA
BRANCH  47  48
ATOM     48  C   UNL     1      -3.785  -0.654   0.000  0.00  0.00    +0.000 C 
ATOM     49  O   UNL     1      -3.787   0.171   0.000  0.00  0.00    +0.000 OA
ATOM     50  C   UNL     1      -4.499  -1.068   0.000  0.00  0.00    +0.000 C 
ENDBRANCH  47  48
ENDBRANCH   2  47
TORSDOF 3
