REMARK  Name = 
REMARK  7 active torsions:
REMARK  status: ('A' for Active; 'I' for Inactive)
REMARK    1  A    between atoms: CG_2  and  CB_4
REMARK    2  A    between atoms: CB_4  and  CA_5
REMARK    3  A    between atoms: CA_9  and  CB_35
REMARK    4  A    between atoms: CA_13  and  CB_31
REMARK    5  A    between atoms: CA_24  and  CB_28
REMARK    6  A    between atoms: CB_31  and  CG_32
REMARK    7  A    between atoms: CB_35  and  CG_36
REMARK                            x       y       z     vdW  Elec       q    Type
REMARK                         _______ _______ _______ _____ _____    ______ ____
ROOT
ATOM      1  CA  LEU A   5      -1.060  -1.800   0.000  0.00  0.00    +0.000 C 
ATOM      2  C   LEU A   5      -0.647  -1.086   0.000  0.00  0.00    +0.000 C 
ATOM      3  O   LEU A   5       0.178  -1.086   0.000  0.00  0.00    +0.000 OA
ATOM      4  N   TRP A   1      -1.060  -0.371   0.000  0.00  0.00    +0.000 NA
ATOM      5  CA  TRP A   1      -0.805   0.413   0.000  0.00  0.00    +0.000 C 
ATOM      6  C   TRP A   1      -1.357   1.026   0.000  0.00  0.00    +0.000 C 
ATOM      7  O   TRP A   1      -1.102   1.811   0.000  0.00  0.00    +0.000 OA
ATOM      8  N   ASP A   2      -2.164   0.855   0.000  0.00  0.00    +0.000 NA
ATOM      9  CA  ASP A   2      -2.831   1.340   0.000  0.00  0.00    +0.000 C 
ATOM     10  C   ASP A   2      -3.585   1.004   0.000  0.00  0.00    +0.000 C 
ATOM     11  O   ASP A   2      -4.252   1.489   0.000  0.00  0.00    +0.000 OA
ATOM     12  N   PRO A   3      -3.671   0.184   0.000  0.00  0.00    +0.000 N 
ATOM     13  CD  PRO A   3      -3.926   0.968   0.000  0.00  0.00    +0.000 C 
ATOM     14  CG  PRO A   3      -4.751   0.968   0.000  0.00  0.00    +0.000 C 
ATOM     15  CB  PRO A   3      -5.006   0.184   0.000  0.00  0.00    +0.000 C 
ATOM     16  CA  PRO A   3      -4.338  -0.301   0.000  0.00  0.00    +0.000 C 
ATOM     17  C   PRO A   3      -4.252  -1.122   0.000  0.00  0.00    +0.000 C 
ATOM     18  O   PRO A   3      -4.920  -1.607   0.000  0.00  0.00    +0.000 OA
ATOM     19  N   VAL A   4      -3.499  -1.457   0.000  0.00  0.00    +0.000 NA
ATOM     20  CA  VAL A   4      -3.244  -2.242   0.000  0.00  0.00    +0.000 C 
ATOM     21  C   VAL A   4      -2.437  -2.413   0.000  0.00  0.00    +0.000 C 
ATOM     22  O   VAL A   4      -2.182  -3.198   0.000  0.00  0.00    +0.000 OA
ATOM     23  N   LEU A   5      -1.885  -1.800   0.000  0.00  0.00    +0.000 NA
ENDROOT
BRANCH  20  24
ATOM     24  CB  VAL A   4      -3.796  -2.855   0.000  0.00  0.00    +0.000 C 
ATOM     25  CG1 VAL A   4      -3.541  -3.640   0.000  0.00  0.00    +0.000 C 
ATOM     26  CG2 VAL A   4      -4.603  -2.684   0.000  0.00  0.00    +0.000 C 
ENDBRANCH  20  24
BRANCH   1  27
ATOM     27  CB  LEU A   5      -0.647  -2.515   0.000  0.00  0.00    +0.000 C 
BRANCH  27  29
ATOM     28  CD1 LEU A   5       0.590  -3.229   0.000  0.00  0.00    +0.000 C 
ATOM     29  CG  LEU A   5       0.178  -2.515   0.000  0.00  0.00    +0.000 C 
ATOM     30  CD2 LEU A   5       0.590  -1.800   0.000  0.00  0.00    +0.000 C 
ENDBRANCH  27  29
ENDBRANCH   1  27
BRANCH   5  31
ATOM     31  CB  TRP A   1       0.002   0.585   0.000  0.00  0.00    +0.000 C 
BRANCH  31  32
ATOM     32  CG  TRP A   1       0.257   1.369   0.000  0.00  0.00    +0.000 A 
ATOM     33  CD1 TRP A   1      -0.228   2.037   0.000  0.00  0.00    +0.000 A 
ATOM     34  NE1 TRP A   1       0.257   2.704   0.000  0.00  0.00    +0.000 NA
ATOM     35  CE2 TRP A   1       1.042   2.449   0.000  0.00  0.00    +0.000 A 
ATOM     36  CD2 TRP A   1       1.042   1.624   0.000  0.00  0.00    +0.000 A 
ATOM     37  CE3 TRP A   1       1.756   1.212   0.000  0.00  0.00    +0.000 A 
ATOM     38  CZ3 TRP A   1       2.471   1.624   0.000  0.00  0.00    +0.000 A 
ATOM     39  CH2 TRP A   1       2.471   2.449   0.000  0.00  0.00    +0.000 A 
ATOM     40  CZ2 TRP A   1       1.756   2.862   0.000  0.00  0.00    +0.000 A 
ENDBRANCH  31  32
ENDBRANCH   5  31
BRANCH   9  41
ATOM     41  CB  ASP A   2      -2.745   2.160   0.000  0.00  0.00    +0.000 C 
BRANCH  41  42
ATOM     42  CG  ASP A   2      -3.412   2.645   0.000  0.00  0.00    +0.000 C 
ATOM     43  OD1 ASP A   2      -3.326   3.466   0.000  0.00  0.00    +0.000 OA
ATOM     44  OD2 ASP A   2      -4.166   2.309   0.000  0.00  0.00    +0.000 OA
ENDBRANCH  41  42
ENDBRANCH   9  41
TORSDOF 7
