REMARK  Name = 
REMARK  0 active torsions:
REMARK  status: ('A' for Active; 'I' for Inactive)
REMARK                            x       y       z     vdW  Elec       q    Type
REMARK                         _______ _______ _______ _____ _____    ______ ____
ROOT
ATOM      1  C   UNL     1      -0.354   1.650   0.000  0.00  0.00    +0.000 C 
ATOM      2  C   UNL     1      -0.354   0.825   0.000  0.00  0.00    +0.000 C 
ATOM      3  N   UNL     1       0.357   0.413   0.000  0.00  0.00    +0.000 NA
ATOM      4  C   UNL     1       0.357  -0.412   0.000  0.00  0.00    +0.000 C 
ATOM      5  N   UNL     1       1.072  -0.825   0.000  0.00  0.00    +0.000 N 
ATOM      6  C   UNL     1       1.072  -1.650   0.000  0.00  0.00    +0.000 C 
ATOM      7  C   UNL     1       1.786  -0.412   0.000  0.00  0.00    +0.000 C 
ATOM      8  N   UNL     1      -0.353  -0.824   0.000  0.00  0.00    +0.000 NA
ATOM      9  C   UNL     1      -1.069  -0.416   0.000  0.00  0.00    +0.000 C 
ATOM     10  N   UNL     1      -1.786  -0.830   0.000  0.00  0.00    +0.000 NA
ATOM     11  N   UNL     1      -1.069   0.412   0.000  0.00  0.00    +0.000 NA
ENDROOT
TORSDOF 0
