REMARK  Name = 
REMARK  2 active torsions:
REMARK  status: ('A' for Active; 'I' for Inactive)
REMARK    1  A    between atoms: C_11  and  S_19
REMARK    2  A    between atoms: N_16  and  S_19
REMARK                            x       y       z     vdW  Elec       q    Type
REMARK                         _______ _______ _______ _____ _____    ______ ____
ROOT
ATOM      1  O   UNL     1      -1.540   5.362   0.000  0.00  0.00    +0.000 OA
ATOM      2  O   UNL     1       0.111   5.362   0.000  0.00  0.00    +0.000 OA
ATOM      3  S   UNL     1      -0.715   5.362   0.000  0.00  0.00    +0.000 S 
ENDROOT
BRANCH   3  12
ATOM      4  C   UNL     1      -2.143   8.662   0.000  0.00  0.00    +0.000 C 
ATOM      5  C   UNL     1      -3.572   6.188   0.000  0.00  0.00    +0.000 C 
ATOM      6  C   UNL     1      -1.429   7.425   0.000  0.00  0.00    +0.000 A 
ATOM      7  C   UNL     1      -2.143   7.838   0.000  0.00  0.00    +0.000 A 
ATOM      8  C   UNL     1      -2.858   6.600   0.000  0.00  0.00    +0.000 A 
ATOM      9  C   UNL     1      -1.429   6.600   0.000  0.00  0.00    +0.000 A 
ATOM     10  N   UNL     1      -2.858   7.425   0.000  0.00  0.00    +0.000 NA
ATOM     11  N   UNL     1      -2.143   6.188   0.000  0.00  0.00    +0.000 NA
ATOM     12  N   UNL     1      -0.715   6.188   0.000  0.00  0.00    +0.000 NA
ENDBRANCH   3  12
BRANCH   3  18
ATOM     13  C   UNL     1       0.000   3.300   0.000  0.00  0.00    +0.000 A 
ATOM     14  C   UNL     1      -1.429   3.300   0.000  0.00  0.00    +0.000 A 
ATOM     15  C   UNL     1       0.000   4.125   0.000  0.00  0.00    +0.000 A 
ATOM     16  C   UNL     1      -1.429   4.125   0.000  0.00  0.00    +0.000 A 
ATOM     17  C   UNL     1      -0.715   2.888   0.000  0.00  0.00    +0.000 A 
ATOM     18  C   UNL     1      -0.715   4.537   0.000  0.00  0.00    +0.000 A 
ATOM     19  N   UNL     1      -0.715   2.062   0.000  0.00  0.00    +0.000 NA
ENDBRANCH   3  18
TORSDOF 2
