REMARK  Name = 
REMARK  6 active torsions:
REMARK  status: ('A' for Active; 'I' for Inactive)
REMARK    1  A    between atoms: N_5  and  C_8
REMARK    2  A    between atoms: C_11  and  N_12
REMARK    3  A    between atoms: C_15  and  O_16
REMARK    4  A    between atoms: O_16  and  C_17
REMARK    5  A    between atoms: C_21  and  N_22
REMARK    6  A    between atoms: C_23  and  C_25
REMARK                            x       y       z     vdW  Elec       q    Type
REMARK                         _______ _______ _______ _____ _____    ______ ____
ROOT
ATOM      1  N   UNL     1       4.067   2.348   0.000  0.00  0.00    +0.000 NA
ATOM      2  C   UNL     1       3.352   1.935   0.000  0.00  0.00    +0.000 A 
ATOM      3  N   UNL     1       3.352   1.110   0.000  0.00  0.00    +0.000 NA
ATOM      4  C   UNL     1       2.638   0.698   0.000  0.00  0.00    +0.000 A 
ATOM      5  C   UNL     1       1.923   1.110   0.000  0.00  0.00    +0.000 A 
ATOM      6  O   UNL     1       1.139   0.856   0.000  0.00  0.00    +0.000 OA
ATOM      7  C   UNL     1       0.654   1.523   0.000  0.00  0.00    +0.000 A 
ATOM      8  C   UNL     1       1.139   2.190   0.000  0.00  0.00    +0.000 A 
ATOM      9  C   UNL     1       1.923   1.935   0.000  0.00  0.00    +0.000 A 
ATOM     10  N   UNL     1       2.638   2.348   0.000  0.00  0.00    +0.000 NA
ENDROOT
BRANCH   1  14
ATOM     11  C   UNL     1       4.067   4.823   0.000  0.00  0.00    +0.000 A 
ATOM     12  C   UNL     1       4.781   4.410   0.000  0.00  0.00    +0.000 A 
ATOM     13  C   UNL     1       4.781   3.585   0.000  0.00  0.00    +0.000 A 
ATOM     14  C   UNL     1       4.067   3.173   0.000  0.00  0.00    +0.000 A 
ATOM     15  C   UNL     1       3.352   3.585   0.000  0.00  0.00    +0.000 A 
ATOM     16  C   UNL     1       3.352   4.410   0.000  0.00  0.00    +0.000 A 
BRANCH  11  21
ATOM     17  C   UNL     1       4.067   8.123   0.000  0.00  0.00    +0.000 C 
ATOM     18  N   UNL     1       4.067   7.298   0.000  0.00  0.00    +0.000 NA
ATOM     19  C   UNL     1       4.781   6.885   0.000  0.00  0.00    +0.000 C 
ATOM     20  C   UNL     1       4.781   6.060   0.000  0.00  0.00    +0.000 C 
ATOM     21  N   UNL     1       4.067   5.648   0.000  0.00  0.00    +0.000 N 
ATOM     22  C   UNL     1       3.352   6.060   0.000  0.00  0.00    +0.000 C 
ATOM     23  C   UNL     1       3.352   6.885   0.000  0.00  0.00    +0.000 C 
ENDBRANCH  11  21
ENDBRANCH   1  14
BRANCH   4  24
ATOM     24  O   UNL     1       2.638  -0.127   0.000  0.00  0.00    +0.000 OA
BRANCH  24  25
ATOM     25  C   UNL     1       3.352  -0.540   0.000  0.00  0.00    +0.000 A 
ATOM     26  C   UNL     1       4.067  -0.127   0.000  0.00  0.00    +0.000 A 
ATOM     27  C   UNL     1       4.781  -0.540   0.000  0.00  0.00    +0.000 A 
ATOM     28  C   UNL     1       4.781  -1.365   0.000  0.00  0.00    +0.000 A 
ATOM     29  C   UNL     1       4.067  -1.777   0.000  0.00  0.00    +0.000 A 
ATOM     30  C   UNL     1       3.352  -1.365   0.000  0.00  0.00    +0.000 A 
BRANCH  29  31
ATOM     31  N   UNL     1       4.067  -2.602   0.000  0.00  0.00    +0.000 NA
ATOM     32  C   UNL     1       4.781  -3.015   0.000  0.00  0.00    +0.000 C 
ATOM     33  O   UNL     1       5.496  -2.602   0.000  0.00  0.00    +0.000 OA
BRANCH  32  34
ATOM     34  C   UNL     1       4.781  -3.840   0.000  0.00  0.00    +0.000 C 
ATOM     35  C   UNL     1       5.496  -4.252   0.000  0.00  0.00    +0.000 C 
ENDBRANCH  32  34
ENDBRANCH  29  31
ENDBRANCH  24  25
ENDBRANCH   4  24
TORSDOF 6
