REMARK  Name = 
REMARK  9 active torsions:
REMARK  status: ('A' for Active; 'I' for Inactive)
REMARK    1  A    between atoms: C_1  and  C_2
REMARK    2  A    between atoms: C_2  and  C_3
REMARK    3  A    between atoms: C_3  and  C_4
REMARK    4  A    between atoms: C_4  and  C_5
REMARK    5  A    between atoms: C_6  and  C_10
REMARK    6  A    between atoms: C_6  and  C_15
REMARK    7  A    between atoms: C_17  and  N_21
REMARK    8  A    between atoms: N_23  and  C_24
REMARK    9  A    between atoms: N_28  and  C_29
REMARK                            x       y       z     vdW  Elec       q    Type
REMARK                         _______ _______ _______ _____ _____    ______ ____
ROOT
ATOM      1  C   UNL     1      -1.072  -1.238   0.000  0.00  0.00    +0.000 A 
ATOM      2  C   UNL     1      -0.357  -0.825   0.000  0.00  0.00    +0.000 A 
ATOM      3  C   UNL     1       0.357  -1.238   0.000  0.00  0.00    +0.000 A 
ATOM      4  C   UNL     1       0.357  -2.062   0.000  0.00  0.00    +0.000 A 
ATOM      5  C   UNL     1      -0.357  -2.475   0.000  0.00  0.00    +0.000 A 
ATOM      6  C   UNL     1      -1.072  -2.062   0.000  0.00  0.00    +0.000 A 
ENDROOT
BRANCH   3   7
ATOM      7  N   UNL     1       1.072  -0.825   0.000  0.00  0.00    +0.000 NA
ATOM      8  C   UNL     1       1.786  -1.238   0.000  0.00  0.00    +0.000 C 
ATOM      9  N   UNL     1       2.501  -0.825   0.000  0.00  0.00    +0.000 NA
ATOM     10  N   UNL     1       1.786  -2.062   0.000  0.00  0.00    +0.000 NA
BRANCH   9  11
ATOM     11  C   UNL     1       3.215  -1.237   0.000  0.00  0.00    +0.000 C 
ATOM     12  C   UNL     1       2.803  -1.952   0.000  0.00  0.00    +0.000 C 
ATOM     13  C   UNL     1       3.628  -0.523   0.000  0.00  0.00    +0.000 C 
ATOM     14  C   UNL     1       3.929  -1.650   0.000  0.00  0.00    +0.000 C 
ENDBRANCH   9  11
BRANCH  10  15
ATOM     15  C   UNL     1       2.501  -2.475   0.000  0.00  0.00    +0.000 C 
ATOM     16  N   UNL     1       3.215  -2.888   0.000  0.00  0.00    +0.000 NA
ENDBRANCH  10  15
ENDBRANCH   3   7
BRANCH   1  18
ATOM     17  C   UNL     1      -1.786   0.000   0.000  0.00  0.00    +0.000 C 
ATOM     18  C   UNL     1      -1.786  -0.825   0.000  0.00  0.00    +0.000 C 
BRANCH  18  20
ATOM     19  C   UNL     1      -3.215  -0.825   0.000  0.00  0.00    +0.000 A 
ATOM     20  C   UNL     1      -2.501  -1.238   0.000  0.00  0.00    +0.000 A 
ATOM     21  C   UNL     1      -2.501  -2.062   0.000  0.00  0.00    +0.000 A 
ATOM     22  C   UNL     1      -3.215  -2.475   0.000  0.00  0.00    +0.000 A 
ATOM     23  C   UNL     1      -3.929  -2.062   0.000  0.00  0.00    +0.000 A 
ATOM     24  N   UNL     1      -3.929  -1.238   0.000  0.00  0.00    +0.000 NA
ENDBRANCH  18  20
BRANCH  17  25
ATOM     25  C   UNL     1      -1.072   0.412   0.000  0.00  0.00    +0.000 C 
BRANCH  25  26
ATOM     26  C   UNL     1      -1.072   1.237   0.000  0.00  0.00    +0.000 C 
BRANCH  26  27
ATOM     27  C   UNL     1      -0.357   1.650   0.000  0.00  0.00    +0.000 C 
BRANCH  27  28
ATOM     28  C   UNL     1      -0.357   2.475   0.000  0.00  0.00    +0.000 C 
ATOM     29  O   UNL     1      -1.072   2.888   0.000  0.00  0.00    +0.000 OA
ATOM     30  O   UNL     1       0.357   2.888   0.000  0.00  0.00    +0.000 OA
ENDBRANCH  27  28
ENDBRANCH  26  27
ENDBRANCH  25  26
ENDBRANCH  17  25
ENDBRANCH   1  18
TORSDOF 9
