REMARK  Name = 
REMARK  8 active torsions:
REMARK  status: ('A' for Active; 'I' for Inactive)
REMARK    1  A    between atoms: O_3  and  C_21
REMARK    2  A    between atoms: N_5  and  C_17
REMARK    3  A    between atoms: N_6  and  C_11
REMARK    4  A    between atoms: N_6  and  C_19
REMARK    5  A    between atoms: N_7  and  C_18
REMARK    6  A    between atoms: N_9  and  C_28
REMARK    7  A    between atoms: C_17  and  C_18
REMARK    8  A    between atoms: C_20  and  C_21
REMARK                            x       y       z     vdW  Elec       q    Type
REMARK                         _______ _______ _______ _____ _____    ______ ____
ROOT
ATOM      1  N   UNL     1       0.011  -0.098   0.000  0.00  0.00    +0.000 NA
ATOM      2  C   UNL     1       0.011   1.552   0.000  0.00  0.00    +0.000 C 
ATOM      3  C   UNL     1      -0.703   1.139   0.000  0.00  0.00    +0.000 C 
ATOM      4  C   UNL     1       0.726   1.139   0.000  0.00  0.00    +0.000 C 
ATOM      5  C   UNL     1      -0.703   0.314   0.000  0.00  0.00    +0.000 C 
ATOM      6  C   UNL     1       0.726   0.314   0.000  0.00  0.00    +0.000 C 
ATOM      7  C   UNL     1      -1.417   1.552   0.000  0.00  0.00    +0.000 C 
ENDROOT
BRANCH   2   9
ATOM      8  O   UNL     1      -1.417   2.377   0.000  0.00  0.00    +0.000 OA
ATOM      9  N   UNL     1       0.011   2.377   0.000  0.00  0.00    +0.000 N 
ATOM     10  C   UNL     1      -0.703   2.789   0.000  0.00  0.00    +0.000 C 
BRANCH   9  12
ATOM     11  F   UNL     1       1.440   1.552   0.000  0.00  0.00    +0.000 F 
ATOM     12  C   UNL     1       0.726   2.789   0.000  0.00  0.00    +0.000 A 
ATOM     13  C   UNL     1       1.440   2.377   0.000  0.00  0.00    +0.000 A 
ATOM     14  C   UNL     1       0.726   3.614   0.000  0.00  0.00    +0.000 A 
ATOM     15  C   UNL     1       2.155   2.789   0.000  0.00  0.00    +0.000 A 
ATOM     16  C   UNL     1       1.440   4.027   0.000  0.00  0.00    +0.000 A 
ATOM     17  C   UNL     1       2.155   3.614   0.000  0.00  0.00    +0.000 A 
ENDBRANCH   9  12
BRANCH  10  18
ATOM     18  C   UNL     1      -0.703   3.614   0.000  0.00  0.00    +0.000 C 
BRANCH  18  19
ATOM     19  O   UNL     1      -1.417   4.027   0.000  0.00  0.00    +0.000 OA
ATOM     20  C   UNL     1      -1.417   4.851   0.000  0.00  0.00    +0.000 C 
ENDBRANCH  18  19
ENDBRANCH  10  18
ENDBRANCH   2   9
BRANCH   1  21
ATOM     21  C   UNL     1       0.011  -0.923   0.000  0.00  0.00    +0.000 C 
BRANCH  21  22
ATOM     22  C   UNL     1      -0.703  -1.336   0.000  0.00  0.00    +0.000 C 
BRANCH  22  24
ATOM     23  O   UNL     1      -2.155  -2.391   0.000  0.00  0.00    +0.000 OA
ATOM     24  N   UNL     1      -0.703  -2.161   0.000  0.00  0.00    +0.000 N 
ATOM     25  N   UNL     1      -0.035  -2.646   0.000  0.00  0.00    +0.000 NA
ATOM     26  N   UNL     1      -1.115  -3.430   0.000  0.00  0.00    +0.000 N 
ATOM     27  N   UNL     1      -0.290  -3.430   0.000  0.00  0.00    +0.000 NA
ATOM     28  C   UNL     1      -1.370  -2.646   0.000  0.00  0.00    +0.000 A 
BRANCH  26  29
ATOM     29  C   UNL     1      -1.600  -4.098   0.000  0.00  0.00    +0.000 C 
ATOM     30  C   UNL     1      -1.265  -4.851   0.000  0.00  0.00    +0.000 C 
ENDBRANCH  26  29
ENDBRANCH  22  24
ENDBRANCH  21  22
ENDBRANCH   1  21
TORSDOF 8
