REMARK  Name = 
REMARK  5 active torsions:
REMARK  status: ('A' for Active; 'I' for Inactive)
REMARK    1  A    between atoms: C_13  and  C_14
REMARK    2  A    between atoms: C_13  and  N_22
REMARK    3  A    between atoms: C_14  and  N_20
REMARK    4  A    between atoms: C_15  and  S_26
REMARK    5  A    between atoms: N_21  and  S_26
REMARK                            x       y       z     vdW  Elec       q    Type
REMARK                         _______ _______ _______ _____ _____    ______ ____
ROOT
ATOM      1  C   UNL     1       5.001   1.238   0.000  0.00  0.00    +0.000 A 
ATOM      2  C   UNL     1       5.001   2.062   0.000  0.00  0.00    +0.000 A 
ATOM      3  C   UNL     1       4.287   0.825   0.000  0.00  0.00    +0.000 A 
ATOM      4  C   UNL     1       4.287   2.475   0.000  0.00  0.00    +0.000 A 
ATOM      5  C   UNL     1       0.715   2.062   0.000  0.00  0.00    +0.000 A 
ATOM      6  C   UNL     1       1.429   2.475   0.000  0.00  0.00    +0.000 A 
ATOM      7  C   UNL     1       1.429   0.825   0.000  0.00  0.00    +0.000 A 
ATOM      8  C   UNL     1       0.715   1.238   0.000  0.00  0.00    +0.000 A 
ATOM      9  C   UNL     1       3.572   1.238   0.000  0.00  0.00    +0.000 A 
ATOM     10  C   UNL     1       2.143   1.238   0.000  0.00  0.00    +0.000 A 
ATOM     11  C   UNL     1       3.572   2.062   0.000  0.00  0.00    +0.000 A 
ATOM     12  C   UNL     1       2.143   2.062   0.000  0.00  0.00    +0.000 A 
ATOM     13  N   UNL     1       2.858   0.825   0.000  0.00  0.00    +0.000 N 
ATOM     14  S   UNL     1       2.858   2.475   0.000  0.00  0.00    +0.000 S 
ENDROOT
BRANCH   8  17
ATOM     15  O   UNL     1      -0.412   1.540   0.000  0.00  0.00    +0.000 OA
ATOM     16  O   UNL     1       0.412   0.111   0.000  0.00  0.00    +0.000 OA
ATOM     17  S   UNL     1       0.000   0.825   0.000  0.00  0.00    +0.000 S 
BRANCH  17  20
ATOM     18  C   UNL     1      -0.715  -0.412   0.000  0.00  0.00    +0.000 C 
ATOM     19  C   UNL     1      -1.429   0.825   0.000  0.00  0.00    +0.000 C 
ATOM     20  N   UNL     1      -0.715   0.412   0.000  0.00  0.00    +0.000 NA
ENDBRANCH  17  20
ENDBRANCH   8  17
BRANCH  13  21
ATOM     21  C   UNL     1       2.858   0.000   0.000  0.00  0.00    +0.000 C 
BRANCH  21  23
ATOM     22  C   UNL     1       4.287   0.000   0.000  0.00  0.00    +0.000 C 
ATOM     23  C   UNL     1       3.572  -0.412   0.000  0.00  0.00    +0.000 C 
BRANCH  23  26
ATOM     24  C   UNL     1       4.287  -1.650   0.000  0.00  0.00    +0.000 C 
ATOM     25  C   UNL     1       2.858  -1.650   0.000  0.00  0.00    +0.000 C 
ATOM     26  N   UNL     1       3.572  -1.238   0.000  0.00  0.00    +0.000 NA
ENDBRANCH  23  26
ENDBRANCH  21  23
ENDBRANCH  13  21
TORSDOF 5
