REMARK  Name = 
REMARK  8 active torsions:
REMARK  status: ('A' for Active; 'I' for Inactive)
REMARK    1  A    between atoms: C_2  and  C_3
REMARK    2  A    between atoms: C_3  and  N_4
REMARK    3  A    between atoms: C_5  and  C_6
REMARK    4  A    between atoms: C_5  and  N_8
REMARK    5  A    between atoms: N_9  and  C_10
REMARK    6  A    between atoms: C_10  and  C_11
REMARK    7  A    between atoms: C_14  and  C_15
REMARK    8  A    between atoms: C_15  and  N_16
REMARK                            x       y       z     vdW  Elec       q    Type
REMARK                         _______ _______ _______ _____ _____    ______ ____
ROOT
ATOM      1  N   UNL     1      -0.825  -0.804   0.000  0.00  0.00    +0.000 NA
ATOM      2  N   UNL     1       0.825  -0.846   0.000  0.00  0.00    +0.000 NA
ATOM      3  N   UNL     1      -0.825   0.846   0.000  0.00  0.00    +0.000 NA
ATOM      4  N   UNL     1       0.825   0.846   0.000  0.00  0.00    +0.000 NA
ATOM      5  C   UNL     1       1.526  -0.433   0.000  0.00  0.00    +0.000 C 
ATOM      6  C   UNL     1       1.526   0.392   0.000  0.00  0.00    +0.000 C 
ATOM      7  C   UNL     1      -0.412  -1.547   0.000  0.00  0.00    +0.000 C 
ATOM      8  C   UNL     1       0.412  -1.547   0.000  0.00  0.00    +0.000 C 
ATOM      9  C   UNL     1      -1.568   0.433   0.000  0.00  0.00    +0.000 C 
ATOM     10  C   UNL     1      -1.568  -0.392   0.000  0.00  0.00    +0.000 C 
ATOM     11  C   UNL     1       0.412   1.547   0.000  0.00  0.00    +0.000 C 
ATOM     12  C   UNL     1      -0.412   1.547   0.000  0.00  0.00    +0.000 C 
ENDROOT
BRANCH   3  13
ATOM     13  C   UNL     1      -1.238   1.547   0.000  0.00  0.00    +0.000 C 
BRANCH  13  14
ATOM     14  C   UNL     1      -2.063   1.547   0.000  0.00  0.00    +0.000 C 
ATOM     15  O   UNL     1      -2.475   0.846   0.000  0.00  0.00    +0.000 OA
ATOM     16  O   UNL     1      -2.475   2.248   0.000  0.00  0.00    +0.000 OA
ENDBRANCH  13  14
ENDBRANCH   3  13
BRANCH   1  17
ATOM     17  C   UNL     1      -1.238  -1.547   0.000  0.00  0.00    +0.000 C 
BRANCH  17  19
ATOM     18  O   UNL     1      -2.475  -0.804   0.000  0.00  0.00    +0.000 OA
ATOM     19  C   UNL     1      -2.063  -1.547   0.000  0.00  0.00    +0.000 C 
ATOM     20  O   UNL     1      -2.475  -2.248   0.000  0.00  0.00    +0.000 OA
ENDBRANCH  17  19
ENDBRANCH   1  17
BRANCH   2  21
ATOM     21  C   UNL     1       1.238  -1.547   0.000  0.00  0.00    +0.000 C 
BRANCH  21  22
ATOM     22  C   UNL     1       2.063  -1.547   0.000  0.00  0.00    +0.000 C 
ATOM     23  O   UNL     1       2.475  -0.846   0.000  0.00  0.00    +0.000 OA
ATOM     24  O   UNL     1       2.475  -2.248   0.000  0.00  0.00    +0.000 OA
ENDBRANCH  21  22
ENDBRANCH   2  21
BRANCH   4  25
ATOM     25  C   UNL     1       1.238   1.547   0.000  0.00  0.00    +0.000 C 
BRANCH  25  27
ATOM     26  O   UNL     1       2.475   0.846   0.000  0.00  0.00    +0.000 OA
ATOM     27  C   UNL     1       2.063   1.547   0.000  0.00  0.00    +0.000 C 
ATOM     28  O   UNL     1       2.475   2.248   0.000  0.00  0.00    +0.000 OA
ENDBRANCH  25  27
ENDBRANCH   4  25
TORSDOF 8
REMARK  Name = 
REMARK  8 active torsions:
REMARK  status: ('A' for Active; 'I' for Inactive)
REMARK    1  A    between atoms: C_2  and  C_3
REMARK    2  A    between atoms: C_3  and  N_4
REMARK    3  A    between atoms: C_5  and  C_6
REMARK    4  A    between atoms: C_5  and  N_8
REMARK    5  A    between atoms: N_9  and  C_10
REMARK    6  A    between atoms: C_10  and  C_11
REMARK    7  A    between atoms: C_14  and  C_15
REMARK    8  A    between atoms: C_15  and  N_16
REMARK                            x       y       z     vdW  Elec       q    Type
REMARK                         _______ _______ _______ _____ _____    ______ ____
ROOT
ATOM      1 GD   UNL     1      -0.165  -0.144   0.000  0.00  0.00    +0.000 Gd
ENDROOT
TORSDOF 0
