REMARK  Name = 
REMARK  1 active torsions:
REMARK  status: ('A' for Active; 'I' for Inactive)
REMARK    1  A    between atoms: C_4  and  C_14
REMARK                            x       y       z     vdW  Elec       q    Type
REMARK                         _______ _______ _______ _____ _____    ______ ____
ROOT
ATOM      1  S   UNL     1       1.169   0.921   0.000  0.00  0.00    +0.000 S 
ATOM      2  C   UNL     1       0.383   0.668   0.000  0.00  0.00    +0.000 C 
ATOM      3  O   UNL     1      -0.330   1.083   0.000  0.00  0.00    +0.000 OA
ATOM      4  C   UNL     1      -1.047   0.668   0.000  0.00  0.00    +0.000 C 
ATOM      5  C   UNL     1      -1.047  -0.157   0.000  0.00  0.00    +0.000 C 
ATOM      6  C   UNL     1      -0.330  -0.571   0.000  0.00  0.00    +0.000 C 
ATOM      7  C   UNL     1       0.383  -0.157   0.000  0.00  0.00    +0.000 C 
ATOM      8  N   UNL     1       1.169  -0.414   0.000  0.00  0.00    +0.000 NA
ATOM      9  C   UNL     1       1.652   0.258   0.000  0.00  0.00    +0.000 C 
ATOM     10  C   UNL     1       2.477   0.258   0.000  0.00  0.00    +0.000 C 
ATOM     11  O   UNL     1      -0.330  -1.396   0.000  0.00  0.00    +0.000 OA
ATOM     12  O   UNL     1      -1.760  -0.571   0.000  0.00  0.00    +0.000 OA
ENDROOT
BRANCH   4  13
ATOM     13  C   UNL     1      -1.760   1.083   0.000  0.00  0.00    +0.000 C 
ATOM     14  O   UNL     1      -2.477   0.668   0.000  0.00  0.00    +0.000 OA
ENDBRANCH   4  13
TORSDOF 1
