REMARK  Name = 
REMARK  2 active torsions:
REMARK  status: ('A' for Active; 'I' for Inactive)
REMARK    1  A    between atoms: C_12  and  C_17
REMARK    2  A    between atoms: C_12  and  N_18
REMARK                            x       y       z     vdW  Elec       q    Type
REMARK                         _______ _______ _______ _____ _____    ______ ____
ROOT
ATOM      1  C   UNL     1       5.001   1.238   0.000  0.00  0.00    +0.000 A 
ATOM      2  C   UNL     1       0.715   1.238   0.000  0.00  0.00    +0.000 A 
ATOM      3  C   UNL     1       5.001   2.062   0.000  0.00  0.00    +0.000 A 
ATOM      4  C   UNL     1       0.715   2.062   0.000  0.00  0.00    +0.000 A 
ATOM      5  C   UNL     1       4.287   0.825   0.000  0.00  0.00    +0.000 A 
ATOM      6  C   UNL     1       1.429   0.825   0.000  0.00  0.00    +0.000 A 
ATOM      7  C   UNL     1       4.287   2.475   0.000  0.00  0.00    +0.000 A 
ATOM      8  C   UNL     1       1.429   2.475   0.000  0.00  0.00    +0.000 A 
ATOM      9  C   UNL     1       3.572   1.238   0.000  0.00  0.00    +0.000 A 
ATOM     10  C   UNL     1       2.143   1.238   0.000  0.00  0.00    +0.000 A 
ATOM     11  C   UNL     1       3.572   2.062   0.000  0.00  0.00    +0.000 A 
ATOM     12  C   UNL     1       2.143   2.062   0.000  0.00  0.00    +0.000 A 
ATOM     13  C   UNL     1       2.858   0.000   0.000  0.00  0.00    +0.000 C 
ATOM     14  N   UNL     1       2.858   0.825   0.000  0.00  0.00    +0.000 N 
ATOM     15  O   UNL     1       3.572  -0.412   0.000  0.00  0.00    +0.000 OA
ATOM     16  S   UNL     1       2.858   2.475   0.000  0.00  0.00    +0.000 S 
ENDROOT
BRANCH  13  18
ATOM     17  C   UNL     1       1.429   0.000   0.000  0.00  0.00    +0.000 C 
ATOM     18  C   UNL     1       2.143  -0.412   0.000  0.00  0.00    +0.000 C 
BRANCH  18  21
ATOM     19  C   UNL     1       1.429  -1.650   0.000  0.00  0.00    +0.000 C 
ATOM     20  C   UNL     1       2.858  -1.650   0.000  0.00  0.00    +0.000 C 
ATOM     21  N   UNL     1       2.143  -1.238   0.000  0.00  0.00    +0.000 NA
ENDBRANCH  18  21
ENDBRANCH  13  18
TORSDOF 2
