REMARK  Name = 
REMARK  6 active torsions:
REMARK  status: ('A' for Active; 'I' for Inactive)
REMARK    1  A    between atoms: C_2  and  N_3
REMARK    2  A    between atoms: N_6  and  C_24
REMARK    3  A    between atoms: C_13  and  C_14
REMARK    4  A    between atoms: C_14  and  N_15
REMARK    5  A    between atoms: C_27  and  O_28
REMARK    6  A    between atoms: C_31  and  O_32
REMARK                            x       y       z     vdW  Elec       q    Type
REMARK                         _______ _______ _______ _____ _____    ______ ____
ROOT
ATOM      1  N   UNL     1       1.819  -1.552   0.000  0.00  0.00    +0.000 N 
ATOM      2  C   UNL     1       0.994  -1.526   0.000  0.00  0.00    +0.000 C 
ATOM      3  O   UNL     1       0.560  -2.228   0.000  0.00  0.00    +0.000 OA
ATOM      4  N   UNL     1       0.604  -0.799   0.000  0.00  0.00    +0.000 N 
ATOM      5  C   UNL     1       1.039  -0.098   0.000  0.00  0.00    +0.000 C 
ATOM      6  C   UNL     1       1.864  -0.124   0.000  0.00  0.00    +0.000 A 
ATOM      7  C   UNL     1       2.298   0.578   0.000  0.00  0.00    +0.000 A 
ATOM      8  N   UNL     1       3.123   0.552   0.000  0.00  0.00    +0.000 NA
ATOM      9  C   UNL     1       3.513  -0.175   0.000  0.00  0.00    +0.000 A 
ATOM     10  N   UNL     1       4.314  -0.372   0.000  0.00  0.00    +0.000 NA
ATOM     11  C   UNL     1       4.375  -1.195   0.000  0.00  0.00    +0.000 A 
ATOM     12  C   UNL     1       3.611  -1.507   0.000  0.00  0.00    +0.000 A 
ATOM     13  C   UNL     1       3.078  -0.876   0.000  0.00  0.00    +0.000 A 
ATOM     14  C   UNL     1       2.253  -0.851   0.000  0.00  0.00    +0.000 A 
ENDROOT
BRANCH   4  15
ATOM     15  C   UNL     1      -0.220  -0.773   0.000  0.00  0.00    +0.000 A 
ATOM     16  C   UNL     1      -0.655  -1.475   0.000  0.00  0.00    +0.000 A 
ATOM     17  F   UNL     1      -0.265  -2.202   0.000  0.00  0.00    +0.000 F 
ATOM     18  C   UNL     1      -1.480  -1.449   0.000  0.00  0.00    +0.000 A 
ATOM     19  C   UNL     1      -1.869  -0.722   0.000  0.00  0.00    +0.000 A 
ATOM     20  C   UNL     1      -1.435  -0.021   0.000  0.00  0.00    +0.000 A 
ATOM     21  C   UNL     1      -0.610  -0.046   0.000  0.00  0.00    +0.000 A 
ATOM     22  F   UNL     1      -0.176   0.655   0.000  0.00  0.00    +0.000 F 
BRANCH  18  23
ATOM     23  O   UNL     1      -1.914  -2.150   0.000  0.00  0.00    +0.000 OA
ATOM     24  C   UNL     1      -1.524  -2.877   0.000  0.00  0.00    +0.000 C 
ENDBRANCH  18  23
BRANCH  20  25
ATOM     25  O   UNL     1      -1.825   0.706   0.000  0.00  0.00    +0.000 OA
ATOM     26  C   UNL     1      -1.390   1.407   0.000  0.00  0.00    +0.000 C 
ENDBRANCH  20  25
ENDBRANCH   4  15
BRANCH   1  28
ATOM     27  C   UNL     1       3.034  -2.305   0.000  0.00  0.00    +0.000 C 
ATOM     28  C   UNL     1       2.209  -2.279   0.000  0.00  0.00    +0.000 C 
ENDBRANCH   1  28
BRANCH  11  29
ATOM     29  C   UNL     1       5.076  -1.629   0.000  0.00  0.00    +0.000 C 
BRANCH  29  30
ATOM     30  N   UNL     1       5.803  -1.239   0.000  0.00  0.00    +0.000 NA
ATOM     31  C   UNL     1       5.829  -0.415   0.000  0.00  0.00    +0.000 C 
ATOM     32  C   UNL     1       6.556  -0.025   0.000  0.00  0.00    +0.000 C 
ATOM     33  O   UNL     1       7.257  -0.459   0.000  0.00  0.00    +0.000 OA
ATOM     34  C   UNL     1       7.231  -1.284   0.000  0.00  0.00    +0.000 C 
ATOM     35  C   UNL     1       6.504  -1.674   0.000  0.00  0.00    +0.000 C 
ENDBRANCH  29  30
ENDBRANCH  11  29
TORSDOF 6
