REMARK  Name = 
REMARK  29 active torsions:
REMARK  status: ('A' for Active; 'I' for Inactive)
REMARK    1  A    between atoms: C_1  and  C_4
REMARK    2  A    between atoms: C_1  and  O_52
REMARK    3  A    between atoms: C_2  and  C_5
REMARK    4  A    between atoms: C_2  and  O_53
REMARK    5  A    between atoms: C_3  and  C_6
REMARK    6  A    between atoms: C_3  and  O_54
REMARK    7  A    between atoms: C_7  and  O_60
REMARK    8  A    between atoms: C_8  and  O_61
REMARK    9  A    between atoms: C_9  and  O_62
REMARK   10  A    between atoms: C_10  and  O_58
REMARK   11  A    between atoms: C_11  and  O_63
REMARK   12  A    between atoms: C_12  and  O_64
REMARK   13  A    between atoms: C_13  and  O_59
REMARK   14  A    between atoms: C_14  and  O_65
REMARK   15  A    between atoms: C_15  and  O_66
REMARK   16  A    between atoms: C_16  and  O_59
REMARK   17  A    between atoms: C_17  and  O_58
REMARK   18  A    between atoms: C_18  and  O_67
REMARK   19  A    between atoms: O_52  and  P_68
REMARK   20  A    between atoms: O_53  and  S_69
REMARK   21  A    between atoms: O_54  and  S_70
REMARK   22  A    between atoms: O_60  and  S_71
REMARK   23  A    between atoms: O_61  and  S_72
REMARK   24  A    between atoms: O_62  and  S_73
REMARK   25  A    between atoms: O_63  and  S_74
REMARK   26  A    between atoms: O_64  and  S_75
REMARK   27  A    between atoms: O_65  and  S_76
REMARK   28  A    between atoms: O_66  and  S_77
REMARK   29  A    between atoms: O_67  and  S_78
REMARK                            x       y       z     vdW  Elec       q    Type
REMARK                         _______ _______ _______ _____ _____    ______ ____
ROOT
ATOM      1  C   UNL     1      -0.308   0.432   0.000  0.00  0.00    +0.000 C 
ATOM      2  C   UNL     1       0.425   0.810   0.000  0.00  0.00    +0.000 C 
ATOM      3  C   UNL     1       1.119   0.364   0.000  0.00  0.00    +0.000 C 
ATOM      4  C   UNL     1       1.080  -0.460   0.000  0.00  0.00    +0.000 C 
ATOM      5  C   UNL     1       0.347  -0.838   0.000  0.00  0.00    +0.000 C 
ATOM      6  O   UNL     1      -0.347  -0.392   0.000  0.00  0.00    +0.000 OA
ENDROOT
BRANCH   1   7
ATOM      7  C   UNL     1      -1.002   0.878   0.000  0.00  0.00    +0.000 C 
BRANCH   7   8
ATOM      8  O   UNL     1      -0.963   1.702   0.000  0.00  0.00    +0.000 OA
BRANCH   8  12
ATOM      9  O   UNL     1      -2.103   1.454   0.000  0.00  0.00    +0.000 OA
ATOM     10  O   UNL     1      -2.351   2.594   0.000  0.00  0.00    +0.000 OA
ATOM     11  O   UNL     1      -1.211   2.842   0.000  0.00  0.00    +0.000 OA
ATOM     12  S   UNL     1      -1.657   2.148   0.000  0.00  0.00    +0.000 S 
ENDBRANCH   8  12
ENDBRANCH   7   8
ENDBRANCH   1   7
BRANCH   3  13
ATOM     13  O   UNL     1       1.853   0.742   0.000  0.00  0.00    +0.000 OA
BRANCH  13  18
ATOM     14  C   UNL     1       1.237   2.836   0.000  0.00  0.00    +0.000 C 
ATOM     15  C   UNL     1       1.970   3.214   0.000  0.00  0.00    +0.000 C 
ATOM     16  C   UNL     1       2.664   2.768   0.000  0.00  0.00    +0.000 C 
ATOM     17  C   UNL     1       2.625   1.944   0.000  0.00  0.00    +0.000 C 
ATOM     18  C   UNL     1       1.892   1.566   0.000  0.00  0.00    +0.000 C 
ATOM     19  O   UNL     1       1.433   1.753   0.000  0.00  0.00    +0.000 OA
BRANCH  14  20
ATOM     20  C   UNL     1       0.461   3.114   0.000  0.00  0.00    +0.000 C 
BRANCH  20  21
ATOM     21  O   UNL     1       0.314   3.926   0.000  0.00  0.00    +0.000 OA
BRANCH  21  25
ATOM     22  O   UNL     1      -1.239   4.483   0.000  0.00  0.00    +0.000 OA
ATOM     23  O   UNL     1      -0.741   3.428   0.000  0.00  0.00    +0.000 OA
ATOM     24  O   UNL     1      -0.184   4.981   0.000  0.00  0.00    +0.000 OA
ATOM     25  P   UNL     1      -0.463   4.205   0.000  0.00  0.00    +0.000 P 
ENDBRANCH  21  25
ENDBRANCH  20  21
ENDBRANCH  14  20
BRANCH  15  26
ATOM     26  O   UNL     1       2.010   4.038   0.000  0.00  0.00    +0.000 OA
BRANCH  26  30
ATOM     27  O   UNL     1       1.762   5.178   0.000  0.00  0.00    +0.000 OA
ATOM     28  O   UNL     1       0.870   3.790   0.000  0.00  0.00    +0.000 OA
ATOM     29  O   UNL     1       0.622   4.930   0.000  0.00  0.00    +0.000 OA
ATOM     30  S   UNL     1       1.316   4.484   0.000  0.00  0.00    +0.000 S 
ENDBRANCH  26  30
ENDBRANCH  15  26
BRANCH  16  31
ATOM     31  O   UNL     1       3.398   3.146   0.000  0.00  0.00    +0.000 OA
BRANCH  31  35
ATOM     32  O   UNL     1       4.261   3.931   0.000  0.00  0.00    +0.000 OA
ATOM     33  O   UNL     1       2.613   4.009   0.000  0.00  0.00    +0.000 OA
ATOM     34  O   UNL     1       3.476   4.794   0.000  0.00  0.00    +0.000 OA
ATOM     35  S   UNL     1       3.437   3.970   0.000  0.00  0.00    +0.000 S 
ENDBRANCH  31  35
ENDBRANCH  16  31
BRANCH  17  36
ATOM     36  O   UNL     1       3.319   1.498   0.000  0.00  0.00    +0.000 OA
BRANCH  36  40
ATOM     37  O   UNL     1       3.675   2.609   0.000  0.00  0.00    +0.000 OA
ATOM     38  O   UNL     1       4.786   2.254   0.000  0.00  0.00    +0.000 OA
ATOM     39  O   UNL     1       4.431   1.143   0.000  0.00  0.00    +0.000 OA
ATOM     40  S   UNL     1       4.053   1.876   0.000  0.00  0.00    +0.000 S 
ENDBRANCH  36  40
ENDBRANCH  17  36
ENDBRANCH  13  18
ENDBRANCH   3  13
BRANCH   5  41
ATOM     41  O   UNL     1       0.308  -1.662   0.000  0.00  0.00    +0.000 OA
BRANCH  41  45
ATOM     42  C   UNL     1      -1.892  -2.797   0.000  0.00  0.00    +0.000 C 
ATOM     43  C   UNL     1      -1.198  -3.243   0.000  0.00  0.00    +0.000 C 
ATOM     44  C   UNL     1      -0.465  -2.865   0.000  0.00  0.00    +0.000 C 
ATOM     45  C   UNL     1      -0.425  -2.041   0.000  0.00  0.00    +0.000 C 
ATOM     46  C   UNL     1      -1.119  -1.595   0.000  0.00  0.00    +0.000 C 
ATOM     47  O   UNL     1      -1.853  -1.972   0.000  0.00  0.00    +0.000 OA
BRANCH  42  48
ATOM     48  C   UNL     1      -2.625  -3.175   0.000  0.00  0.00    +0.000 C 
BRANCH  48  49
ATOM     49  O   UNL     1      -3.319  -2.729   0.000  0.00  0.00    +0.000 OA
BRANCH  49  53
ATOM     50  O   UNL     1      -4.786  -3.485   0.000  0.00  0.00    +0.000 OA
ATOM     51  O   UNL     1      -4.431  -2.373   0.000  0.00  0.00    +0.000 OA
ATOM     52  O   UNL     1      -3.675  -3.840   0.000  0.00  0.00    +0.000 OA
ATOM     53  S   UNL     1      -4.053  -3.107   0.000  0.00  0.00    +0.000 S 
ENDBRANCH  49  53
ENDBRANCH  48  49
ENDBRANCH  42  48
BRANCH  43  54
ATOM     54  O   UNL     1      -1.237  -4.067   0.000  0.00  0.00    +0.000 OA
BRANCH  54  58
ATOM     55  O   UNL     1      -2.349  -3.711   0.000  0.00  0.00    +0.000 OA
ATOM     56  O   UNL     1      -1.593  -5.178   0.000  0.00  0.00    +0.000 OA
ATOM     57  O   UNL     1      -2.704  -4.823   0.000  0.00  0.00    +0.000 OA
ATOM     58  S   UNL     1      -1.970  -4.445   0.000  0.00  0.00    +0.000 S 
ENDBRANCH  54  58
ENDBRANCH  43  54
BRANCH  44  59
ATOM     59  O   UNL     1       0.229  -3.311   0.000  0.00  0.00    +0.000 OA
BRANCH  59  63
ATOM     60  O   UNL     1      -0.634  -4.095   0.000  0.00  0.00    +0.000 OA
ATOM     61  O   UNL     1       1.014  -4.174   0.000  0.00  0.00    +0.000 OA
ATOM     62  O   UNL     1       0.151  -4.959   0.000  0.00  0.00    +0.000 OA
ATOM     63  S   UNL     1       0.190  -4.135   0.000  0.00  0.00    +0.000 S 
ENDBRANCH  59  63
ENDBRANCH  44  59
BRANCH  46  64
ATOM     64  O   UNL     1      -1.080  -0.770   0.000  0.00  0.00    +0.000 OA
BRANCH  64  68
ATOM     65  O   UNL     1      -1.328   0.369   0.000  0.00  0.00    +0.000 OA
ATOM     66  O   UNL     1      -2.220  -1.018   0.000  0.00  0.00    +0.000 OA
ATOM     67  O   UNL     1      -2.468   0.121   0.000  0.00  0.00    +0.000 OA
ATOM     68  S   UNL     1      -1.774  -0.324   0.000  0.00  0.00    +0.000 S 
ENDBRANCH  64  68
ENDBRANCH  46  64
ENDBRANCH  41  45
ENDBRANCH   5  41
BRANCH   2  69
ATOM     69  O   UNL     1       0.465   1.634   0.000  0.00  0.00    +0.000 OA
BRANCH  69  73
ATOM     70  O   UNL     1       1.576   1.278   0.000  0.00  0.00    +0.000 OA
ATOM     71  O   UNL     1       0.820   2.745   0.000  0.00  0.00    +0.000 OA
ATOM     72  O   UNL     1       1.931   2.390   0.000  0.00  0.00    +0.000 OA
ATOM     73  S   UNL     1       1.198   2.012   0.000  0.00  0.00    +0.000 S 
ENDBRANCH  69  73
ENDBRANCH   2  69
BRANCH   4  74
ATOM     74  O   UNL     1       1.774  -0.906   0.000  0.00  0.00    +0.000 OA
BRANCH  74  78
ATOM     75  O   UNL     1       2.130   0.205   0.000  0.00  0.00    +0.000 OA
ATOM     76  O   UNL     1       3.241  -0.150   0.000  0.00  0.00    +0.000 OA
ATOM     77  O   UNL     1       2.886  -1.262   0.000  0.00  0.00    +0.000 OA
ATOM     78  S   UNL     1       2.508  -0.528   0.000  0.00  0.00    +0.000 S 
ENDBRANCH  74  78
ENDBRANCH   4  74
TORSDOF 29
