REMARK  Name = 
REMARK  13 active torsions:
REMARK  status: ('A' for Active; 'I' for Inactive)
REMARK    1  A    between atoms: C_1  and  C_18
REMARK    2  A    between atoms: C_2  and  C_3
REMARK    3  A    between atoms: C_3  and  C_4
REMARK    4  A    between atoms: C_5  and  C_6
REMARK    5  A    between atoms: C_6  and  C_7
REMARK    6  A    between atoms: C_8  and  C_9
REMARK    7  A    between atoms: C_9  and  C_10
REMARK    8  A    between atoms: C_11  and  C_12
REMARK    9  A    between atoms: C_12  and  C_13
REMARK   10  A    between atoms: C_14  and  C_15
REMARK   11  A    between atoms: C_15  and  C_16
REMARK   12  A    between atoms: C_16  and  C_17
REMARK   13  A    between atoms: C_17  and  C_22
REMARK                            x       y       z     vdW  Elec       q    Type
REMARK                         _______ _______ _______ _____ _____    ______ ____
ROOT
ATOM      1  C   UNL     1      -2.501  -0.825   0.000  0.00  0.00    +0.000 C 
ENDROOT
BRANCH   1   3
ATOM      2  C   UNL     1      -3.215   0.412   0.000  0.00  0.00    +0.000 C 
ATOM      3  C   UNL     1      -3.215  -0.412   0.000  0.00  0.00    +0.000 C 
BRANCH   2   4
ATOM      4  C   UNL     1      -2.501   0.825   0.000  0.00  0.00    +0.000 C 
BRANCH   4   6
ATOM      5  C   UNL     1      -1.786   2.062   0.000  0.00  0.00    +0.000 C 
ATOM      6  C   UNL     1      -2.501   1.650   0.000  0.00  0.00    +0.000 C 
BRANCH   5   7
ATOM      7  C   UNL     1      -1.072   1.650   0.000  0.00  0.00    +0.000 C 
BRANCH   7   9
ATOM      8  C   UNL     1       0.357   1.650   0.000  0.00  0.00    +0.000 C 
ATOM      9  C   UNL     1      -0.357   2.062   0.000  0.00  0.00    +0.000 C 
BRANCH   8  10
ATOM     10  C   UNL     1       0.357   0.825   0.000  0.00  0.00    +0.000 C 
ATOM     11  C   UNL     1       1.072   0.412   0.000  0.00  0.00    +0.000 C 
ENDBRANCH   8  10
ENDBRANCH   7   9
ENDBRANCH   5   7
ENDBRANCH   4   6
ENDBRANCH   2   4
ENDBRANCH   1   3
BRANCH   1  12
ATOM     12  C   UNL     1      -2.501  -1.650   0.000  0.00  0.00    +0.000 C 
ATOM     13  C   UNL     1      -1.786  -2.062   0.000  0.00  0.00    +0.000 C 
BRANCH  13  14
ATOM     14  C   UNL     1      -1.072  -1.650   0.000  0.00  0.00    +0.000 C 
BRANCH  14  15
ATOM     15  C   UNL     1      -0.357  -2.062   0.000  0.00  0.00    +0.000 C 
ATOM     16  C   UNL     1       0.357  -1.650   0.000  0.00  0.00    +0.000 C 
BRANCH  16  17
ATOM     17  C   UNL     1       0.357  -0.825   0.000  0.00  0.00    +0.000 C 
BRANCH  17  18
ATOM     18  C   UNL     1       1.072  -0.412   0.000  0.00  0.00    +0.000 C 
BRANCH  18  19
ATOM     19  C   UNL     1       1.786  -0.825   0.000  0.00  0.00    +0.000 C 
BRANCH  19  22
ATOM     20  O   UNL     1       2.501   0.412   0.000  0.00  0.00    +0.000 OA
ATOM     21  O   UNL     1       3.215  -0.825   0.000  0.00  0.00    +0.000 OA
ATOM     22  C   UNL     1       2.501  -0.412   0.000  0.00  0.00    +0.000 C 
ENDBRANCH  19  22
ENDBRANCH  18  19
ENDBRANCH  17  18
ENDBRANCH  16  17
ENDBRANCH  14  15
ENDBRANCH  13  14
ENDBRANCH   1  12
TORSDOF 13
