REMARK  Name = 
REMARK  7 active torsions:
REMARK  status: ('A' for Active; 'I' for Inactive)
REMARK    1  A    between atoms: C_17  and  C_22
REMARK    2  A    between atoms: C_17  and  O_25
REMARK    3  A    between atoms: C_22  and  C_24
REMARK    4  A    between atoms: O_25  and  C_29
REMARK    5  A    between atoms: C_29  and  C_31
REMARK    6  A    between atoms: C_31  and  C_32
REMARK    7  A    between atoms: C_32  and  C_33
REMARK                            x       y       z     vdW  Elec       q    Type
REMARK                         _______ _______ _______ _____ _____    ______ ____
ROOT
ATOM      1  C   UNL     1      -1.107  -1.984   0.000  0.00  0.00    +0.000 C 
ATOM      2  C   UNL     1      -1.821  -2.396   0.000  0.00  0.00    +0.000 C 
ATOM      3  C   UNL     1      -2.536  -1.984   0.000  0.00  0.00    +0.000 C 
ATOM      4  C   UNL     1      -3.250  -2.396   0.000  0.00  0.00    +0.000 C 
ATOM      5  C   UNL     1      -3.965  -1.159   0.000  0.00  0.00    +0.000 C 
ATOM      6  C   UNL     1      -3.250  -0.746   0.000  0.00  0.00    +0.000 C 
ATOM      7  C   UNL     1      -1.107   0.491   0.000  0.00  0.00    +0.000 C 
ATOM      8  C   UNL     1       0.877  -0.334   0.000  0.00  0.00    +0.000 C 
ATOM      9  C   UNL     1       0.392  -1.001   0.000  0.00  0.00    +0.000 C 
ATOM     10  C   UNL     1      -1.821  -0.746   0.000  0.00  0.00    +0.000 C 
ATOM     11  C   UNL     1      -0.392  -0.746   0.000  0.00  0.00    +0.000 C 
ATOM     12  C   UNL     1      -1.107  -1.159   0.000  0.00  0.00    +0.000 C 
ATOM     13  C   UNL     1      -0.392   0.079   0.000  0.00  0.00    +0.000 C 
ATOM     14  C   UNL     1       0.392   0.334   0.000  0.00  0.00    +0.000 C 
ATOM     15  C   UNL     1      -3.965  -1.984   0.000  0.00  0.00    +0.000 C 
ATOM     16  O   UNL     1      -4.679  -2.396   0.000  0.00  0.00    +0.000 OA
ATOM     17  C   UNL     1      -1.821   0.079   0.000  0.00  0.00    +0.000 C 
ATOM     18  O   UNL     1      -2.536   0.491   0.000  0.00  0.00    +0.000 OA
ATOM     19  C   UNL     1      -0.392   0.904   0.000  0.00  0.00    +0.000 C 
ATOM     20  C   UNL     1      -2.536  -1.159   0.000  0.00  0.00    +0.000 C 
ATOM     21  C   UNL     1      -2.536  -0.334   0.000  0.00  0.00    +0.000 C 
ENDROOT
BRANCH  14  22
ATOM     22  C   UNL     1       0.392   1.159   0.000  0.00  0.00    +0.000 C 
ATOM     23  O   UNL     1      -0.322   1.571   0.000  0.00  0.00    +0.000 OA
BRANCH  22  24
ATOM     24  C   UNL     1       1.107   1.571   0.000  0.00  0.00    +0.000 C 
ATOM     25  O   UNL     1       1.107   2.396   0.000  0.00  0.00    +0.000 OA
ENDBRANCH  22  24
ENDBRANCH  14  22
BRANCH  14  26
ATOM     26  O   UNL     1       1.107   0.746   0.000  0.00  0.00    +0.000 OA
BRANCH  26  27
ATOM     27  C   UNL     1       1.821   0.334   0.000  0.00  0.00    +0.000 C 
ATOM     28  O   UNL     1       1.821  -0.491   0.000  0.00  0.00    +0.000 OA
BRANCH  27  29
ATOM     29  C   UNL     1       2.536   0.746   0.000  0.00  0.00    +0.000 C 
BRANCH  29  30
ATOM     30  C   UNL     1       3.250   0.334   0.000  0.00  0.00    +0.000 C 
BRANCH  30  31
ATOM     31  C   UNL     1       3.965   0.746   0.000  0.00  0.00    +0.000 C 
ATOM     32  C   UNL     1       4.679   0.334   0.000  0.00  0.00    +0.000 C 
ENDBRANCH  30  31
ENDBRANCH  29  30
ENDBRANCH  27  29
ENDBRANCH  26  27
ENDBRANCH  14  26
TORSDOF 7
