REMARK  Name = 
REMARK  2 active torsions:
REMARK  status: ('A' for Active; 'I' for Inactive)
REMARK    1  A    between atoms: C_4  and  C_7
REMARK    2  A    between atoms: C_7  and  C_8
REMARK                            x       y       z     vdW  Elec       q    Type
REMARK                         _______ _______ _______ _____ _____    ______ ____
ROOT
ATOM      1  C   UNL     1       2.858   0.000   0.000  0.00  0.00    +0.000 A 
ATOM      2  C   UNL     1       2.858   0.825   0.000  0.00  0.00    +0.000 A 
ATOM      3  C   UNL     1       3.572   1.238   0.000  0.00  0.00    +0.000 A 
ATOM      4  O   UNL     1       3.572   2.062   0.000  0.00  0.00    +0.000 OA
ATOM      5  N   UNL     1       4.287   0.825   0.000  0.00  0.00    +0.000 NA
ATOM      6  C   UNL     1       4.287   0.000   0.000  0.00  0.00    +0.000 A 
ATOM      7  S   UNL     1       5.001  -0.412   0.000  0.00  0.00    +0.000 S 
ATOM      8  N   UNL     1       3.572  -0.412   0.000  0.00  0.00    +0.000 NA
ENDROOT
BRANCH   1   9
ATOM      9  C   UNL     1       2.143  -0.412   0.000  0.00  0.00    +0.000 C 
BRANCH   9  13
ATOM     10  C   UNL     1       2.143  -2.888   0.000  0.00  0.00    +0.000 A 
ATOM     11  C   UNL     1       1.429  -2.475   0.000  0.00  0.00    +0.000 A 
ATOM     12  C   UNL     1       1.429  -1.650   0.000  0.00  0.00    +0.000 A 
ATOM     13  C   UNL     1       2.143  -1.238   0.000  0.00  0.00    +0.000 A 
ATOM     14  C   UNL     1       2.858  -1.650   0.000  0.00  0.00    +0.000 A 
ATOM     15  C   UNL     1       2.858  -2.475   0.000  0.00  0.00    +0.000 A 
ENDBRANCH   9  13
ENDBRANCH   1   9
TORSDOF 2
