REMARK  Name = 
REMARK  5 active torsions:
REMARK  status: ('A' for Active; 'I' for Inactive)
REMARK    1  A    between atoms: C_1  and  C_2
REMARK    2  A    between atoms: C_2  and  C_3
REMARK    3  A    between atoms: C_3  and  C_4
REMARK    4  A    between atoms: C_4  and  C_5
REMARK    5  A    between atoms: C_4  and  C_9
REMARK                            x       y       z     vdW  Elec       q    Type
REMARK                         _______ _______ _______ _____ _____    ______ ____
ROOT
ATOM      1  C   UNL     1       3.198  -0.554   0.000  0.00  0.00    +0.000 C 
ATOM      2  N   UNL     1       3.022  -1.237   0.000  0.00  0.00    +0.000 NA
ENDROOT
BRANCH   1   3
ATOM      3  C   UNL     1       3.913  -0.142   0.000  0.00  0.00    +0.000 C 
ATOM      4  O   UNL     1       4.627  -0.554   0.000  0.00  0.00    +0.000 OA
ATOM      5  O   UNL     1       3.913   0.683   0.000  0.00  0.00    +0.000 OA
ENDBRANCH   1   3
BRANCH   1   6
ATOM      6  C   UNL     1       2.786   0.160   0.000  0.00  0.00    +0.000 C 
ATOM      7  F   UNL     1       1.961   0.160   0.000  0.00  0.00    +0.000 F 
ATOM      8  F   UNL     1       3.198   0.875   0.000  0.00  0.00    +0.000 F 
ENDBRANCH   1   6
BRANCH   1   9
ATOM      9  C   UNL     1       2.484  -0.967   0.000  0.00  0.00    +0.000 C 
BRANCH   9  10
ATOM     10  C   UNL     1       1.769  -0.554   0.000  0.00  0.00    +0.000 C 
BRANCH  10  11
ATOM     11  C   UNL     1       1.055  -0.967   0.000  0.00  0.00    +0.000 C 
ATOM     12  N   UNL     1       0.340  -0.554   0.000  0.00  0.00    +0.000 NA
ENDBRANCH  10  11
ENDBRANCH   9  10
ENDBRANCH   1   9
TORSDOF 5
