REMARK  Name = 
REMARK  7 active torsions:
REMARK  status: ('A' for Active; 'I' for Inactive)
REMARK    1  A    between atoms: C_1  and  C_2
REMARK    2  A    between atoms: C_1  and  C_8
REMARK    3  A    between atoms: C_11  and  N_24
REMARK    4  A    between atoms: C_20  and  N_24
REMARK    5  A    between atoms: C_21  and  N_24
REMARK    6  A    between atoms: C_22  and  N_25
REMARK    7  A    between atoms: C_23  and  N_25
REMARK                            x       y       z     vdW  Elec       q    Type
REMARK                         _______ _______ _______ _____ _____    ______ ____
ROOT
ATOM      1  C   UNL     1      -0.357   0.206   0.000  0.00  0.00    +0.000 C 
ATOM      2  C   UNL     1       0.357  -0.206   0.000  0.00  0.00    +0.000 C 
ATOM      3  C   UNL     1       1.072   0.206   0.000  0.00  0.00    +0.000 C 
ATOM      4  C   UNL     1       1.786  -0.206   0.000  0.00  0.00    +0.000 C 
ATOM      5  C   UNL     1       1.786  -1.031   0.000  0.00  0.00    +0.000 C 
ATOM      6  C   UNL     1       1.072  -1.444   0.000  0.00  0.00    +0.000 C 
ATOM      7  C   UNL     1       0.357  -1.031   0.000  0.00  0.00    +0.000 C 
ATOM      8  N   UNL     1       2.501  -1.444   0.000  0.00  0.00    +0.000 N 
ENDROOT
BRANCH   1   9
ATOM      9  C   UNL     1      -0.357   1.031   0.000  0.00  0.00    +0.000 A 
ATOM     10  C   UNL     1      -1.072   1.444   0.000  0.00  0.00    +0.000 A 
ATOM     11  C   UNL     1      -1.072   2.269   0.000  0.00  0.00    +0.000 A 
ATOM     12  C   UNL     1      -0.357   2.681   0.000  0.00  0.00    +0.000 A 
ATOM     13  C   UNL     1       0.357   2.269   0.000  0.00  0.00    +0.000 A 
ATOM     14  C   UNL     1       0.357   1.444   0.000  0.00  0.00    +0.000 A 
ENDBRANCH   1   9
BRANCH   1  15
ATOM     15  C   UNL     1      -1.072  -0.206   0.000  0.00  0.00    +0.000 A 
ATOM     16  C   UNL     1      -1.072  -1.031   0.000  0.00  0.00    +0.000 A 
ATOM     17  C   UNL     1      -1.786  -1.444   0.000  0.00  0.00    +0.000 A 
ATOM     18  C   UNL     1      -2.501  -1.031   0.000  0.00  0.00    +0.000 A 
ATOM     19  C   UNL     1      -2.501  -0.206   0.000  0.00  0.00    +0.000 A 
ATOM     20  C   UNL     1      -1.786   0.206   0.000  0.00  0.00    +0.000 A 
BRANCH  18  21
ATOM     21  N   UNL     1      -3.215  -1.444   0.000  0.00  0.00    +0.000 N 
BRANCH  21  22
ATOM     22  C   UNL     1      -3.929  -1.031   0.000  0.00  0.00    +0.000 C 
ATOM     23  C   UNL     1      -3.929  -0.206   0.000  0.00  0.00    +0.000 C 
ENDBRANCH  21  22
BRANCH  21  24
ATOM     24  C   UNL     1      -3.215  -2.269   0.000  0.00  0.00    +0.000 C 
ATOM     25  C   UNL     1      -3.929  -2.681   0.000  0.00  0.00    +0.000 C 
ENDBRANCH  21  24
ENDBRANCH  18  21
ENDBRANCH   1  15
BRANCH   8  26
ATOM     26  C   UNL     1       3.215  -1.031   0.000  0.00  0.00    +0.000 C 
ATOM     27  C   UNL     1       3.929  -1.443   0.000  0.00  0.00    +0.000 C 
ENDBRANCH   8  26
BRANCH   8  28
ATOM     28  C   UNL     1       2.501  -2.269   0.000  0.00  0.00    +0.000 C 
ATOM     29  C   UNL     1       1.786  -2.681   0.000  0.00  0.00    +0.000 C 
ENDBRANCH   8  28
TORSDOF 7
