REMARK  Name = 
REMARK  4 active torsions:
REMARK  status: ('A' for Active; 'I' for Inactive)
REMARK    1  A    between atoms: C_1  and  C_17
REMARK    2  A    between atoms: C_17  and  C_18
REMARK    3  A    between atoms: C_17  and  C_22
REMARK    4  A    between atoms: C_17  and  C_26
REMARK                            x       y       z     vdW  Elec       q    Type
REMARK                         _______ _______ _______ _____ _____    ______ ____
ROOT
ATOM      1  C   UNL     1       0.756   1.321   0.000  0.00  0.00    +0.000 C 
ATOM      2  C   UNL     1       1.254   0.684   0.000  0.00  0.00    +0.000 C 
ATOM      3  C   UNL     1       1.528   0.119   0.000  0.00  0.00    +0.000 C 
ATOM      4  C   UNL     1       0.834  -0.327   0.000  0.00  0.00    +0.000 C 
ATOM      5  C   UNL     1       0.101   0.051   0.000  0.00  0.00    +0.000 C 
ATOM      6  C   UNL     1       0.062   0.875   0.000  0.00  0.00    +0.000 C 
ATOM      7  F   UNL     1      -0.725   1.345   0.000  0.00  0.00    +0.000 F 
ATOM      8  F   UNL     1      -0.804   0.616   0.000  0.00  0.00    +0.000 F 
ATOM      9  F   UNL     1      -0.763  -0.223   0.000  0.00  0.00    +0.000 F 
ATOM     10  F   UNL     1      -0.289  -0.758   0.000  0.00  0.00    +0.000 F 
ATOM     11  F   UNL     1       1.178  -1.167   0.000  0.00  0.00    +0.000 F 
ATOM     12  F   UNL     1       0.446  -1.143   0.000  0.00  0.00    +0.000 F 
ATOM     13  F   UNL     1       2.396  -0.215   0.000  0.00  0.00    +0.000 F 
ATOM     14  F   UNL     1       1.871  -0.720   0.000  0.00  0.00    +0.000 F 
ATOM     15  F   UNL     1       1.929   1.109   0.000  0.00  0.00    +0.000 F 
ATOM     16  F   UNL     1       2.195   0.528   0.000  0.00  0.00    +0.000 F 
ATOM     17  F   UNL     1       0.020   1.678   0.000  0.00  0.00    +0.000 F 
ENDROOT
BRANCH   1  18
ATOM     18  C   UNL     1       0.954   2.422   0.000  0.00  0.00    +0.000 C 
BRANCH  18  19
ATOM     19  C   UNL     1       1.100   3.354   0.000  0.00  0.00    +0.000 C 
ATOM     20  F   UNL     1       1.709   4.039   0.000  0.00  0.00    +0.000 F 
ATOM     21  F   UNL     1       1.895   3.074   0.000  0.00  0.00    +0.000 F 
ATOM     22  F   UNL     1       0.324   3.927   0.000  0.00  0.00    +0.000 F 
ENDBRANCH  18  19
BRANCH  18  23
ATOM     23  C   UNL     1       1.920   2.364   0.000  0.00  0.00    +0.000 C 
ATOM     24  F   UNL     1       2.849   2.059   0.000  0.00  0.00    +0.000 F 
ATOM     25  F   UNL     1       2.467   3.212   0.000  0.00  0.00    +0.000 F 
ATOM     26  F   UNL     1       1.332   1.653   0.000  0.00  0.00    +0.000 F 
ENDBRANCH  18  23
BRANCH  18  27
ATOM     27  C   UNL     1       0.327   3.206   0.000  0.00  0.00    +0.000 C 
ATOM     28  F   UNL     1      -0.450   3.679   0.000  0.00  0.00    +0.000 F 
ATOM     29  F   UNL     1       0.845   4.042   0.000  0.00  0.00    +0.000 F 
ATOM     30  F   UNL     1      -0.536   2.950   0.000  0.00  0.00    +0.000 F 
ENDBRANCH  18  27
ENDBRANCH   1  18
TORSDOF 4
