REMARK  Name = 
REMARK  4 active torsions:
REMARK  status: ('A' for Active; 'I' for Inactive)
REMARK    1  A    between atoms: C_2  and  C_15
REMARK    2  A    between atoms: C_5  and  C_7
REMARK    3  A    between atoms: N_8  and  C_9
REMARK    4  A    between atoms: N_16  and  C_17
REMARK                            x       y       z     vdW  Elec       q    Type
REMARK                         _______ _______ _______ _____ _____    ______ ____
ROOT
ATOM      1  C   UNL     1       2.037   6.828   0.000  0.00  0.00    +0.000 A 
ATOM      2  C   UNL     1       2.751   7.240   0.000  0.00  0.00    +0.000 A 
ATOM      3  C   UNL     1       3.466   6.828   0.000  0.00  0.00    +0.000 A 
ATOM      4  C   UNL     1       3.466   6.003   0.000  0.00  0.00    +0.000 A 
ATOM      5  C   UNL     1       2.751   5.590   0.000  0.00  0.00    +0.000 A 
ATOM      6  C   UNL     1       2.037   6.003   0.000  0.00  0.00    +0.000 A 
ENDROOT
BRANCH   5   7
ATOM      7  C   UNL     1       2.751   4.765   0.000  0.00  0.00    +0.000 C 
ATOM      8  N   UNL     1       3.466   4.353   0.000  0.00  0.00    +0.000 NA
BRANCH   8   9
ATOM      9  C   UNL     1       3.466   3.528   0.000  0.00  0.00    +0.000 C 
ATOM     10  C   UNL     1       4.133   3.043   0.000  0.00  0.00    +0.000 C 
ATOM     11  O   UNL     1       4.918   3.298   0.000  0.00  0.00    +0.000 OA
ATOM     12  N   UNL     1       3.878   2.258   0.000  0.00  0.00    +0.000 NA
ATOM     13  O   UNL     1       3.053   2.258   0.000  0.00  0.00    +0.000 OA
ATOM     14  C   UNL     1       2.798   3.043   0.000  0.00  0.00    +0.000 C 
ENDBRANCH   8   9
ENDBRANCH   5   7
BRANCH   2  15
ATOM     15  C   UNL     1       2.751   8.065   0.000  0.00  0.00    +0.000 C 
ATOM     16  N   UNL     1       2.037   8.478   0.000  0.00  0.00    +0.000 NA
BRANCH  16  17
ATOM     17  C   UNL     1       2.037   9.303   0.000  0.00  0.00    +0.000 C 
ATOM     18  C   UNL     1       1.369   9.788   0.000  0.00  0.00    +0.000 C 
ATOM     19  O   UNL     1       0.585   9.533   0.000  0.00  0.00    +0.000 OA
ATOM     20  N   UNL     1       1.624  10.572   0.000  0.00  0.00    +0.000 NA
ATOM     21  O   UNL     1       2.449  10.572   0.000  0.00  0.00    +0.000 OA
ATOM     22  C   UNL     1       2.704   9.788   0.000  0.00  0.00    +0.000 C 
ENDBRANCH  16  17
ENDBRANCH   2  15
TORSDOF 4
