REMARK  Name = 
REMARK  7 active torsions:
REMARK  status: ('A' for Active; 'I' for Inactive)
REMARK    1  A    between atoms: C_2  and  C_3
REMARK    2  A    between atoms: C_3  and  S_4
REMARK    3  A    between atoms: S_4  and  C_5
REMARK    4  A    between atoms: C_7  and  O_16
REMARK    5  A    between atoms: C_8  and  C_13
REMARK    6  A    between atoms: C_10  and  O_11
REMARK    7  A    between atoms: C_13  and  C_14
REMARK                            x       y       z     vdW  Elec       q    Type
REMARK                         _______ _______ _______ _____ _____    ______ ____
ROOT
ATOM      1  C   UNL     1       0.715   1.238   0.000  0.00  0.00    +0.000 A 
ATOM      2  C   UNL     1       1.429   0.825   0.000  0.00  0.00    +0.000 A 
ATOM      3  C   UNL     1       1.429   0.000   0.000  0.00  0.00    +0.000 A 
ATOM      4  C   UNL     1       0.715  -0.412   0.000  0.00  0.00    +0.000 A 
ATOM      5  C   UNL     1       0.000   0.000   0.000  0.00  0.00    +0.000 A 
ATOM      6  C   UNL     1       0.000   0.825   0.000  0.00  0.00    +0.000 A 
ENDROOT
BRANCH   6   7
ATOM      7  O   UNL     1      -0.715   1.238   0.000  0.00  0.00    +0.000 OA
ATOM      8  C   UNL     1      -0.715   2.062   0.000  0.00  0.00    +0.000 C 
ENDBRANCH   6   7
BRANCH   3   9
ATOM      9  O   UNL     1       2.143  -0.412   0.000  0.00  0.00    +0.000 OA
ATOM     10  C   UNL     1       2.143  -1.238   0.000  0.00  0.00    +0.000 C 
ENDBRANCH   3   9
BRANCH   1  11
ATOM     11  S   UNL     1       0.715   2.062   0.000  0.00  0.00    +0.000 S 
BRANCH  11  12
ATOM     12  C   UNL     1       0.000   2.475   0.000  0.00  0.00    +0.000 C 
BRANCH  12  14
ATOM     13  C   UNL     1      -0.715   3.712   0.000  0.00  0.00    +0.000 C 
ATOM     14  C   UNL     1       0.000   3.300   0.000  0.00  0.00    +0.000 C 
ENDBRANCH  12  14
ENDBRANCH  11  12
ENDBRANCH   1  11
BRANCH   4  15
ATOM     15  C   UNL     1       0.715  -1.238   0.000  0.00  0.00    +0.000 C 
BRANCH  15  16
ATOM     16  C   UNL     1       0.000  -1.650   0.000  0.00  0.00    +0.000 C 
ATOM     17  N   UNL     1       0.000  -2.475   0.000  0.00  0.00    +0.000 NA
ENDBRANCH  15  16
ENDBRANCH   4  15
TORSDOF 7
