REMARK  Name = 
REMARK  11 active torsions:
REMARK  status: ('A' for Active; 'I' for Inactive)
REMARK    1  A    between atoms: O_2  and  C_3
REMARK    2  A    between atoms: C_8  and  O_9
REMARK    3  A    between atoms: O_9  and  C_10
REMARK    4  A    between atoms: C_10  and  C_11
REMARK    5  A    between atoms: C_11  and  C_12
REMARK    6  A    between atoms: C_12  and  C_13
REMARK    7  A    between atoms: C_13  and  C_14
REMARK    8  A    between atoms: C_14  and  C_15
REMARK    9  A    between atoms: C_15  and  C_16
REMARK   10  A    between atoms: N_24  and  C_25
REMARK   11  A    between atoms: C_29  and  C_31
REMARK                            x       y       z     vdW  Elec       q    Type
REMARK                         _______ _______ _______ _____ _____    ______ ____
ROOT
ATOM      1  C   UNL     1      -2.143  -0.412   0.000  0.00  0.00    +0.000 A 
ATOM      2  C   UNL     1      -2.858   0.000   0.000  0.00  0.00    +0.000 A 
ATOM      3  C   UNL     1      -3.572  -0.412   0.000  0.00  0.00    +0.000 A 
ATOM      4  C   UNL     1      -3.572  -1.238   0.000  0.00  0.00    +0.000 A 
ATOM      5  C   UNL     1      -2.858  -1.650   0.000  0.00  0.00    +0.000 A 
ATOM      6  C   UNL     1      -2.143  -1.238   0.000  0.00  0.00    +0.000 A 
ATOM      7  C   UNL     1      -4.287  -1.650   0.000  0.00  0.00    +0.000 A 
ATOM      8  N   UNL     1      -5.001  -1.238   0.000  0.00  0.00    +0.000 NA
ATOM      9  C   UNL     1      -5.001  -0.412   0.000  0.00  0.00    +0.000 A 
ATOM     10  N   UNL     1      -4.287   0.000   0.000  0.00  0.00    +0.000 NA
ATOM     11  N   UNL     1      -4.287  -2.475   0.000  0.00  0.00    +0.000 NA
ENDROOT
BRANCH  11  12
ATOM     12  C   UNL     1      -5.001  -2.888   0.000  0.00  0.00    +0.000 A 
ATOM     13  C   UNL     1      -5.001  -3.712   0.000  0.00  0.00    +0.000 A 
ATOM     14  C   UNL     1      -5.716  -4.125   0.000  0.00  0.00    +0.000 A 
ATOM     15  C   UNL     1      -6.430  -3.712   0.000  0.00  0.00    +0.000 A 
ATOM     16  C   UNL     1      -6.430  -2.888   0.000  0.00  0.00    +0.000 A 
ATOM     17  C   UNL     1      -5.716  -2.475   0.000  0.00  0.00    +0.000 A 
BRANCH  16  18
ATOM     18  C   UNL     1      -7.145  -2.475   0.000  0.00  0.00    +0.000 C 
ATOM     19  C   UNL     1      -7.859  -2.062   0.000  0.00  0.00    +0.000 C 
ENDBRANCH  16  18
ENDBRANCH  11  12
BRANCH   1  21
ATOM     20  C   UNL     1      -0.715  -0.412   0.000  0.00  0.00    +0.000 C 
ATOM     21  O   UNL     1      -1.429   0.000   0.000  0.00  0.00    +0.000 OA
ENDBRANCH   1  21
BRANCH   6  22
ATOM     22  O   UNL     1      -1.429  -1.650   0.000  0.00  0.00    +0.000 OA
BRANCH  22  23
ATOM     23  C   UNL     1      -0.715  -1.238   0.000  0.00  0.00    +0.000 C 
BRANCH  23  24
ATOM     24  C   UNL     1       0.000  -1.650   0.000  0.00  0.00    +0.000 C 
BRANCH  24  25
ATOM     25  C   UNL     1       0.715  -1.238   0.000  0.00  0.00    +0.000 C 
BRANCH  25  26
ATOM     26  C   UNL     1       1.429  -1.650   0.000  0.00  0.00    +0.000 C 
BRANCH  26  27
ATOM     27  C   UNL     1       2.143  -1.238   0.000  0.00  0.00    +0.000 C 
BRANCH  27  28
ATOM     28  C   UNL     1       2.858  -1.650   0.000  0.00  0.00    +0.000 C 
BRANCH  28  29
ATOM     29  C   UNL     1       3.572  -1.238   0.000  0.00  0.00    +0.000 C 
ATOM     30  O   UNL     1       3.572  -0.412   0.000  0.00  0.00    +0.000 OA
ATOM     31  N   UNL     1       4.287  -1.650   0.000  0.00  0.00    +0.000 NA
ATOM     32  O   UNL     1       5.001  -1.238   0.000  0.00  0.00    +0.000 OA
ENDBRANCH  28  29
ENDBRANCH  27  28
ENDBRANCH  26  27
ENDBRANCH  25  26
ENDBRANCH  24  25
ENDBRANCH  23  24
ENDBRANCH  22  23
ENDBRANCH   6  22
TORSDOF 11
