REMARK  Name = 
REMARK  12 active torsions:
REMARK  status: ('A' for Active; 'I' for Inactive)
REMARK    1  A    between atoms: C_2  and  O_3
REMARK    2  A    between atoms: O_3  and  C_4
REMARK    3  A    between atoms: C_4  and  C_6
REMARK    4  A    between atoms: C_6  and  C_8
REMARK    5  A    between atoms: C_8  and  C_9
REMARK    6  A    between atoms: C_9  and  N_10
REMARK    7  A    between atoms: C_9  and  C_18
REMARK    8  A    between atoms: C_11  and  C_13
REMARK    9  A    between atoms: C_13  and  C_14
REMARK   10  A    between atoms: C_14  and  C_15
REMARK   11  A    between atoms: C_18  and  C_19
REMARK   12  A    between atoms: C_22  and  C_23
REMARK                            x       y       z     vdW  Elec       q    Type
REMARK                         _______ _______ _______ _____ _____    ______ ____
ROOT
ATOM      1  C   UNL     1      -1.076   0.003   0.000  0.00  0.00    +0.000 C 
ENDROOT
BRANCH   1   2
ATOM      2  N   UNL     1      -1.789  -0.410   0.000  0.00  0.00    +0.000 NA
ATOM      3  C   UNL     1      -1.789  -1.235   0.000  0.00  0.00    +0.000 C 
ATOM      4  O   UNL     1      -1.074  -1.647   0.000  0.00  0.00    +0.000 OA
BRANCH   3   5
ATOM      5  C   UNL     1      -2.503  -1.649   0.000  0.00  0.00    +0.000 C 
BRANCH   5   6
ATOM      6  C   UNL     1      -2.503  -2.474   0.000  0.00  0.00    +0.000 C 
BRANCH   6   7
ATOM      7  C   UNL     1      -3.215  -2.887   0.000  0.00  0.00    +0.000 C 
ATOM      8  O   UNL     1      -3.215  -3.712   0.000  0.00  0.00    +0.000 OA
ATOM      9  O   UNL     1      -3.930  -2.476   0.000  0.00  0.00    +0.000 OA
ENDBRANCH   6   7
ENDBRANCH   5   6
ENDBRANCH   3   5
ENDBRANCH   1   2
BRANCH   1  10
ATOM     10  C   UNL     1      -1.076   0.828   0.000  0.00  0.00    +0.000 C 
BRANCH  10  11
ATOM     11  C   UNL     1      -1.794   1.239   0.000  0.00  0.00    +0.000 C 
ATOM     12  C   UNL     1      -2.506   0.826   0.000  0.00  0.00    +0.000 C 
BRANCH  11  13
ATOM     13  C   UNL     1      -1.794   2.064   0.000  0.00  0.00    +0.000 C 
ATOM     14  O   UNL     1      -1.080   2.478   0.000  0.00  0.00    +0.000 OA
BRANCH  13  15
ATOM     15  O   UNL     1      -2.509   2.476   0.000  0.00  0.00    +0.000 OA
BRANCH  15  17
ATOM     16  C   UNL     1      -3.225   3.712   0.000  0.00  0.00    +0.000 C 
ATOM     17  C   UNL     1      -2.509   3.301   0.000  0.00  0.00    +0.000 C 
ENDBRANCH  15  17
ENDBRANCH  13  15
ENDBRANCH  11  13
ENDBRANCH  10  11
ENDBRANCH   1  10
BRANCH   1  18
ATOM     18  C   UNL     1      -0.361  -0.408   0.000  0.00  0.00    +0.000 C 
BRANCH  18  19
ATOM     19  C   UNL     1       0.352   0.005   0.000  0.00  0.00    +0.000 A 
ATOM     20  C   UNL     1       0.352   0.834   0.000  0.00  0.00    +0.000 A 
ATOM     21  C   UNL     1       1.068   1.253   0.000  0.00  0.00    +0.000 A 
ATOM     22  C   UNL     1       1.784   0.834   0.000  0.00  0.00    +0.000 A 
ATOM     23  C   UNL     1       1.784   0.005   0.000  0.00  0.00    +0.000 A 
ATOM     24  C   UNL     1       1.068  -0.405   0.000  0.00  0.00    +0.000 A 
BRANCH  22  25
ATOM     25  C   UNL     1       2.499   1.245   0.000  0.00  0.00    +0.000 A 
ATOM     26  C   UNL     1       3.215   0.826   0.000  0.00  0.00    +0.000 A 
ATOM     27  C   UNL     1       3.930   1.245   0.000  0.00  0.00    +0.000 A 
ATOM     28  C   UNL     1       3.930   2.074   0.000  0.00  0.00    +0.000 A 
ATOM     29  C   UNL     1       3.215   2.484   0.000  0.00  0.00    +0.000 A 
ATOM     30  C   UNL     1       2.499   2.074   0.000  0.00  0.00    +0.000 A 
ENDBRANCH  22  25
ENDBRANCH  18  19
ENDBRANCH   1  18
TORSDOF 12
