REMARK  Name = 
REMARK  9 active torsions:
REMARK  status: ('A' for Active; 'I' for Inactive)
REMARK    1  A    between atoms: C_5  and  C_8
REMARK    2  A    between atoms: N_10  and  C_11
REMARK    3  A    between atoms: N_10  and  C_15
REMARK    4  A    between atoms: C_11  and  C_12
REMARK    5  A    between atoms: C_12  and  C_13
REMARK    6  A    between atoms: C_15  and  C_16
REMARK    7  A    between atoms: C_15  and  C_34
REMARK    8  A    between atoms: N_26  and  C_27
REMARK    9  A    between atoms: C_27  and  C_28
REMARK                            x       y       z     vdW  Elec       q    Type
REMARK                         _______ _______ _______ _____ _____    ______ ____
ROOT
ATOM      1  C   UNL     1       0.935  -0.412   0.000  0.00  0.00    +0.000 C 
ENDROOT
BRANCH   1   2
ATOM      2  C   UNL     1       0.523   0.302   0.000  0.00  0.00    +0.000 A 
ATOM      3  N   UNL     1      -0.302   0.302   0.000  0.00  0.00    +0.000 NA
ATOM      4  C   UNL     1      -0.715   1.016   0.000  0.00  0.00    +0.000 A 
ATOM      5  C   UNL     1      -0.302   1.731   0.000  0.00  0.00    +0.000 A 
ATOM      6  C   UNL     1      -0.854   2.344   0.000  0.00  0.00    +0.000 A 
ATOM      7  N   UNL     1      -1.608   2.008   0.000  0.00  0.00    +0.000 NA
ATOM      8  S   UNL     1      -1.521   1.188   0.000  0.00  0.00    +0.000 S 
ATOM      9  C   UNL     1      -0.682   3.151   0.000  0.00  0.00    +0.000 C 
ATOM     10  C   UNL     1       0.523   1.731   0.000  0.00  0.00    +0.000 A 
ATOM     11  O   UNL     1       0.935   2.445   0.000  0.00  0.00    +0.000 OA
ATOM     12  N   UNL     1       0.935   1.016   0.000  0.00  0.00    +0.000 N 
BRANCH  12  13
ATOM     13  C   UNL     1       1.760   1.016   0.000  0.00  0.00    +0.000 C 
BRANCH  13  14
ATOM     14  C   UNL     1       2.173   1.731   0.000  0.00  0.00    +0.000 A 
ATOM     15  C   UNL     1       1.760   2.445   0.000  0.00  0.00    +0.000 A 
ATOM     16  C   UNL     1       2.173   3.160   0.000  0.00  0.00    +0.000 A 
ATOM     17  C   UNL     1       2.998   3.160   0.000  0.00  0.00    +0.000 A 
ATOM     18  C   UNL     1       3.410   2.445   0.000  0.00  0.00    +0.000 A 
ATOM     19  C   UNL     1       2.998   1.731   0.000  0.00  0.00    +0.000 A 
ENDBRANCH  13  14
ENDBRANCH  12  13
ENDBRANCH   1   2
BRANCH   1  20
ATOM     20  C   UNL     1       1.760  -0.412   0.000  0.00  0.00    +0.000 C 
ATOM     21  C   UNL     1       2.173   0.302   0.000  0.00  0.00    +0.000 C 
ATOM     22  C   UNL     1       2.173  -1.127   0.000  0.00  0.00    +0.000 C 
ENDBRANCH   1  20
BRANCH   1  25
ATOM     23  C   UNL     1       0.935  -1.841   0.000  0.00  0.00    +0.000 C 
ATOM     24  O   UNL     1       1.760  -1.841   0.000  0.00  0.00    +0.000 OA
ATOM     25  N   UNL     1       0.523  -1.127   0.000  0.00  0.00    +0.000 N 
BRANCH  23  30
ATOM     26  C   UNL     1      -0.715  -4.699   0.000  0.00  0.00    +0.000 C 
ATOM     27  C   UNL     1      -0.302  -3.985   0.000  0.00  0.00    +0.000 A 
ATOM     28  C   UNL     1      -0.715  -3.270   0.000  0.00  0.00    +0.000 A 
ATOM     29  C   UNL     1      -0.302  -2.556   0.000  0.00  0.00    +0.000 A 
ATOM     30  C   UNL     1       0.523  -2.556   0.000  0.00  0.00    +0.000 A 
ATOM     31  C   UNL     1       0.935  -3.270   0.000  0.00  0.00    +0.000 A 
ATOM     32  C   UNL     1       0.523  -3.985   0.000  0.00  0.00    +0.000 A 
ENDBRANCH  23  30
BRANCH  25  33
ATOM     33  C   UNL     1      -0.302  -1.127   0.000  0.00  0.00    +0.000 C 
BRANCH  33  34
ATOM     34  C   UNL     1      -0.715  -0.412   0.000  0.00  0.00    +0.000 C 
BRANCH  34  35
ATOM     35  C   UNL     1      -1.540  -0.412   0.000  0.00  0.00    +0.000 C 
ATOM     36  N   UNL     1      -1.952  -1.127   0.000  0.00  0.00    +0.000 NA
ENDBRANCH  34  35
ENDBRANCH  33  34
ENDBRANCH  25  33
ENDBRANCH   1  25
TORSDOF 9
