REMARK  Name = 
REMARK  3 active torsions:
REMARK  status: ('A' for Active; 'I' for Inactive)
REMARK    1  A    between atoms: N_2  and  C_11
REMARK    2  A    between atoms: C_6  and  C_8
REMARK    3  A    between atoms: C_7  and  C_9
REMARK                            x       y       z     vdW  Elec       q    Type
REMARK                         _______ _______ _______ _____ _____    ______ ____
ROOT
ATOM      1  C   UNL     1      -0.879   0.716   0.000  0.00  0.00    +0.000 A 
ATOM      2  N   UNL     1      -1.544   0.276   0.000  0.00  0.00    +0.000 N 
ATOM      3  N   UNL     1      -2.212   0.769   0.000  0.00  0.00    +0.000 N 
ATOM      4  C   UNL     1      -1.116   1.527   0.000  0.00  0.00    +0.000 A 
ATOM      5  C   UNL     1      -1.950   1.536   0.000  0.00  0.00    +0.000 A 
ATOM      6  O   UNL     1      -0.092   0.433   0.000  0.00  0.00    +0.000 OA
ATOM      7  C   UNL     1      -3.015   0.515   0.000  0.00  0.00    +0.000 C 
ATOM      8  C   UNL     1      -2.437   2.227   0.000  0.00  0.00    +0.000 C 
ENDROOT
BRANCH   2   9
ATOM      9  C   UNL     1      -1.544  -0.561   0.000  0.00  0.00    +0.000 A 
ATOM     10  C   UNL     1      -0.821  -0.958   0.000  0.00  0.00    +0.000 A 
ATOM     11  C   UNL     1      -2.244  -0.990   0.000  0.00  0.00    +0.000 A 
ATOM     12  C   UNL     1      -0.804  -1.790   0.000  0.00  0.00    +0.000 A 
ATOM     13  C   UNL     1      -2.230  -1.833   0.000  0.00  0.00    +0.000 A 
ATOM     14  C   UNL     1      -1.527  -2.227   0.000  0.00  0.00    +0.000 A 
ENDBRANCH   2   9
TORSDOF 1
REMARK  Name = 
REMARK  3 active torsions:
REMARK  status: ('A' for Active; 'I' for Inactive)
REMARK    1  A    between atoms: N_2  and  C_11
REMARK    2  A    between atoms: C_6  and  C_8
REMARK    3  A    between atoms: C_7  and  C_9
REMARK                            x       y       z     vdW  Elec       q    Type
REMARK                         _______ _______ _______ _____ _____    ______ ____
ROOT
ATOM      1  C   UNL     1       1.859   0.976   0.000  0.00  0.00    +0.000 C 
ATOM      2 CL   UNL     1       1.352   0.836   0.000  0.00  0.00    +0.000 Cl
ATOM      3 CL   UNL     1       1.326   1.282   0.000  0.00  0.00    +0.000 Cl
ATOM      4 CL   UNL     1       1.859   0.363   0.000  0.00  0.00    +0.000 Cl
ENDROOT
BRANCH   1   5
ATOM      5  C   UNL     1       2.390   1.282   0.000  0.00  0.00    +0.000 C 
ATOM      6  O   UNL     1       2.390   1.895   0.000  0.00  0.00    +0.000 OA
ATOM      7  O   UNL     1       2.918   0.976   0.000  0.00  0.00    +0.000 OA
ENDBRANCH   1   5
TORSDOF 1
REMARK  Name = 
REMARK  3 active torsions:
REMARK  status: ('A' for Active; 'I' for Inactive)
REMARK    1  A    between atoms: N_2  and  C_11
REMARK    2  A    between atoms: C_6  and  C_8
REMARK    3  A    between atoms: C_7  and  C_9
REMARK                            x       y       z     vdW  Elec       q    Type
REMARK                         _______ _______ _______ _____ _____    ______ ____
ROOT
ATOM      1  C   UNL     1       1.953  -1.299   0.000  0.00  0.00    +0.000 C 
ATOM      2 CL   UNL     1       1.422  -0.993   0.000  0.00  0.00    +0.000 Cl
ATOM      3 CL   UNL     1       1.953  -1.912   0.000  0.00  0.00    +0.000 Cl
ATOM      4 CL   UNL     1       1.466  -1.375   0.000  0.00  0.00    +0.000 Cl
ENDROOT
BRANCH   1   5
ATOM      5  C   UNL     1       2.481  -0.993   0.000  0.00  0.00    +0.000 C 
ATOM      6  O   UNL     1       3.015  -1.299   0.000  0.00  0.00    +0.000 OA
ATOM      7  O   UNL     1       2.481  -0.381   0.000  0.00  0.00    +0.000 OA
ENDBRANCH   1   5
TORSDOF 1
