REMARK  Name = 
REMARK  0 active torsions:
REMARK  status: ('A' for Active; 'I' for Inactive)
REMARK                            x       y       z     vdW  Elec       q    Type
REMARK                         _______ _______ _______ _____ _____    ______ ____
ROOT
ATOM      1  N   UNL     1      -1.220   0.010   0.000  0.00  0.00    +0.000 NA
ATOM      2  N   UNL     1       1.235   0.000   0.000  0.00  0.00    +0.000 NA
ATOM      3  C   UNL     1       0.015  -0.812   0.000  0.00  0.00    +0.000 C 
ATOM      4  C   UNL     1       0.005   0.861   0.000  0.00  0.00    +0.000 C 
ATOM      5  C   UNL     1      -0.807  -0.704   0.000  0.00  0.00    +0.000 C 
ATOM      6  C   UNL     1       0.817   0.713   0.000  0.00  0.00    +0.000 C 
ATOM      7  C   UNL     1       0.413   0.000   0.000  0.00  0.00    +0.000 C 
ATOM      8  C   UNL     1      -0.817   0.713   0.000  0.00  0.00    +0.000 C 
ATOM      9  C   UNL     1       0.817  -0.704   0.000  0.00  0.00    +0.000 C 
ATOM     10  C   UNL     1      -1.215  -1.422   0.000  0.00  0.00    +0.000 C 
ATOM     11  C   UNL     1       1.220   1.422   0.000  0.00  0.00    +0.000 C 
ATOM     12  C   UNL     1      -2.046   0.010   0.000  0.00  0.00    +0.000 C 
ATOM     13  C   UNL     1       2.051   0.000   0.000  0.00  0.00    +0.000 C 
ATOM     14  C   UNL     1      -2.046  -1.422   0.000  0.00  0.00    +0.000 C 
ATOM     15  C   UNL     1       2.042   1.422   0.000  0.00  0.00    +0.000 C 
ATOM     16  C   UNL     1      -2.460  -0.704   0.000  0.00  0.00    +0.000 C 
ATOM     17  C   UNL     1       2.460   0.713   0.000  0.00  0.00    +0.000 C 
ENDROOT
TORSDOF 0
