REMARK  Name = 
REMARK  8 active torsions:
REMARK  status: ('A' for Active; 'I' for Inactive)
REMARK    1  A    between atoms: N_10  and  C_11
REMARK    2  A    between atoms: C_13  and  C_29
REMARK    3  A    between atoms: O_18  and  P_20
REMARK    4  A    between atoms: O_18  and  C_29
REMARK    5  A    between atoms: P_20  and  O_22
REMARK    6  A    between atoms: O_22  and  P_24
REMARK    7  A    between atoms: P_24  and  O_30
REMARK    8  A    between atoms: P_27  and  O_30
REMARK                            x       y       z     vdW  Elec       q    Type
REMARK                         _______ _______ _______ _____ _____    ______ ____
ROOT
ATOM      1  C   UNL     1       1.957   0.127   0.000  0.00  0.00    +0.000 C 
ATOM      2  O   UNL     1       1.472  -0.540   0.000  0.00  0.00    +0.000 OA
ATOM      3  C   UNL     1       1.957  -1.208   0.000  0.00  0.00    +0.000 C 
ATOM      4  C   UNL     1       2.742  -0.953   0.000  0.00  0.00    +0.000 C 
ATOM      5  O   UNL     1       3.409  -1.438   0.000  0.00  0.00    +0.000 OA
ATOM      6  C   UNL     1       2.742  -0.128   0.000  0.00  0.00    +0.000 C 
ATOM      7  O   UNL     1       3.409   0.357   0.000  0.00  0.00    +0.000 OA
ENDROOT
BRANCH   1  17
ATOM      8  N   UNL     1       0.203   3.230   0.000  0.00  0.00    +0.000 NA
ATOM      9  C   UNL     1       0.203   2.405   0.000  0.00  0.00    +0.000 A 
ATOM     10  N   UNL     1      -0.511   1.992   0.000  0.00  0.00    +0.000 NA
ATOM     11  C   UNL     1      -0.511   1.167   0.000  0.00  0.00    +0.000 A 
ATOM     12  N   UNL     1       0.203   0.755   0.000  0.00  0.00    +0.000 NA
ATOM     13  C   UNL     1       0.918   1.167   0.000  0.00  0.00    +0.000 A 
ATOM     14  C   UNL     1       0.918   1.992   0.000  0.00  0.00    +0.000 A 
ATOM     15  N   UNL     1       1.702   2.247   0.000  0.00  0.00    +0.000 NA
ATOM     16  C   UNL     1       2.187   1.579   0.000  0.00  0.00    +0.000 A 
ATOM     17  N   UNL     1       1.702   0.912   0.000  0.00  0.00    +0.000 N 
ENDBRANCH   1  17
BRANCH   3  18
ATOM     18  C   UNL     1       1.702  -1.992   0.000  0.00  0.00    +0.000 C 
BRANCH  18  19
ATOM     19  O   UNL     1       0.877  -1.992   0.000  0.00  0.00    +0.000 OA
BRANCH  19  21
ATOM     20  O   UNL     1       0.163  -3.230   0.000  0.00  0.00    +0.000 OA
ATOM     21  P   UNL     1       0.163  -2.405   0.000  0.00  0.00    +0.000 P 
ATOM     22  O   UNL     1       0.163  -1.580   0.000  0.00  0.00    +0.000 OA
BRANCH  21  23
ATOM     23  O   UNL     1      -0.551  -1.992   0.000  0.00  0.00    +0.000 OA
BRANCH  23  25
ATOM     24  O   UNL     1      -1.266  -3.230   0.000  0.00  0.00    +0.000 OA
ATOM     25  P   UNL     1      -1.266  -2.405   0.000  0.00  0.00    +0.000 P 
ATOM     26  O   UNL     1      -1.266  -1.560   0.000  0.00  0.00    +0.000 OA
BRANCH  25  27
ATOM     27  O   UNL     1      -1.980  -1.992   0.000  0.00  0.00    +0.000 OA
BRANCH  27  29
ATOM     28  O   UNL     1      -3.409  -1.992   0.000  0.00  0.00    +0.000 OA
ATOM     29  P   UNL     1      -2.695  -2.405   0.000  0.00  0.00    +0.000 P 
ATOM     30  O   UNL     1      -2.695  -1.580   0.000  0.00  0.00    +0.000 OA
ATOM     31  S   UNL     1      -2.695  -3.230   0.000  0.00  0.00    +0.000 S 
ENDBRANCH  27  29
ENDBRANCH  25  27
ENDBRANCH  23  25
ENDBRANCH  21  23
ENDBRANCH  19  21
ENDBRANCH  18  19
ENDBRANCH   3  18
TORSDOF 8
