REMARK  Name = 
REMARK  7 active torsions:
REMARK  status: ('A' for Active; 'I' for Inactive)
REMARK    1  A    between atoms: C_1  and  P_2
REMARK    2  A    between atoms: C_1  and  P_3
REMARK    3  A    between atoms: C_1  and  C_12
REMARK    4  A    between atoms: C_12  and  C_14
REMARK    5  A    between atoms: C_13  and  C_15
REMARK    6  A    between atoms: C_14  and  C_16
REMARK    7  A    between atoms: C_15  and  C_16
REMARK                            x       y       z     vdW  Elec       q    Type
REMARK                         _______ _______ _______ _____ _____    ______ ____
ROOT
ATOM      1  C   UNL     1      -1.731   0.000   0.000  0.00  0.00    +0.000 C 
ATOM      2  O   UNL     1      -2.556   0.004   0.000  0.00  0.00    +0.000 OA
ENDROOT
BRANCH   1   3
ATOM      3  P   UNL     1      -1.731   0.825   0.000  0.00  0.00    +0.000 P 
ATOM      4  O   UNL     1      -0.944   0.892   0.000  0.00  0.00    +0.000 OA
ATOM      5  O   UNL     1      -1.735   1.650   0.000  0.00  0.00    +0.000 OA
ATOM      6  O   UNL     1      -2.556   0.825   0.000  0.00  0.00    +0.000 OA
ENDBRANCH   1   3
BRANCH   1   7
ATOM      7  P   UNL     1      -1.731  -0.825   0.000  0.00  0.00    +0.000 P 
ATOM      8  O   UNL     1      -1.735  -1.650   0.000  0.00  0.00    +0.000 OA
ATOM      9  O   UNL     1      -0.906  -0.825   0.000  0.00  0.00    +0.000 OA
ATOM     10  O   UNL     1      -2.556  -0.821   0.000  0.00  0.00    +0.000 OA
ENDBRANCH   1   7
BRANCH   1  11
ATOM     11  C   UNL     1      -1.019   0.412   0.000  0.00  0.00    +0.000 C 
BRANCH  11  12
ATOM     12  C   UNL     1      -0.306   0.000   0.000  0.00  0.00    +0.000 C 
BRANCH  12  13
ATOM     13  C   UNL     1       0.414   0.412   0.000  0.00  0.00    +0.000 C 
BRANCH  13  14
ATOM     14  C   UNL     1       1.127   0.000   0.000  0.00  0.00    +0.000 C 
BRANCH  14  16
ATOM     15  N   UNL     1       2.556   0.000   0.000  0.00  0.00    +0.000 NA
ATOM     16  C   UNL     1       1.844   0.412   0.000  0.00  0.00    +0.000 C 
ENDBRANCH  14  16
ENDBRANCH  13  14
ENDBRANCH  12  13
ENDBRANCH  11  12
ENDBRANCH   1  11
TORSDOF 7
