REMARK  Name = 
REMARK  8 active torsions:
REMARK  status: ('A' for Active; 'I' for Inactive)
REMARK    1  A    between atoms: O_1  and  C_8
REMARK    2  A    between atoms: O_1  and  C_23
REMARK    3  A    between atoms: C_8  and  C_19
REMARK    4  A    between atoms: C_23  and  C_25
REMARK    5  A    between atoms: C_25  and  C_26
REMARK    6  A    between atoms: C_26  and  C_27
REMARK    7  A    between atoms: C_27  and  C_28
REMARK    8  A    between atoms: C_28  and  C_29
REMARK                            x       y       z     vdW  Elec       q    Type
REMARK                         _______ _______ _______ _____ _____    ______ ____
ROOT
ATOM      1  O   UNL     1      -3.374  -2.325   0.000  0.00  0.00    +0.000 OA
ATOM      2  C   UNL     1       0.918  -0.658   0.000  0.00  0.00    +0.000 C 
ATOM      3  C   UNL     1       0.250  -1.070   0.000  0.00  0.00    +0.000 C 
ATOM      4  C   UNL     1       0.918   0.159   0.000  0.00  0.00    +0.000 C 
ATOM      5  C   UNL     1      -0.499  -0.658   0.000  0.00  0.00    +0.000 C 
ATOM      6  C   UNL     1       1.707   0.408   0.000  0.00  0.00    +0.000 C 
ATOM      7  C   UNL     1      -1.194  -1.070   0.000  0.00  0.00    +0.000 C 
ATOM      8  C   UNL     1       1.707  -0.908   0.000  0.00  0.00    +0.000 C 
ATOM      9  C   UNL     1       0.250   0.584   0.000  0.00  0.00    +0.000 C 
ATOM     10  C   UNL     1      -0.499   0.159   0.000  0.00  0.00    +0.000 C 
ATOM     11  C   UNL     1       0.250  -1.900   0.000  0.00  0.00    +0.000 C 
ATOM     12  C   UNL     1       2.187  -0.233   0.000  0.00  0.00    +0.000 C 
ATOM     13  C   UNL     1      -1.194  -1.900   0.000  0.00  0.00    +0.000 C 
ATOM     14  C   UNL     1       0.918   0.995   0.000  0.00  0.00    +0.000 C 
ATOM     15  C   UNL     1      -0.499  -2.298   0.000  0.00  0.00    +0.000 C 
ATOM     16  C   UNL     1      -1.917  -0.658   0.000  0.00  0.00    +0.000 C 
ATOM     17  C   UNL     1      -1.917  -2.298   0.000  0.00  0.00    +0.000 C 
ATOM     18  C   UNL     1      -2.632  -1.070   0.000  0.00  0.00    +0.000 C 
ATOM     19  C   UNL     1      -2.632  -1.900   0.000  0.00  0.00    +0.000 C 
ENDROOT
BRANCH   6  20
ATOM     20  C   UNL     1       2.538   0.408   0.000  0.00  0.00    +0.000 C 
ATOM     21  C   UNL     1       3.374   0.408   0.000  0.00  0.00    +0.000 C 
ENDBRANCH   6  20
BRANCH   6  22
ATOM     22  O   UNL     1       1.707   1.245   0.000  0.00  0.00    +0.000 OA
BRANCH  22  24
ATOM     23  O   UNL     1       1.080   2.325   0.000  0.00  0.00    +0.000 OA
ATOM     24  C   UNL     1       1.080   1.616   0.000  0.00  0.00    +0.000 C 
BRANCH  24  25
ATOM     25  C   UNL     1       0.479   1.245   0.000  0.00  0.00    +0.000 C 
BRANCH  25  26
ATOM     26  C   UNL     1      -0.148   1.616   0.000  0.00  0.00    +0.000 C 
BRANCH  26  27
ATOM     27  C   UNL     1      -0.749   1.245   0.000  0.00  0.00    +0.000 C 
BRANCH  27  28
ATOM     28  C   UNL     1      -1.350   1.616   0.000  0.00  0.00    +0.000 C 
BRANCH  28  29
ATOM     29  C   UNL     1      -1.984   1.245   0.000  0.00  0.00    +0.000 C 
ATOM     30  C   UNL     1      -2.612   1.616   0.000  0.00  0.00    +0.000 C 
ENDBRANCH  28  29
ENDBRANCH  27  28
ENDBRANCH  26  27
ENDBRANCH  25  26
ENDBRANCH  24  25
ENDBRANCH  22  24
ENDBRANCH   6  22
TORSDOF 8
