REMARK  Name = 
REMARK  4 active torsions:
REMARK  status: ('A' for Active; 'I' for Inactive)
REMARK    1  A    between atoms: C_1  and  CA_2
REMARK    2  A    between atoms: C_1  and  N_3
REMARK    3  A    between atoms: CA_2  and  C_4
REMARK    4  A    between atoms: N_3  and  N_6
REMARK                            x       y       z     vdW  Elec       q    Type
REMARK                         _______ _______ _______ _____ _____    ______ ____
ROOT
ATOM      1  C   UNL     1       0.000   0.206   0.000  0.00  0.00    +0.000 C 
ENDROOT
BRANCH   1   2
ATOM      2  CA  UNL     1       0.715  -0.206   0.000  0.00  0.00    +0.000 C 
ATOM      3  N   UNL     1       0.715  -1.031   0.000  0.00  0.00    +0.000 NA
BRANCH   2   4
ATOM      4  C   UNL     1       1.429   0.206   0.000  0.00  0.00    +0.000 C 
ATOM      5  O   UNL     1       2.143  -0.206   0.000  0.00  0.00    +0.000 OA
ATOM      6  OXT UNL     1       1.429   1.031   0.000  0.00  0.00    +0.000 OA
ENDBRANCH   2   4
ENDBRANCH   1   2
BRANCH   1   7
ATOM      7  N   UNL     1      -0.714  -0.206   0.000  0.00  0.00    +0.000 N 
ATOM      8  O   UNL     1      -0.714  -1.031   0.000  0.00  0.00    +0.000 OA
BRANCH   7   9
ATOM      9  N   UNL     1      -1.429   0.206   0.000  0.00  0.00    +0.000 NA
ATOM     10  O   UNL     1      -2.143  -0.206   0.000  0.00  0.00    +0.000 OA
ENDBRANCH   7   9
ENDBRANCH   1   7
TORSDOF 4
