REMARK  Name = 
REMARK  5 active torsions:
REMARK  status: ('A' for Active; 'I' for Inactive)
REMARK    1  A    between atoms: C_2  and  C_10
REMARK    2  A    between atoms: C_10  and  N_11
REMARK    3  A    between atoms: N_11  and  N_12
REMARK    4  A    between atoms: C_13  and  CA_14
REMARK    5  A    between atoms: CA_14  and  C_17
REMARK                            x       y       z     vdW  Elec       q    Type
REMARK                         _______ _______ _______ _____ _____    ______ ____
ROOT
ATOM      1  C   UNL     1       1.075   0.618   0.000  0.00  0.00    +0.000 A 
ATOM      2  C   UNL     1       1.073  -0.209   0.000  0.00  0.00    +0.000 A 
ATOM      3  C   UNL     1       1.788  -0.622   0.000  0.00  0.00    +0.000 A 
ATOM      4  C   UNL     1       2.505  -0.209   0.000  0.00  0.00    +0.000 A 
ATOM      5  C   UNL     1       2.502   0.622   0.000  0.00  0.00    +0.000 A 
ATOM      6  C   UNL     1       1.786   1.031   0.000  0.00  0.00    +0.000 A 
ATOM      7  O   UNL     1       3.215   1.037   0.000  0.00  0.00    +0.000 OA
ATOM      8  O   UNL     1       1.784   1.856   0.000  0.00  0.00    +0.000 OA
ATOM      9  O   UNL     1       0.360   1.030   0.000  0.00  0.00    +0.000 OA
ENDROOT
BRANCH   2  10
ATOM     10  C   UNL     1       0.359  -0.621   0.000  0.00  0.00    +0.000 C 
BRANCH  10  11
ATOM     11  N   UNL     1      -0.355  -0.208   0.000  0.00  0.00    +0.000 NA
BRANCH  11  12
ATOM     12  N   UNL     1      -1.070  -0.620   0.000  0.00  0.00    +0.000 NA
ATOM     13  C   UNL     1      -1.784  -0.207   0.000  0.00  0.00    +0.000 C 
ATOM     14  O   UNL     1      -1.784   0.618   0.000  0.00  0.00    +0.000 OA
BRANCH  13  15
ATOM     15  CA  UNL     1      -2.499  -0.619   0.000  0.00  0.00    +0.000 C 
ATOM     16  N   UNL     1      -3.213  -0.206   0.000  0.00  0.00    +0.000 NA
BRANCH  15  17
ATOM     17  C   UNL     1      -2.500  -1.444   0.000  0.00  0.00    +0.000 C 
ATOM     18  O   UNL     1      -3.215  -1.856   0.000  0.00  0.00    +0.000 OA
ENDBRANCH  15  17
ENDBRANCH  13  15
ENDBRANCH  11  12
ENDBRANCH  10  11
ENDBRANCH   2  10
TORSDOF 5
