REMARK  Name = 
REMARK  11 active torsions:
REMARK  status: ('A' for Active; 'I' for Inactive)
REMARK    1  A    between atoms: C_2  and  C_5
REMARK    2  A    between atoms: C_5  and  C_10
REMARK    3  A    between atoms: C_10  and  C_13
REMARK    4  A    between atoms: C_10  and  C_14
REMARK    5  A    between atoms: C_13  and  C_15
REMARK    6  A    between atoms: C_14  and  O_16
REMARK    7  A    between atoms: O_16  and  C_20
REMARK    8  A    between atoms: C_20  and  C_23
REMARK    9  A    between atoms: C_23  and  N_24
REMARK   10  A    between atoms: N_24  and  C_25
REMARK   11  A    between atoms: N_24  and  C_26
REMARK                            x       y       z     vdW  Elec       q    Type
REMARK                         _______ _______ _______ _____ _____    ______ ____
ROOT
ATOM      1  C   UNL     1      -1.072   0.603   0.000  0.00  0.00    +0.000 C 
ENDROOT
BRANCH   1   2
ATOM      2  C   UNL     1      -0.357   1.015   0.000  0.00  0.00    +0.000 C 
ATOM      3  O   UNL     1      -0.357   1.840   0.000  0.00  0.00    +0.000 OA
BRANCH   2   4
ATOM      4  O   UNL     1       0.357   0.603   0.000  0.00  0.00    +0.000 OA
BRANCH   4   5
ATOM      5  C   UNL     1       1.072   1.015   0.000  0.00  0.00    +0.000 C 
BRANCH   5   6
ATOM      6  C   UNL     1       1.786   0.603   0.000  0.00  0.00    +0.000 C 
BRANCH   6   7
ATOM      7  N   UNL     1       2.501   1.015   0.000  0.00  0.00    +0.000 NA
BRANCH   7   8
ATOM      8  C   UNL     1       3.215   0.603   0.000  0.00  0.00    +0.000 C 
ATOM      9  C   UNL     1       3.215  -0.222   0.000  0.00  0.00    +0.000 C 
ENDBRANCH   7   8
BRANCH   7  10
ATOM     10  C   UNL     1       2.501   1.840   0.000  0.00  0.00    +0.000 C 
ATOM     11  C   UNL     1       3.215   2.253   0.000  0.00  0.00    +0.000 C 
ENDBRANCH   7  10
ENDBRANCH   6   7
ENDBRANCH   5   6
ENDBRANCH   4   5
ENDBRANCH   2   4
ENDBRANCH   1   2
BRANCH   1  12
ATOM     12  C   UNL     1      -1.072  -0.222   0.000  0.00  0.00    +0.000 C 
BRANCH  12  14
ATOM     13  C   UNL     1      -1.786  -1.460   0.000  0.00  0.00    +0.000 A 
ATOM     14  C   UNL     1      -1.786  -0.635   0.000  0.00  0.00    +0.000 A 
ATOM     15  C   UNL     1      -2.501  -1.872   0.000  0.00  0.00    +0.000 A 
ATOM     16  C   UNL     1      -1.072  -1.872   0.000  0.00  0.00    +0.000 A 
ATOM     17  C   UNL     1      -2.501  -0.222   0.000  0.00  0.00    +0.000 A 
ATOM     18  C   UNL     1      -3.215  -1.460   0.000  0.00  0.00    +0.000 A 
ATOM     19  C   UNL     1      -2.501  -2.697   0.000  0.00  0.00    +0.000 A 
ATOM     20  C   UNL     1      -1.072  -2.697   0.000  0.00  0.00    +0.000 A 
ATOM     21  C   UNL     1      -3.215  -0.635   0.000  0.00  0.00    +0.000 A 
ATOM     22  C   UNL     1      -1.786  -3.110   0.000  0.00  0.00    +0.000 A 
ENDBRANCH  12  14
ENDBRANCH   1  12
BRANCH   1  23
ATOM     23  C   UNL     1      -1.786   1.015   0.000  0.00  0.00    +0.000 C 
BRANCH  23  24
ATOM     24  C   UNL     1      -1.786   1.840   0.000  0.00  0.00    +0.000 C 
ATOM     25  C   UNL     1      -1.119   2.325   0.000  0.00  0.00    +0.000 C 
ATOM     26  O   UNL     1      -2.454   2.325   0.000  0.00  0.00    +0.000 OA
ATOM     27  C   UNL     1      -1.374   3.110   0.000  0.00  0.00    +0.000 C 
ATOM     28  C   UNL     1      -2.199   3.110   0.000  0.00  0.00    +0.000 C 
ENDBRANCH  23  24
ENDBRANCH   1  23
TORSDOF 11
