REMARK  Name = 
REMARK  4 active torsions:
REMARK  status: ('A' for Active; 'I' for Inactive)
REMARK    1  A    between atoms: P_1  and  O_5
REMARK    2  A    between atoms: O_5  and  C_6
REMARK    3  A    between atoms: C_6  and  C_7
REMARK    4  A    between atoms: C_13  and  N_14
REMARK                            x       y       z     vdW  Elec       q    Type
REMARK                         _______ _______ _______ _____ _____    ______ ____
ROOT
ATOM      1  C   UNL     1      -0.406   0.526   0.000  0.00  0.00    +0.000 C 
ATOM      2  O   UNL     1       0.261   0.041   0.000  0.00  0.00    +0.000 OA
ATOM      3  C   UNL     1      -1.074   0.041   0.000  0.00  0.00    +0.000 C 
ATOM      4  O   UNL     1      -1.858   0.296   0.000  0.00  0.00    +0.000 OA
ATOM      5  C   UNL     1      -0.819  -0.744   0.000  0.00  0.00    +0.000 C 
ATOM      6  O   UNL     1      -1.304  -1.411   0.000  0.00  0.00    +0.000 OA
ATOM      7  C   UNL     1       0.006  -0.744   0.000  0.00  0.00    +0.000 C 
ENDROOT
BRANCH   7   8
ATOM      8  N   UNL     1       0.491  -1.411   0.000  0.00  0.00    +0.000 N 
ATOM      9  C   UNL     1       0.155  -2.165   0.000  0.00  0.00    +0.000 C 
ATOM     10  O   UNL     1      -0.665  -2.251   0.000  0.00  0.00    +0.000 OA
ATOM     11  N   UNL     1       0.640  -2.832   0.000  0.00  0.00    +0.000 NA
ATOM     12  C   UNL     1       1.461  -2.746   0.000  0.00  0.00    +0.000 C 
ATOM     13  O   UNL     1       1.946  -3.413   0.000  0.00  0.00    +0.000 OA
ATOM     14  C   UNL     1       1.796  -1.992   0.000  0.00  0.00    +0.000 C 
ATOM     15  C   UNL     1       1.312  -1.325   0.000  0.00  0.00    +0.000 C 
ATOM     16  O   UNL     1       1.647  -0.571   0.000  0.00  0.00    +0.000 OA
ENDBRANCH   7   8
BRANCH   1  17
ATOM     17  C   UNL     1      -0.406   1.351   0.000  0.00  0.00    +0.000 C 
BRANCH  17  18
ATOM     18  O   UNL     1      -1.121   1.763   0.000  0.00  0.00    +0.000 OA
BRANCH  18  19
ATOM     19  P   UNL     1      -1.121   2.588   0.000  0.00  0.00    +0.000 P 
ATOM     20  O   UNL     1      -1.121   3.413   0.000  0.00  0.00    +0.000 OA
ATOM     21  O   UNL     1      -1.946   2.588   0.000  0.00  0.00    +0.000 OA
ATOM     22  O   UNL     1      -0.296   2.588   0.000  0.00  0.00    +0.000 OA
ENDBRANCH  18  19
ENDBRANCH  17  18
ENDBRANCH   1  17
TORSDOF 4
