REMARK  Name = 
REMARK  6 active torsions:
REMARK  status: ('A' for Active; 'I' for Inactive)
REMARK    1  A    between atoms: C_2  and  N_3
REMARK    2  A    between atoms: N_6  and  C_9
REMARK    3  A    between atoms: C_9  and  C_10
REMARK    4  A    between atoms: C_13  and  N_16
REMARK    5  A    between atoms: C_21  and  C_23
REMARK    6  A    between atoms: N_32  and  C_33
REMARK                            x       y       z     vdW  Elec       q    Type
REMARK                         _______ _______ _______ _____ _____    ______ ____
ROOT
ATOM      1  N   UNL     1       4.928   1.110   0.000  0.00  0.00    +0.000 NA
ATOM      2  C   UNL     1       4.213   0.698   0.000  0.00  0.00    +0.000 A 
ATOM      3  N   UNL     1       4.213  -0.127   0.000  0.00  0.00    +0.000 NA
ATOM      4  C   UNL     1       3.499  -0.540   0.000  0.00  0.00    +0.000 A 
ATOM      5  C   UNL     1       2.784  -0.127   0.000  0.00  0.00    +0.000 A 
ATOM      6  C   UNL     1       2.784   0.698   0.000  0.00  0.00    +0.000 A 
ATOM      7  N   UNL     1       3.499   1.110   0.000  0.00  0.00    +0.000 NA
ATOM      8  F   UNL     1       2.070  -0.540   0.000  0.00  0.00    +0.000 F 
ENDROOT
BRANCH   6   9
ATOM      9  C   UNL     1       2.070   1.110   0.000  0.00  0.00    +0.000 A 
ATOM     10  C   UNL     1       1.356   0.698   0.000  0.00  0.00    +0.000 A 
ATOM     11  C   UNL     1       0.641   1.110   0.000  0.00  0.00    +0.000 A 
ATOM     12  C   UNL     1       0.641   1.935   0.000  0.00  0.00    +0.000 A 
ATOM     13  C   UNL     1       1.356   2.348   0.000  0.00  0.00    +0.000 A 
ATOM     14  C   UNL     1       2.070   1.935   0.000  0.00  0.00    +0.000 A 
ATOM     15  F   UNL     1       1.356   3.173   0.000  0.00  0.00    +0.000 F 
ATOM     16  N   UNL     1      -0.143   2.190   0.000  0.00  0.00    +0.000 NA
ATOM     17  C   UNL     1      -0.628   1.523   0.000  0.00  0.00    +0.000 A 
ATOM     18  N   UNL     1      -0.143   0.856   0.000  0.00  0.00    +0.000 N 
ATOM     19  C   UNL     1      -1.453   1.523   0.000  0.00  0.00    +0.000 C 
BRANCH  18  20
ATOM     20  C   UNL     1      -0.398   0.071   0.000  0.00  0.00    +0.000 C 
ATOM     21  C   UNL     1       0.154  -0.542   0.000  0.00  0.00    +0.000 C 
ATOM     22  C   UNL     1      -1.205  -0.101   0.000  0.00  0.00    +0.000 C 
ENDBRANCH  18  20
ENDBRANCH   6   9
BRANCH   1  26
ATOM     23  C   UNL     1       7.071  -0.127   0.000  0.00  0.00    +0.000 A 
ATOM     24  C   UNL     1       6.357  -0.540   0.000  0.00  0.00    +0.000 A 
ATOM     25  C   UNL     1       5.642  -0.127   0.000  0.00  0.00    +0.000 A 
ATOM     26  C   UNL     1       5.642   0.698   0.000  0.00  0.00    +0.000 A 
ATOM     27  N   UNL     1       6.357   1.110   0.000  0.00  0.00    +0.000 NA
ATOM     28  C   UNL     1       7.071   0.698   0.000  0.00  0.00    +0.000 A 
BRANCH  23  29
ATOM     29  C   UNL     1       7.786  -0.540   0.000  0.00  0.00    +0.000 C 
BRANCH  29  33
ATOM     30  N   UNL     1       9.929   0.698   0.000  0.00  0.00    +0.000 NA
ATOM     31  C   UNL     1       9.929  -0.127   0.000  0.00  0.00    +0.000 C 
ATOM     32  C   UNL     1       9.215  -0.540   0.000  0.00  0.00    +0.000 C 
ATOM     33  N   UNL     1       8.500  -0.127   0.000  0.00  0.00    +0.000 NA
ATOM     34  C   UNL     1       8.500   0.698   0.000  0.00  0.00    +0.000 C 
ATOM     35  C   UNL     1       9.215   1.110   0.000  0.00  0.00    +0.000 C 
BRANCH  30  37
ATOM     36  C   UNL     1      10.644   1.935   0.000  0.00  0.00    +0.000 C 
ATOM     37  C   UNL     1      10.644   1.110   0.000  0.00  0.00    +0.000 C 
ENDBRANCH  30  37
ENDBRANCH  29  33
ENDBRANCH  23  29
ENDBRANCH   1  26
TORSDOF 6
