REMARK  Name = 
REMARK  2 active torsions:
REMARK  status: ('A' for Active; 'I' for Inactive)
REMARK    1  A    between atoms: N_7  and  C_11
REMARK    2  A    between atoms: C_11  and  C_12
REMARK                            x       y       z     vdW  Elec       q    Type
REMARK                         _______ _______ _______ _____ _____    ______ ____
ROOT
ATOM      1  C   UNL     1      -1.920   0.825   0.000  0.00  0.00    +0.000 C 
ATOM      2  C   UNL     1      -1.206  -0.412   0.000  0.00  0.00    +0.000 C 
ATOM      3  C   UNL     1      -0.491   0.825   0.000  0.00  0.00    +0.000 C 
ATOM      4  C   UNL     1      -2.367  -0.813   0.000  0.00  0.00    +0.000 C 
ATOM      5  C   UNL     1      -0.898  -0.813   0.000  0.00  0.00    +0.000 C 
ATOM      6  N   UNL     1      -1.206   1.237   0.000  0.00  0.00    +0.000 NA
ATOM      7  N   UNL     1      -0.491   0.000   0.000  0.00  0.00    +0.000 N 
ATOM      8  N   UNL     1      -1.920   0.000   0.000  0.00  0.00    +0.000 NA
ATOM      9  C   UNL     1      -1.627   0.379   0.000  0.00  0.00    +0.000 C 
ATOM     10  N   UNL     1      -1.627  -0.513   0.000  0.00  0.00    +0.000 NA
ENDROOT
BRANCH   7  11
ATOM     11  C   UNL     1       0.223  -0.412   0.000  0.00  0.00    +0.000 C 
BRANCH  11  12
ATOM     12  C   UNL     1       0.938   0.000   0.000  0.00  0.00    +0.000 C 
ATOM     13  C   UNL     1       1.652  -0.412   0.000  0.00  0.00    +0.000 C 
ATOM     14 CL   UNL     1       2.367   0.000   0.000  0.00  0.00    +0.000 Cl
ENDBRANCH  11  12
ENDBRANCH   7  11
TORSDOF 2
REMARK  Name = 
REMARK  2 active torsions:
REMARK  status: ('A' for Active; 'I' for Inactive)
REMARK    1  A    between atoms: N_7  and  C_11
REMARK    2  A    between atoms: C_11  and  C_12
REMARK                            x       y       z     vdW  Elec       q    Type
REMARK                         _______ _______ _______ _____ _____    ______ ____
ROOT
ATOM      1 CL   UNL     1       0.676  -0.957   0.000  0.00  0.00    +0.000 Cl
ENDROOT
TORSDOF 0
