REMARK  Name = 
REMARK  2 active torsions:
REMARK  status: ('A' for Active; 'I' for Inactive)
REMARK    1  A    between atoms: C_6  and  N_11
REMARK    2  A    between atoms: N_14  and  C_15
REMARK                            x       y       z     vdW  Elec       q    Type
REMARK                         _______ _______ _______ _____ _____    ______ ____
ROOT
ATOM      1  N   UNL     1       0.145   1.931   0.000  0.00  0.00    +0.000 NA
ATOM      2  C   UNL     1       0.586   1.233   0.000  0.00  0.00    +0.000 C 
ATOM      3  O   UNL     1       1.410   1.266   0.000  0.00  0.00    +0.000 OA
ATOM      4  N   UNL     1       0.201   0.502   0.000  0.00  0.00    +0.000 NA
ENDROOT
BRANCH   1  10
ATOM      5  C   UNL     1      -2.780   1.292   0.000  0.00  0.00    +0.000 C 
ATOM      6  C   UNL     1      -2.138   1.975   0.000  0.00  0.00    +0.000 C 
ATOM      7  C   UNL     1      -1.975   1.517   0.000  0.00  0.00    +0.000 C 
ATOM      8  C   UNL     1      -1.427   1.713   0.000  0.00  0.00    +0.000 C 
ATOM      9  C   UNL     1      -1.222   1.214   0.000  0.00  0.00    +0.000 C 
ATOM     10  C   UNL     1      -0.679   1.898   0.000  0.00  0.00    +0.000 C 
ATOM     11  C   UNL     1      -1.978   2.369   0.000  0.00  0.00    +0.000 C 
ATOM     12  C   UNL     1      -1.421   3.027   0.000  0.00  0.00    +0.000 C 
ATOM     13  C   UNL     1      -2.143   2.771   0.000  0.00  0.00    +0.000 C 
ATOM     14  C   UNL     1      -0.673   2.717   0.000  0.00  0.00    +0.000 C 
ENDBRANCH   1  10
BRANCH   4  15
ATOM     15  C   UNL     1       0.641  -0.196   0.000  0.00  0.00    +0.000 C 
ATOM     16  C   UNL     1       0.256  -0.932   0.000  0.00  0.00    +0.000 C 
ATOM     17  C   UNL     1       0.693  -1.627   0.000  0.00  0.00    +0.000 C 
ATOM     18  N   UNL     1       1.517  -1.599   0.000  0.00  0.00    +0.000 N 
ATOM     19  C   UNL     1       1.904  -0.869   0.000  0.00  0.00    +0.000 C 
ATOM     20  C   UNL     1       1.465  -0.167   0.000  0.00  0.00    +0.000 C 
ATOM     21  C   UNL     1       1.955  -2.299   0.000  0.00  0.00    +0.000 C 
ATOM     22  C   UNL     1       1.568  -3.027   0.000  0.00  0.00    +0.000 C 
ATOM     23  O   UNL     1       2.780  -2.269   0.000  0.00  0.00    +0.000 OA
ENDBRANCH   4  15
TORSDOF 2
