REMARK  Name = 
REMARK  11 active torsions:
REMARK  status: ('A' for Active; 'I' for Inactive)
REMARK    1  A    between atoms: C_8  and  C_10
REMARK    2  A    between atoms: C_9  and  C_12
REMARK    3  A    between atoms: C_9  and  C_13
REMARK    4  A    between atoms: C_10  and  C_16
REMARK    5  A    between atoms: C_11  and  C_17
REMARK    6  A    between atoms: C_12  and  C_16
REMARK    7  A    between atoms: C_13  and  C_19
REMARK    8  A    between atoms: C_14  and  C_18
REMARK    9  A    between atoms: C_15  and  O_22
REMARK   10  A    between atoms: C_18  and  O_22
REMARK   11  A    between atoms: C_19  and  O_21
REMARK                            x       y       z     vdW  Elec       q    Type
REMARK                         _______ _______ _______ _____ _____    ______ ____
ROOT
ATOM      1  C   UNL     1      -1.238  -0.715   0.000  0.00  0.00    +0.000 C 
ATOM      2  C   UNL     1      -0.412  -0.715   0.000  0.00  0.00    +0.000 C 
ENDROOT
BRANCH   2   5
ATOM      3  C   UNL     1      -0.412   0.715   0.000  0.00  0.00    +0.000 C 
ATOM      4  C   UNL     1       0.825   0.000   0.000  0.00  0.00    +0.000 C 
ATOM      5  C   UNL     1       0.000   0.000   0.000  0.00  0.00    +0.000 C 
BRANCH   4   6
ATOM      6  C   UNL     1       1.238   0.715   0.000  0.00  0.00    +0.000 C 
ATOM      7  O   UNL     1       0.825   1.429   0.000  0.00  0.00    +0.000 OA
BRANCH   6   8
ATOM      8  O   UNL     1       2.062   0.715   0.000  0.00  0.00    +0.000 OA
BRANCH   8  11
ATOM      9  C   UNL     1       3.300   1.429   0.000  0.00  0.00    +0.000 C 
ATOM     10  C   UNL     1       2.062   2.143   0.000  0.00  0.00    +0.000 C 
ATOM     11  C   UNL     1       2.475   1.429   0.000  0.00  0.00    +0.000 C 
ENDBRANCH   8  11
ENDBRANCH   6   8
ENDBRANCH   4   6
ENDBRANCH   2   5
BRANCH   1  12
ATOM     12  C   UNL     1      -1.650  -1.429   0.000  0.00  0.00    +0.000 C 
BRANCH  12  14
ATOM     13  C   UNL     1      -2.888  -0.715   0.000  0.00  0.00    +0.000 C 
ATOM     14  C   UNL     1      -2.475  -1.429   0.000  0.00  0.00    +0.000 C 
BRANCH  14  15
ATOM     15  C   UNL     1      -2.888  -2.143   0.000  0.00  0.00    +0.000 C 
BRANCH  15  16
ATOM     16  C   UNL     1      -3.712  -2.143   0.000  0.00  0.00    +0.000 C 
BRANCH  16  17
ATOM     17  C   UNL     1      -4.125  -2.858   0.000  0.00  0.00    +0.000 C 
BRANCH  17  20
ATOM     18  C   UNL     1      -4.950  -2.033   0.000  0.00  0.00    +0.000 C 
ATOM     19  C   UNL     1      -4.950  -3.683   0.000  0.00  0.00    +0.000 C 
ATOM     20  C   UNL     1      -4.950  -2.858   0.000  0.00  0.00    +0.000 C 
BRANCH  20  22
ATOM     21  C   UNL     1      -6.188  -3.572   0.000  0.00  0.00    +0.000 C 
ATOM     22  O   UNL     1      -5.775  -2.858   0.000  0.00  0.00    +0.000 OA
ENDBRANCH  20  22
ENDBRANCH  17  20
ENDBRANCH  16  17
ENDBRANCH  15  16
ENDBRANCH  14  15
ENDBRANCH  12  14
ENDBRANCH   1  12
TORSDOF 11
