REMARK  Name = 
REMARK  36 active torsions:
REMARK  status: ('A' for Active; 'I' for Inactive)
REMARK    1  A    between atoms: C_2  and  C_3
REMARK    2  A    between atoms: C_2  and  C_58
REMARK    3  A    between atoms: C_3  and  N_4
REMARK    4  A    between atoms: C_5  and  C_7
REMARK    5  A    between atoms: C_7  and  C_8
REMARK    6  A    between atoms: C_7  and  N_15
REMARK    7  A    between atoms: C_8  and  C_9
REMARK    8  A    between atoms: C_16  and  C_18
REMARK    9  A    between atoms: C_18  and  C_19
REMARK   10  A    between atoms: C_18  and  N_26
REMARK   11  A    between atoms: C_19  and  C_20
REMARK   12  A    between atoms: C_27  and  C_29
REMARK   13  A    between atoms: C_29  and  C_30
REMARK   14  A    between atoms: C_30  and  C_31
REMARK   15  A    between atoms: C_31  and  C_32
REMARK   16  A    between atoms: C_32  and  C_33
REMARK   17  A    between atoms: C_33  and  C_34
REMARK   18  A    between atoms: C_34  and  C_35
REMARK   19  A    between atoms: C_35  and  N_36
REMARK   20  A    between atoms: C_37  and  C_39
REMARK   21  A    between atoms: C_39  and  C_40
REMARK   22  A    between atoms: C_40  and  C_41
REMARK   23  A    between atoms: C_41  and  N_42
REMARK   24  A    between atoms: C_41  and  C_55
REMARK   25  A    between atoms: N_45  and  C_46
REMARK   26  A    between atoms: C_46  and  C_47
REMARK   27  A    between atoms: C_46  and  C_52
REMARK   28  A    between atoms: C_47  and  C_48
REMARK   29  A    between atoms: C_48  and  C_49
REMARK   30  A    between atoms: N_60  and  CA_61
REMARK   31  A    between atoms: CA_61  and  CB_62
REMARK   32  A    between atoms: CA_61  and  C_66
REMARK   33  A    between atoms: CB_62  and  CG_63
REMARK   34  A    between atoms: N_68  and  CA_69
REMARK   35  A    between atoms: CA_69  and  CB_70
REMARK   36  A    between atoms: CA_69  and  C_72
REMARK                            x       y       z     vdW  Elec       q    Type
REMARK                         _______ _______ _______ _____ _____    ______ ____
ROOT
ATOM      1  C   UNK A   1      19.687  -5.042   0.000  0.00  0.00    +0.000 C 
ENDROOT
BRANCH   1   2
ATOM      2  N   UNK A   1      18.872  -5.171   0.000  0.00  0.00    +0.000 NA
ATOM      3  C   UNK A   1      18.575  -5.941   0.000  0.00  0.00    +0.000 C 
ATOM      4  O   UNK A   1      19.094  -6.582   0.000  0.00  0.00    +0.000 OA
BRANCH   3   5
ATOM      5  C   UNK A   1      17.761  -6.069   0.000  0.00  0.00    +0.000 C 
BRANCH   5   6
ATOM      6  C   UNK A   1      17.464  -6.839   0.000  0.00  0.00    +0.000 C 
BRANCH   6   7
ATOM      7  C   UNK A   1      16.649  -6.967   0.000  0.00  0.00    +0.000 C 
BRANCH   7   8
ATOM      8  C   UNK A   1      16.353  -7.737   0.000  0.00  0.00    +0.000 C 
BRANCH   8   9
ATOM      9  C   UNK A   1      15.538  -7.865   0.000  0.00  0.00    +0.000 C 
BRANCH   9  10
ATOM     10  C   UNK A   1      15.242  -8.635   0.000  0.00  0.00    +0.000 C 
BRANCH  10  11
ATOM     11  C   UNK A   1      14.427  -8.764   0.000  0.00  0.00    +0.000 C 
BRANCH  11  12
ATOM     12  N   UNK A   1      14.130  -9.534   0.000  0.00  0.00    +0.000 NA
ATOM     13  C   UNK A   1      13.315  -9.662   0.000  0.00  0.00    +0.000 C 
ATOM     14  O   UNK A   1      12.797  -9.020   0.000  0.00  0.00    +0.000 OA
BRANCH  13  15
ATOM     15  C   UNK A   1      13.019 -10.432   0.000  0.00  0.00    +0.000 C 
BRANCH  15  16
ATOM     16  C   UNK A   1      12.204 -10.560   0.000  0.00  0.00    +0.000 C 
BRANCH  16  17
ATOM     17  C   UNK A   1      11.908 -11.330   0.000  0.00  0.00    +0.000 C 
BRANCH  17  18
ATOM     18  N   UNK A   1      11.093 -11.459   0.000  0.00  0.00    +0.000 NA
ATOM     19  C   UNK A   0      10.796 -12.229   0.000  0.00  0.00    +0.000 C 
ATOM     20  O   UNK A   0      11.315 -12.870   0.000  0.00  0.00    +0.000 OA
ATOM     21  N   UNK A   1       9.981 -12.357   0.000  0.00  0.00    +0.000 NA
BRANCH  21  22
ATOM     22  C   UNK A   1       9.685 -13.127   0.000  0.00  0.00    +0.000 C 
BRANCH  22  23
ATOM     23  C   UNK A   1      10.204 -13.768   0.000  0.00  0.00    +0.000 C 
ATOM     24  O   UNK A   1       9.907 -14.538   0.000  0.00  0.00    +0.000 OA
ATOM     25  O   UNK A   1      11.018 -13.640   0.000  0.00  0.00    +0.000 OA
ENDBRANCH  22  23
BRANCH  22  26
ATOM     26  C   UNK A   1       8.870 -13.255   0.000  0.00  0.00    +0.000 C 
BRANCH  26  27
ATOM     27  C   UNK A   1       8.574 -14.025   0.000  0.00  0.00    +0.000 C 
BRANCH  27  28
ATOM     28  C   UNK A   1       7.759 -14.153   0.000  0.00  0.00    +0.000 C 
ATOM     29  O   UNK A   1       7.462 -14.923   0.000  0.00  0.00    +0.000 OA
ATOM     30  O   UNK A   1       7.240 -13.512   0.000  0.00  0.00    +0.000 OA
ENDBRANCH  27  28
ENDBRANCH  26  27
ENDBRANCH  22  26
ENDBRANCH  21  22
ENDBRANCH  17  18
BRANCH  17  31
ATOM     31  C   UNK A   1      12.426 -11.972   0.000  0.00  0.00    +0.000 C 
ATOM     32  O   UNK A   1      12.130 -12.742   0.000  0.00  0.00    +0.000 OA
ATOM     33  O   UNK A   1      13.241 -11.844   0.000  0.00  0.00    +0.000 OA
ENDBRANCH  17  31
ENDBRANCH  16  17
ENDBRANCH  15  16
ENDBRANCH  13  15
ENDBRANCH  11  12
ENDBRANCH  10  11
ENDBRANCH   9  10
ENDBRANCH   8   9
ENDBRANCH   7   8
ENDBRANCH   6   7
ENDBRANCH   5   6
ENDBRANCH   3   5
ENDBRANCH   1   2
BRANCH   1  35
ATOM     34  N   UNK A   1      19.909  -6.454   0.000  0.00  0.00    +0.000 NA
ATOM     35  C   UNK A   1      20.205  -5.684   0.000  0.00  0.00    +0.000 C 
ATOM     36  O   UNK A   1      21.020  -5.556   0.000  0.00  0.00    +0.000 OA
BRANCH  34  37
ATOM     37  C   UNK A   1      20.428  -7.096   0.000  0.00  0.00    +0.000 C 
BRANCH  37  39
ATOM     38  N   UNK A   1      20.650  -8.507   0.000  0.00  0.00    +0.000 NA
ATOM     39  C   UNK A   1      20.131  -7.865   0.000  0.00  0.00    +0.000 C 
ATOM     40  O   UNK A   1      19.316  -7.994   0.000  0.00  0.00    +0.000 OA
BRANCH  38  41
ATOM     41  C   UNK A   1      20.354  -9.277   0.000  0.00  0.00    +0.000 C 
BRANCH  41  43
ATOM     42  N   UNK A   1      21.687  -9.790   0.000  0.00  0.00    +0.000 NA
ATOM     43  C   UNK A   1      20.872  -9.919   0.000  0.00  0.00    +0.000 C 
BRANCH  43  44
ATOM     44  C   UNK A   1      20.576 -10.689   0.000  0.00  0.00    +0.000 C 
ATOM     45  O   UNK A   1      19.761 -10.817   0.000  0.00  0.00    +0.000 OA
ATOM     46  N   ASP A   2      21.094 -11.330   0.000  0.00  0.00    +0.000 NA
BRANCH  46  47
ATOM     47  CA  ASP A   2      20.798 -12.100   0.000  0.00  0.00    +0.000 C 
BRANCH  47  48
ATOM     48  C   ASP A   2      21.317 -12.742   0.000  0.00  0.00    +0.000 C 
ATOM     49  O   ASP A   2      22.132 -12.613   0.000  0.00  0.00    +0.000 OA
ATOM     50  N   CYS A   3      21.020 -13.512   0.000  0.00  0.00    +0.000 NA
BRANCH  50  51
ATOM     51  CA  CYS A   3      21.539 -14.153   0.000  0.00  0.00    +0.000 C 
BRANCH  51  52
ATOM     52  C   CYS A   3      22.354 -14.025   0.000  0.00  0.00    +0.000 C 
ATOM     53  O   CYS A   3      22.872 -14.667   0.000  0.00  0.00    +0.000 OA
ATOM     54  OXT CYS A   3      22.650 -13.255   0.000  0.00  0.00    +0.000 OA
ENDBRANCH  51  52
BRANCH  51  55
ATOM     55  CB  CYS A   3      21.243 -14.923   0.000  0.00  0.00    +0.000 C 
ATOM     56  SG  CYS A   3      21.761 -15.565   0.000  0.00  0.00    +0.000 S 
ENDBRANCH  51  55
ENDBRANCH  50  51
ENDBRANCH  47  48
BRANCH  47  57
ATOM     57  CB  ASP A   2      19.983 -12.229   0.000  0.00  0.00    +0.000 C 
BRANCH  57  58
ATOM     58  CG  ASP A   2      19.687 -12.998   0.000  0.00  0.00    +0.000 C 
ATOM     59  OD1 ASP A   2      18.872 -13.127   0.000  0.00  0.00    +0.000 OA
ATOM     60  OD2 ASP A   2      20.205 -13.640   0.000  0.00  0.00    +0.000 OA
ENDBRANCH  57  58
ENDBRANCH  47  57
ENDBRANCH  46  47
ENDBRANCH  43  44
ENDBRANCH  41  43
ENDBRANCH  38  41
ENDBRANCH  37  39
BRANCH  37  61
ATOM     61  C   UNK A   1      21.243  -6.967   0.000  0.00  0.00    +0.000 C 
BRANCH  61  62
ATOM     62  C   UNK A   1      21.761  -7.609   0.000  0.00  0.00    +0.000 A 
ATOM     63  C   UNK A   1      22.576  -7.481   0.000  0.00  0.00    +0.000 A 
ATOM     64  C   UNK A   1      23.095  -8.122   0.000  0.00  0.00    +0.000 A 
ATOM     65  C   UNK A   1      22.798  -8.892   0.000  0.00  0.00    +0.000 A 
ATOM     66  C   UNK A   1      21.983  -9.020   0.000  0.00  0.00    +0.000 A 
ATOM     67  C   UNK A   1      21.465  -8.379   0.000  0.00  0.00    +0.000 A 
ENDBRANCH  61  62
ENDBRANCH  37  61
ENDBRANCH  34  37
ENDBRANCH   1  35
BRANCH   1  68
ATOM     68  C   UNK A   1      19.983  -4.272   0.000  0.00  0.00    +0.000 C 
BRANCH  68  69
ATOM     69  C   UNK A   1      20.798  -4.144   0.000  0.00  0.00    +0.000 A 
ATOM     70  C   UNK A   1      21.094  -3.374   0.000  0.00  0.00    +0.000 A 
ATOM     71  C   UNK A   1      21.909  -3.246   0.000  0.00  0.00    +0.000 A 
ATOM     72  C   UNK A   1      22.428  -3.888   0.000  0.00  0.00    +0.000 A 
ATOM     73  C   UNK A   1      22.132  -4.657   0.000  0.00  0.00    +0.000 A 
ATOM     74  C   UNK A   1      21.317  -4.786   0.000  0.00  0.00    +0.000 A 
ENDBRANCH  68  69
ENDBRANCH   1  68
TORSDOF 36
