REMARK  Name = 
REMARK  4 active torsions:
REMARK  status: ('A' for Active; 'I' for Inactive)
REMARK    1  A    between atoms: C_1  and  C_9
REMARK    2  A    between atoms: C_9  and  C_10
REMARK    3  A    between atoms: C_10  and  C_11
REMARK    4  A    between atoms: C_10  and  N_15
REMARK                            x       y       z     vdW  Elec       q    Type
REMARK                         _______ _______ _______ _____ _____    ______ ____
ROOT
ATOM      1  C   UNL     1      -0.353   0.065   0.000  0.00  0.00    +0.000 A 
ATOM      2  C   UNL     1      -0.353  -0.760   0.000  0.00  0.00    +0.000 A 
ATOM      3  C   UNL     1      -1.069   0.482   0.000  0.00  0.00    +0.000 A 
ATOM      4  C   UNL     1      -1.069  -1.168   0.000  0.00  0.00    +0.000 A 
ATOM      5  C   UNL     1      -1.784   0.065   0.000  0.00  0.00    +0.000 A 
ATOM      6  C   UNL     1      -1.784  -0.760   0.000  0.00  0.00    +0.000 A 
ATOM      7  O   UNL     1      -2.500   0.482   0.000  0.00  0.00    +0.000 OA
ATOM      8  O   UNL     1      -2.500  -1.168   0.000  0.00  0.00    +0.000 OA
ENDROOT
BRANCH   1   9
ATOM      9  C   UNL     1       0.363   0.482   0.000  0.00  0.00    +0.000 C 
BRANCH   9  10
ATOM     10  C   UNL     1       1.079   0.074   0.000  0.00  0.00    +0.000 C 
ATOM     11  C   UNL     1       0.502  -0.522   0.000  0.00  0.00    +0.000 C 
BRANCH  10  12
ATOM     12  C   UNL     1       1.794   0.482   0.000  0.00  0.00    +0.000 C 
ATOM     13  O   UNL     1       2.500   0.074   0.000  0.00  0.00    +0.000 OA
ATOM     14  O   UNL     1       1.794   1.307   0.000  0.00  0.00    +0.000 OA
ENDBRANCH  10  12
BRANCH  10  15
ATOM     15  N   UNL     1       1.665  -0.512   0.000  0.00  0.00    +0.000 NA
ATOM     16  N   UNL     1       1.456  -1.307   0.000  0.00  0.00    +0.000 NA
ENDBRANCH  10  15
ENDBRANCH   9  10
ENDBRANCH   1   9
TORSDOF 4
