REMARK  Name = 
REMARK  11 active torsions:
REMARK  status: ('A' for Active; 'I' for Inactive)
REMARK    1  A    between atoms: C_1  and  C_3
REMARK    2  A    between atoms: C_2  and  C_4
REMARK    3  A    between atoms: C_3  and  C_5
REMARK    4  A    between atoms: C_4  and  C_5
REMARK    5  A    between atoms: C_4  and  C_19
REMARK    6  A    between atoms: N_6  and  C_15
REMARK    7  A    between atoms: C_7  and  C_9
REMARK    8  A    between atoms: C_19  and  O_22
REMARK    9  A    between atoms: O_22  and  C_25
REMARK   10  A    between atoms: O_23  and  C_24
REMARK   11  A    between atoms: C_24  and  C_25
REMARK                            x       y       z     vdW  Elec       q    Type
REMARK                         _______ _______ _______ _____ _____    ______ ____
ROOT
ATOM      1  C   UNL     1       0.005  -0.635   0.000  0.00  0.00    +0.000 C 
ATOM      2  C   UNL     1      -0.666  -1.110   0.000  0.00  0.00    +0.000 C 
ATOM      3  C   UNL     1       0.679  -1.110   0.000  0.00  0.00    +0.000 C 
ATOM      4  C   UNL     1      -0.416  -1.897   0.000  0.00  0.00    +0.000 C 
ATOM      5  C   UNL     1       0.409  -1.897   0.000  0.00  0.00    +0.000 C 
ENDROOT
BRANCH   1   6
ATOM      6  C   UNL     1       0.711  -0.215   0.000  0.00  0.00    +0.000 C 
ATOM      7  N   UNL     1       1.430  -0.620   0.000  0.00  0.00    +0.000 NA
ATOM      8  O   UNL     1       0.703   0.610   0.000  0.00  0.00    +0.000 OA
BRANCH   7  12
ATOM      9  C   UNL     1       3.561   0.652   0.000  0.00  0.00    +0.000 C 
ATOM     10  C   UNL     1       2.834   1.045   0.000  0.00  0.00    +0.000 C 
ATOM     11  C   UNL     1       3.561  -0.173   0.000  0.00  0.00    +0.000 C 
ATOM     12  C   UNL     1       2.149  -0.200   0.000  0.00  0.00    +0.000 C 
ATOM     13  C   UNL     1       2.136   0.625   0.000  0.00  0.00    +0.000 C 
ATOM     14  C   UNL     1       2.855  -0.605   0.000  0.00  0.00    +0.000 C 
BRANCH   9  15
ATOM     15  C   UNL     1       4.259   1.072   0.000  0.00  0.00    +0.000 C 
ATOM     16  O   UNL     1       4.986   0.667   0.000  0.00  0.00    +0.000 OA
ATOM     17  O   UNL     1       4.255   1.897   0.000  0.00  0.00    +0.000 OA
ENDBRANCH   9  15
ENDBRANCH   7  12
ENDBRANCH   1   6
BRANCH   1  18
ATOM     18  C   UNL     1      -0.710  -0.223   0.000  0.00  0.00    +0.000 C 
BRANCH  18  19
ATOM     19  C   UNL     1      -1.420  -0.636   0.000  0.00  0.00    +0.000 C 
BRANCH  19  20
ATOM     20  C   UNL     1      -2.143  -0.224   0.000  0.00  0.00    +0.000 C 
ATOM     21  O   UNL     1      -2.845  -0.648   0.000  0.00  0.00    +0.000 OA
ATOM     22  O   UNL     1      -2.139   0.602   0.000  0.00  0.00    +0.000 OA
ENDBRANCH  19  20
BRANCH  19  23
ATOM     23  C   UNL     1      -1.415  -1.460   0.000  0.00  0.00    +0.000 C 
BRANCH  23  24
ATOM     24  O   UNL     1      -2.133  -1.877   0.000  0.00  0.00    +0.000 OA
BRANCH  24  25
ATOM     25  C   UNL     1      -2.848  -1.470   0.000  0.00  0.00    +0.000 C 
BRANCH  25  26
ATOM     26  C   UNL     1      -3.562  -1.887   0.000  0.00  0.00    +0.000 C 
BRANCH  26  27
ATOM     27  O   UNL     1      -4.277  -1.479   0.000  0.00  0.00    +0.000 OA
ATOM     28  C   UNL     1      -4.986  -1.896   0.000  0.00  0.00    +0.000 C 
ENDBRANCH  26  27
ENDBRANCH  25  26
ENDBRANCH  24  25
ENDBRANCH  23  24
ENDBRANCH  19  23
ENDBRANCH  18  19
ENDBRANCH   1  18
TORSDOF 11
