REMARK  Name = 
REMARK  6 active torsions:
REMARK  status: ('A' for Active; 'I' for Inactive)
REMARK    1  A    between atoms: C_1  and  O_14
REMARK    2  A    between atoms: C_2  and  O_16
REMARK    3  A    between atoms: C_3  and  O_15
REMARK    4  A    between atoms: C_5  and  C_7
REMARK    5  A    between atoms: C_6  and  C_12
REMARK    6  A    between atoms: C_10  and  O_19
REMARK                            x       y       z     vdW  Elec       q    Type
REMARK                         _______ _______ _______ _____ _____    ______ ____
ROOT
ATOM      1  C   UNL     1       1.073   0.825   0.000  0.00  0.00    +0.000 A 
ATOM      2  C   UNL     1       1.785   0.412   0.000  0.00  0.00    +0.000 A 
ATOM      3  C   UNL     1       0.356   0.412   0.000  0.00  0.00    +0.000 A 
ATOM      4  C   UNL     1       1.073  -0.825   0.000  0.00  0.00    +0.000 A 
ATOM      5  C   UNL     1       0.356  -0.412   0.000  0.00  0.00    +0.000 A 
ATOM      6  C   UNL     1       1.785  -0.412   0.000  0.00  0.00    +0.000 A 
ENDROOT
BRANCH   4   7
ATOM      7  C   UNL     1       1.073  -1.650   0.000  0.00  0.00    +0.000 C 
ATOM      8  C   UNL     1       0.356  -2.062   0.000  0.00  0.00    +0.000 C 
BRANCH   8  12
ATOM      9  C   UNL     1      -1.785  -1.650   0.000  0.00  0.00    +0.000 A 
ATOM     10  C   UNL     1      -1.785  -0.825   0.000  0.00  0.00    +0.000 A 
ATOM     11  C   UNL     1      -1.073  -2.062   0.000  0.00  0.00    +0.000 A 
ATOM     12  C   UNL     1      -0.356  -1.650   0.000  0.00  0.00    +0.000 A 
ATOM     13  C   UNL     1      -1.073  -0.412   0.000  0.00  0.00    +0.000 A 
ATOM     14  O   UNL     1      -2.502  -2.062   0.000  0.00  0.00    +0.000 OA
ATOM     15  C   UNL     1      -0.356  -0.825   0.000  0.00  0.00    +0.000 A 
BRANCH  10  16
ATOM     16  O   UNL     1      -2.502  -0.412   0.000  0.00  0.00    +0.000 OA
ATOM     17  C   UNL     1      -3.215  -0.825   0.000  0.00  0.00    +0.000 C 
ENDBRANCH  10  16
ENDBRANCH   8  12
ENDBRANCH   4   7
BRANCH   1  18
ATOM     18  O   UNL     1       1.073   1.650   0.000  0.00  0.00    +0.000 OA
ATOM     19  C   UNL     1       0.356   2.062   0.000  0.00  0.00    +0.000 C 
ENDBRANCH   1  18
BRANCH   3  20
ATOM     20  O   UNL     1      -0.356   0.825   0.000  0.00  0.00    +0.000 OA
ATOM     21  C   UNL     1      -1.073   0.412   0.000  0.00  0.00    +0.000 C 
ENDBRANCH   3  20
BRANCH   2  22
ATOM     22  O   UNL     1       2.502   0.825   0.000  0.00  0.00    +0.000 OA
ATOM     23  C   UNL     1       3.215   0.412   0.000  0.00  0.00    +0.000 C 
ENDBRANCH   2  22
TORSDOF 6
