REMARK  Name = 
REMARK  5 active torsions:
REMARK  status: ('A' for Active; 'I' for Inactive)
REMARK    1  A    between atoms: C_3  and  N_17
REMARK    2  A    between atoms: C_6  and  C_7
REMARK    3  A    between atoms: C_7  and  O_8
REMARK    4  A    between atoms: O_8  and  C_9
REMARK    5  A    between atoms: C_12  and  S_15
REMARK                            x       y       z     vdW  Elec       q    Type
REMARK                         _______ _______ _______ _____ _____    ______ ____
ROOT
ATOM      1  C   UNL     1      -0.023  -2.705   0.000  0.00  0.00    +0.000 C 
ENDROOT
BRANCH   1   7
ATOM      2  C   UNL     1       1.429  -1.650   0.000  0.00  0.00    +0.000 C 
ATOM      3  N   UNL     1       1.429  -2.475   0.000  0.00  0.00    +0.000 N 
ATOM      4  C   UNL     1       2.096  -2.960   0.000  0.00  0.00    +0.000 A 
ATOM      5  C   UNL     1       1.841  -3.744   0.000  0.00  0.00    +0.000 A 
ATOM      6  N   UNL     1       1.016  -3.744   0.000  0.00  0.00    +0.000 NA
ATOM      7  C   UNL     1       0.761  -2.960   0.000  0.00  0.00    +0.000 A 
BRANCH   4   8
ATOM      8  N   UNL     1       2.881  -2.705   0.000  0.00  0.00    +0.000 N 
ATOM      9  O   UNL     1       3.053  -1.898   0.000  0.00  0.00    +0.000 OA
ATOM     10  O   UNL     1       3.494  -3.257   0.000  0.00  0.00    +0.000 OA
ENDBRANCH   4   8
ENDBRANCH   1   7
BRANCH   1  11
ATOM     11  O   UNL     1      -0.636  -3.257   0.000  0.00  0.00    +0.000 OA
BRANCH  11  12
ATOM     12  C   UNL     1      -1.421  -3.002   0.000  0.00  0.00    +0.000 A 
ATOM     13  C   UNL     1      -2.034  -3.554   0.000  0.00  0.00    +0.000 A 
ATOM     14  C   UNL     1      -2.819  -3.299   0.000  0.00  0.00    +0.000 A 
ATOM     15  C   UNL     1      -2.990  -2.492   0.000  0.00  0.00    +0.000 A 
ATOM     16  C   UNL     1      -2.377  -1.940   0.000  0.00  0.00    +0.000 A 
ATOM     17  C   UNL     1      -1.592  -2.195   0.000  0.00  0.00    +0.000 A 
BRANCH  15  18
ATOM     18  S   UNL     1      -3.775  -2.237   0.000  0.00  0.00    +0.000 S 
ATOM     19  C   UNL     1      -3.946  -1.430   0.000  0.00  0.00    +0.000 C 
ENDBRANCH  15  18
ENDBRANCH  11  12
ENDBRANCH   1  11
TORSDOF 5
