REMARK  Name = 
REMARK  5 active torsions:
REMARK  status: ('A' for Active; 'I' for Inactive)
REMARK    1  A    between atoms: C_1  and  CA_4
REMARK    2  A    between atoms: C_2  and  C_7
REMARK    3  A    between atoms: CA_4  and  C_6
REMARK    4  A    between atoms: C_6  and  C_7
REMARK    5  A    between atoms: N_8  and  C_12
REMARK                            x       y       z     vdW  Elec       q    Type
REMARK                         _______ _______ _______ _____ _____    ______ ____
ROOT
ATOM      1  C   UNL     1       0.702   0.175   0.000  0.00  0.00    +0.000 C 
ENDROOT
BRANCH   1   2
ATOM      2  CA  UNL     1       1.428  -0.216   0.000  0.00  0.00    +0.000 C 
ATOM      3  N   UNL     1       1.452  -1.041   0.000  0.00  0.00    +0.000 NA
BRANCH   2   4
ATOM      4  C   UNL     1       2.131   0.216   0.000  0.00  0.00    +0.000 C 
ATOM      5  O   UNL     1       2.107   1.041   0.000  0.00  0.00    +0.000 OA
ATOM      6  OXT UNL     1       2.857  -0.175   0.000  0.00  0.00    +0.000 OA
ENDBRANCH   2   4
ENDBRANCH   1   2
BRANCH   1   7
ATOM      7  C   UNL     1       0.000  -0.258   0.000  0.00  0.00    +0.000 C 
BRANCH   7   8
ATOM      8  C   UNL     1      -0.726   0.134   0.000  0.00  0.00    +0.000 C 
ATOM      9  O   UNL     1      -0.750   0.958   0.000  0.00  0.00    +0.000 OA
ATOM     10  N   UNL     1      -1.428  -0.299   0.000  0.00  0.00    +0.000 NA
BRANCH  10  12
ATOM     11  C   UNL     1      -2.857  -0.341   0.000  0.00  0.00    +0.000 C 
ATOM     12  C   UNL     1      -2.154   0.092   0.000  0.00  0.00    +0.000 C 
ENDBRANCH  10  12
ENDBRANCH   7   8
ENDBRANCH   1   7
TORSDOF 5
