REMARK  Name = 
REMARK  4 active torsions:
REMARK  status: ('A' for Active; 'I' for Inactive)
REMARK    1  A    between atoms: C_4  and  C_8
REMARK    2  A    between atoms: C_8  and  C_14
REMARK    3  A    between atoms: C_14  and  O_18
REMARK    4  A    between atoms: O_18  and  C_22
REMARK                            x       y       z     vdW  Elec       q    Type
REMARK                         _______ _______ _______ _____ _____    ______ ____
ROOT
ATOM      1  C   UNL     1       0.352   0.834   0.000  0.00  0.00    +0.000 C 
ATOM      2  C   UNL     1       0.352   0.009   0.000  0.00  0.00    +0.000 C 
ATOM      3  C   UNL     1       0.352  -0.824   0.000  0.00  0.00    +0.000 C 
ATOM      4  C   UNL     1       1.067   0.425   0.000  0.00  0.00    +0.000 C 
ATOM      5  C   UNL     1      -0.360   0.425   0.000  0.00  0.00    +0.000 C 
ATOM      6  C   UNL     1      -0.360  -1.240   0.000  0.00  0.00    +0.000 C 
ATOM      7  C   UNL     1       1.779  -0.824   0.000  0.00  0.00    +0.000 C 
ATOM      8  O   UNL     1       1.781   0.837   0.000  0.00  0.00    +0.000 OA
ATOM      9  C   UNL     1       1.779   0.009   0.000  0.00  0.00    +0.000 C 
ATOM     10  C   UNL     1      -1.073   0.009   0.000  0.00  0.00    +0.000 C 
ATOM     11  C   UNL     1      -1.073  -0.824   0.000  0.00  0.00    +0.000 C 
ATOM     12  C   UNL     1      -0.360  -2.071   0.000  0.00  0.00    +0.000 C 
ATOM     13  C   UNL     1      -1.786  -1.240   0.000  0.00  0.00    +0.000 C 
ATOM     14  C   UNL     1      -1.073  -2.487   0.000  0.00  0.00    +0.000 C 
ATOM     15  C   UNL     1      -1.786  -0.415   0.000  0.00  0.00    +0.000 C 
ATOM     16  C   UNL     1      -1.786  -2.071   0.000  0.00  0.00    +0.000 C 
ATOM     17  C   UNL     1      -2.498  -0.824   0.000  0.00  0.00    +0.000 C 
ATOM     18  C   UNL     1      -2.498  -2.487   0.000  0.00  0.00    +0.000 C 
ATOM     19  C   UNL     1      -3.211  -1.240   0.000  0.00  0.00    +0.000 C 
ATOM     20  C   UNL     1      -3.211  -2.071   0.000  0.00  0.00    +0.000 C 
ATOM     21  O   UNL     1      -3.925  -2.483   0.000  0.00  0.00    +0.000 OA
ENDROOT
BRANCH   4  22
ATOM     22  C   UNL     1       1.067   1.250   0.000  0.00  0.00    +0.000 C 
ATOM     23  O   UNL     1       0.350   1.662   0.000  0.00  0.00    +0.000 OA
BRANCH  22  24
ATOM     24  C   UNL     1       1.781   1.662   0.000  0.00  0.00    +0.000 C 
BRANCH  24  25
ATOM     25  O   UNL     1       2.496   1.250   0.000  0.00  0.00    +0.000 OA
BRANCH  25  26
ATOM     26  C   UNL     1       3.211   1.662   0.000  0.00  0.00    +0.000 C 
ATOM     27  C   UNL     1       3.925   1.250   0.000  0.00  0.00    +0.000 C 
ATOM     28  O   UNL     1       3.211   2.487   0.000  0.00  0.00    +0.000 OA
ENDBRANCH  25  26
ENDBRANCH  24  25
ENDBRANCH  22  24
ENDBRANCH   4  22
TORSDOF 4
