REMARK  Name = 
REMARK  0 active torsions:
REMARK  status: ('A' for Active; 'I' for Inactive)
REMARK                            x       y       z     vdW  Elec       q    Type
REMARK                         _______ _______ _______ _____ _____    ______ ____
ROOT
ATOM      1  C   UNL     1      -0.595  -0.412   0.000  0.00  0.00    +0.000 C 
ATOM      2  C   UNL     1      -0.119  -1.237   0.000  0.00  0.00    +0.000 C 
ATOM      3  C   UNL     1      -0.119   0.412   0.000  0.00  0.00    +0.000 C 
ATOM      4  C   UNL     1      -0.119   1.237   0.000  0.00  0.00    +0.000 C 
ATOM      5  C   UNL     1       0.595   0.000   0.000  0.00  0.00    +0.000 C 
ATOM      6  O   UNL     1       1.310   0.412   0.000  0.00  0.00    +0.000 OA
ATOM      7  C   UNL     1       0.595  -0.825   0.000  0.00  0.00    +0.000 C 
ATOM      8  C   UNL     1      -1.310  -0.825   0.000  0.00  0.00    +0.000 C 
ATOM      9  C   UNL     1      -1.310   0.000   0.000  0.00  0.00    +0.000 C 
ATOM     10  C   UNL     1      -0.833  -0.825   0.000  0.00  0.00    +0.000 C 
ATOM     11  C   UNL     1      -0.834   0.000   0.000  0.00  0.00    +0.000 C 
ENDROOT
TORSDOF 0
