REMARK  Name = 
REMARK  7 active torsions:
REMARK  status: ('A' for Active; 'I' for Inactive)
REMARK    1  A    between atoms: C_17  and  C_37
REMARK    2  A    between atoms: C_30  and  S_31
REMARK    3  A    between atoms: S_31  and  C_40
REMARK    4  A    between atoms: C_40  and  C_41
REMARK    5  A    between atoms: C_41  and  N_42
REMARK    6  A    between atoms: N_42  and  C_43
REMARK    7  A    between atoms: N_42  and  C_44
REMARK                            x       y       z     vdW  Elec       q    Type
REMARK                         _______ _______ _______ _____ _____    ______ ____
ROOT
ATOM      1  N   UNL     1      -1.066   2.471   0.000  0.00  0.00    +0.000 NA
ATOM      2  C   UNL     1      -1.780   2.888   0.000  0.00  0.00    +0.000 C 
ATOM      3  O   UNL     1      -1.780   1.238   0.000  0.00  0.00    +0.000 OA
ATOM      4  C   UNL     1      -2.494   2.471   0.000  0.00  0.00    +0.000 C 
ATOM      5  C   UNL     1      -2.494   1.645   0.000  0.00  0.00    +0.000 C 
ATOM      6  C   UNL     1      -0.352   2.888   0.000  0.00  0.00    +0.000 C 
ATOM      7  C   UNL     1       0.362   2.471   0.000  0.00  0.00    +0.000 C 
ATOM      8  C   UNL     1       1.066   2.888   0.000  0.00  0.00    +0.000 C 
ATOM      9  C   UNL     1       1.780   2.471   0.000  0.00  0.00    +0.000 C 
ATOM     10  C   UNL     1       1.780   1.645   0.000  0.00  0.00    +0.000 C 
ATOM     11  C   UNL     1       2.494   2.888   0.000  0.00  0.00    +0.000 C 
ATOM     12  C   UNL     1       3.208   2.471   0.000  0.00  0.00    +0.000 C 
ATOM     13  C   UNL     1       3.208   1.645   0.000  0.00  0.00    +0.000 C 
ATOM     14  C   UNL     1      -1.780   0.412   0.000  0.00  0.00    +0.000 C 
ATOM     15  O   UNL     1      -2.494   0.005   0.000  0.00  0.00    +0.000 OA
ATOM     16  C   UNL     1      -3.208   1.238   0.000  0.00  0.00    +0.000 C 
ATOM     17  C   UNL     1      -3.208   0.412   0.000  0.00  0.00    +0.000 C 
ATOM     18  N   UNL     1       2.494   0.412   0.000  0.00  0.00    +0.000 NA
ATOM     19  C   UNL     1       3.208   0.005   0.000  0.00  0.00    +0.000 A 
ATOM     20  C   UNL     1       3.921   1.238   0.000  0.00  0.00    +0.000 C 
ATOM     21  C   UNL     1       3.921   0.412   0.000  0.00  0.00    +0.000 C 
ATOM     22  C   UNL     1       1.780   0.005   0.000  0.00  0.00    +0.000 A 
ATOM     23  C   UNL     1       1.780  -0.820   0.000  0.00  0.00    +0.000 A 
ATOM     24  O   UNL     1       3.208  -0.820   0.000  0.00  0.00    +0.000 OA
ATOM     25  C   UNL     1       1.066   0.412   0.000  0.00  0.00    +0.000 C 
ATOM     26  N   UNL     1       0.362   0.005   0.000  0.00  0.00    +0.000 N 
ATOM     27  C   UNL     1       0.362  -0.820   0.000  0.00  0.00    +0.000 C 
ATOM     28  C   UNL     1      -1.066   0.005   0.000  0.00  0.00    +0.000 C 
ATOM     29  C   UNL     1      -0.352  -1.228   0.000  0.00  0.00    +0.000 C 
ATOM     30  C   UNL     1      -1.066  -0.820   0.000  0.00  0.00    +0.000 C 
ATOM     31  O   UNL     1      -1.780   3.704   0.000  0.00  0.00    +0.000 OA
ATOM     32  O   UNL     1       3.921   2.888   0.000  0.00  0.00    +0.000 OA
ATOM     33  O   UNL     1       4.635   1.645   0.000  0.00  0.00    +0.000 OA
ATOM     34  O   UNL     1       1.066   1.238   0.000  0.00  0.00    +0.000 OA
ATOM     35  C   UNL     1      -3.921   1.645   0.000  0.00  0.00    +0.000 C 
ENDROOT
BRANCH  30  36
ATOM     36  S   UNL     1      -1.780  -1.228   0.000  0.00  0.00    +0.000 S 
ATOM     37  O   UNL     1      -2.188  -0.514   0.000  0.00  0.00    +0.000 OA
ATOM     38  O   UNL     1      -2.605  -1.238   0.000  0.00  0.00    +0.000 OA
BRANCH  36  39
ATOM     39  C   UNL     1      -1.780  -2.054   0.000  0.00  0.00    +0.000 C 
BRANCH  39  40
ATOM     40  C   UNL     1      -2.494  -2.471   0.000  0.00  0.00    +0.000 C 
BRANCH  40  41
ATOM     41  N   UNL     1      -2.494  -3.296   0.000  0.00  0.00    +0.000 NA
BRANCH  41  42
ATOM     42  C   UNL     1      -1.780  -3.704   0.000  0.00  0.00    +0.000 C 
ATOM     43  C   UNL     1      -1.066  -3.296   0.000  0.00  0.00    +0.000 C 
ENDBRANCH  41  42
BRANCH  41  44
ATOM     44  C   UNL     1      -3.208  -3.704   0.000  0.00  0.00    +0.000 C 
ATOM     45  C   UNL     1      -3.921  -3.296   0.000  0.00  0.00    +0.000 C 
ENDBRANCH  41  44
ENDBRANCH  40  41
ENDBRANCH  39  40
ENDBRANCH  36  39
ENDBRANCH  30  36
BRANCH  17  46
ATOM     46  C   UNL     1      -3.921   0.005   0.000  0.00  0.00    +0.000 C 
ATOM     47  C   UNL     1      -4.635   0.412   0.000  0.00  0.00    +0.000 C 
ATOM     48  C   UNL     1      -3.921  -0.820   0.000  0.00  0.00    +0.000 C 
ENDBRANCH  17  46
TORSDOF 7
