REMARK  Name = 
REMARK  14 active torsions:
REMARK  status: ('A' for Active; 'I' for Inactive)
REMARK    1  A    between atoms: B_1  and  C_2
REMARK    2  A    between atoms: C_2  and  C_3
REMARK    3  A    between atoms: C_2  and  N_8
REMARK    4  A    between atoms: C_3  and  C_4
REMARK    5  A    between atoms: C_4  and  C_5
REMARK    6  A    between atoms: C_5  and  O_6
REMARK    7  A    between atoms: C_9  and  C_11
REMARK    8  A    between atoms: C_16  and  C_18
REMARK    9  A    between atoms: C_18  and  C_19
REMARK   10  A    between atoms: C_18  and  N_26
REMARK   11  A    between atoms: C_19  and  C_20
REMARK   12  A    between atoms: C_27  and  O_29
REMARK   13  A    between atoms: O_29  and  C_30
REMARK   14  A    between atoms: C_30  and  C_31
REMARK                            x       y       z     vdW  Elec       q    Type
REMARK                         _______ _______ _______ _____ _____    ______ ____
ROOT
ATOM      1  C   UNL     1      10.151  -5.086   0.000  0.00  0.00    +0.000 C 
ATOM      2  C   UNL     1       9.483  -5.571   0.000  0.00  0.00    +0.000 C 
ATOM      3  C   UNL     1       9.738  -6.355   0.000  0.00  0.00    +0.000 C 
ATOM      4  C   UNL     1      10.563  -6.355   0.000  0.00  0.00    +0.000 C 
ATOM      5  N   UNL     1      10.818  -5.571   0.000  0.00  0.00    +0.000 N 
ATOM      6  C   UNL     1      11.603  -5.316   0.000  0.00  0.00    +0.000 C 
ATOM      7  O   UNL     1      11.774  -4.509   0.000  0.00  0.00    +0.000 OA
ENDROOT
BRANCH   1   9
ATOM      8  N   UNL     1       9.436  -3.848   0.000  0.00  0.00    +0.000 NA
ATOM      9  C   UNL     1      10.151  -4.261   0.000  0.00  0.00    +0.000 C 
ATOM     10  O   UNL     1      10.865  -3.848   0.000  0.00  0.00    +0.000 OA
BRANCH   8  11
ATOM     11  C   UNL     1       9.436  -3.023   0.000  0.00  0.00    +0.000 C 
BRANCH  11  12
ATOM     12  B   UNL     1      10.151  -2.611   0.000  0.00  0.00    +0.000 B 
ATOM     13  O   UNL     1      10.865  -3.023   0.000  0.00  0.00    +0.000 OA
ATOM     14  O   UNL     1      10.151  -1.786   0.000  0.00  0.00    +0.000 OA
ENDBRANCH  11  12
BRANCH  11  15
ATOM     15  C   UNL     1       8.722  -2.611   0.000  0.00  0.00    +0.000 C 
BRANCH  15  16
ATOM     16  C   UNL     1       8.008  -3.023   0.000  0.00  0.00    +0.000 C 
BRANCH  16  17
ATOM     17  C   UNL     1       8.008  -3.848   0.000  0.00  0.00    +0.000 C 
BRANCH  17  18
ATOM     18  O   UNL     1       7.293  -4.261   0.000  0.00  0.00    +0.000 OA
ATOM     19  C   UNL     1       7.293  -5.086   0.000  0.00  0.00    +0.000 C 
ENDBRANCH  17  18
ENDBRANCH  16  17
ENDBRANCH  15  16
ENDBRANCH  11  15
ENDBRANCH   8  11
ENDBRANCH   1   9
BRANCH   6  20
ATOM     20  C   UNL     1      12.216  -5.868   0.000  0.00  0.00    +0.000 C 
BRANCH  20  21
ATOM     21  N   UNL     1      12.044  -6.675   0.000  0.00  0.00    +0.000 NA
ATOM     22  C   UNL     1      12.658  -7.227   0.000  0.00  0.00    +0.000 C 
ATOM     23  O   UNL     1      13.442  -6.972   0.000  0.00  0.00    +0.000 OA
BRANCH  22  24
ATOM     24  O   UNL     1      12.486  -8.034   0.000  0.00  0.00    +0.000 OA
BRANCH  24  25
ATOM     25  C   UNL     1      13.099  -8.586   0.000  0.00  0.00    +0.000 C 
BRANCH  25  26
ATOM     26  C   UNL     1      12.928  -9.393   0.000  0.00  0.00    +0.000 A 
ATOM     27  C   UNL     1      13.541  -9.945   0.000  0.00  0.00    +0.000 A 
ATOM     28  C   UNL     1      13.369 -10.752   0.000  0.00  0.00    +0.000 A 
ATOM     29  C   UNL     1      12.585 -11.007   0.000  0.00  0.00    +0.000 A 
ATOM     30  C   UNL     1      11.972 -10.455   0.000  0.00  0.00    +0.000 A 
ATOM     31  C   UNL     1      12.143  -9.648   0.000  0.00  0.00    +0.000 A 
ENDBRANCH  25  26
ENDBRANCH  24  25
ENDBRANCH  22  24
ENDBRANCH  20  21
BRANCH  20  32
ATOM     32  C   UNL     1      13.001  -5.613   0.000  0.00  0.00    +0.000 C 
BRANCH  32  33
ATOM     33  C   UNL     1      13.172  -4.806   0.000  0.00  0.00    +0.000 A 
ATOM     34  C   UNL     1      12.559  -4.254   0.000  0.00  0.00    +0.000 A 
ATOM     35  C   UNL     1      12.731  -3.447   0.000  0.00  0.00    +0.000 A 
ATOM     36  C   UNL     1      13.515  -3.192   0.000  0.00  0.00    +0.000 A 
ATOM     37  C   UNL     1      14.128  -3.744   0.000  0.00  0.00    +0.000 A 
ATOM     38  C   UNL     1      13.957  -4.551   0.000  0.00  0.00    +0.000 A 
ENDBRANCH  32  33
ENDBRANCH  20  32
ENDBRANCH   6  20
TORSDOF 14
