REMARK  Name = 
REMARK  1 active torsions:
REMARK  status: ('A' for Active; 'I' for Inactive)
REMARK    1  A    between atoms: C_3  and  N_11
REMARK                            x       y       z     vdW  Elec       q    Type
REMARK                         _______ _______ _______ _____ _____    ______ ____
ROOT
ATOM      1  C   UNL     1      -0.715  -0.412   0.000  0.00  0.00    +0.000 A 
ATOM      2  C   UNL     1      -0.715  -1.238   0.000  0.00  0.00    +0.000 A 
ATOM      3  C   UNL     1       0.000  -1.650   0.000  0.00  0.00    +0.000 A 
ATOM      4  C   UNL     1       0.715  -1.238   0.000  0.00  0.00    +0.000 A 
ATOM      5  C   UNL     1       0.715  -0.412   0.000  0.00  0.00    +0.000 A 
ATOM      6  C   UNL     1       0.000   0.000   0.000  0.00  0.00    +0.000 A 
ATOM      7  O   UNL     1       1.429   0.000   0.000  0.00  0.00    +0.000 OA
ATOM      8  C   UNL     1       2.143  -0.412   0.000  0.00  0.00    +0.000 C 
ATOM      9  C   UNL     1       2.143  -1.238   0.000  0.00  0.00    +0.000 C 
ATOM     10  O   UNL     1       1.429  -1.650   0.000  0.00  0.00    +0.000 OA
ENDROOT
BRANCH   3  11
ATOM     11  N   UNL     1       0.000  -2.475   0.000  0.00  0.00    +0.000 N 
ATOM     12  C   UNL     1       0.715  -2.888   0.000  0.00  0.00    +0.000 C 
ATOM     13  C   UNL     1       0.715  -3.712   0.000  0.00  0.00    +0.000 C 
ATOM     14  N   UNL     1       0.000  -4.125   0.000  0.00  0.00    +0.000 NA
ATOM     15  C   UNL     1      -0.715  -3.712   0.000  0.00  0.00    +0.000 C 
ATOM     16  C   UNL     1      -0.715  -2.888   0.000  0.00  0.00    +0.000 C 
ENDBRANCH   3  11
TORSDOF 1
