REMARK  Name = 
REMARK  44 active torsions:
REMARK  status: ('A' for Active; 'I' for Inactive)
REMARK    1  A    between atoms: P_1  and  O_2
REMARK    2  A    between atoms: P_1  and  O_10
REMARK    3  A    between atoms: O_2  and  C_3
REMARK    4  A    between atoms: C_3  and  C_4
REMARK    5  A    between atoms: C_4  and  C_5
REMARK    6  A    between atoms: O_10  and  C_11
REMARK    7  A    between atoms: C_11  and  C_12
REMARK    8  A    between atoms: C_12  and  C_13
REMARK    9  A    between atoms: C_12  and  O_15
REMARK   10  A    between atoms: C_13  and  O_14
REMARK   11  A    between atoms: O_14  and  C_17
REMARK   12  A    between atoms: O_15  and  C_33
REMARK   13  A    between atoms: C_17  and  C_18
REMARK   14  A    between atoms: C_18  and  C_19
REMARK   15  A    between atoms: C_19  and  C_20
REMARK   16  A    between atoms: C_20  and  C_21
REMARK   17  A    between atoms: C_21  and  C_22
REMARK   18  A    between atoms: C_22  and  C_23
REMARK   19  A    between atoms: C_23  and  C_24
REMARK   20  A    between atoms: C_24  and  C_25
REMARK   21  A    between atoms: C_25  and  C_26
REMARK   22  A    between atoms: C_26  and  C_27
REMARK   23  A    between atoms: C_27  and  C_28
REMARK   24  A    between atoms: C_28  and  C_29
REMARK   25  A    between atoms: C_29  and  C_30
REMARK   26  A    between atoms: C_30  and  C_31
REMARK   27  A    between atoms: C_31  and  C_32
REMARK   28  A    between atoms: C_32  and  C_51
REMARK   29  A    between atoms: C_33  and  C_34
REMARK   30  A    between atoms: C_34  and  C_35
REMARK   31  A    between atoms: C_35  and  C_36
REMARK   32  A    between atoms: C_36  and  C_37
REMARK   33  A    between atoms: C_37  and  C_38
REMARK   34  A    between atoms: C_38  and  C_39
REMARK   35  A    between atoms: C_39  and  C_40
REMARK   36  A    between atoms: C_40  and  C_41
REMARK   37  A    between atoms: C_41  and  C_42
REMARK   38  A    between atoms: C_42  and  C_43
REMARK   39  A    between atoms: C_43  and  C_44
REMARK   40  A    between atoms: C_44  and  C_45
REMARK   41  A    between atoms: C_45  and  C_46
REMARK   42  A    between atoms: C_46  and  C_47
REMARK   43  A    between atoms: C_47  and  C_48
REMARK   44  A    between atoms: C_48  and  C_53
REMARK                            x       y       z     vdW  Elec       q    Type
REMARK                         _______ _______ _______ _____ _____    ______ ____
ROOT
ATOM      1  C   UNK     1       4.639   1.530   0.000  0.00  0.00    +0.000 C 
ENDROOT
BRANCH   1   2
ATOM      2  C   UNK     1       3.945   1.976   0.000  0.00  0.00    +0.000 C 
BRANCH   2   3
ATOM      3  O   UNK     1       3.212   1.599   0.000  0.00  0.00    +0.000 OA
BRANCH   3   4
ATOM      4  C   UNK     1       2.497   2.012   0.000  0.00  0.00    +0.000 C 
ATOM      5  O   UNK     1       2.497   2.837   0.000  0.00  0.00    +0.000 OA
BRANCH   4   6
ATOM      6  C   UNK     1       1.782   1.599   0.000  0.00  0.00    +0.000 C 
BRANCH   6   7
ATOM      7  C   UNK     1       1.068   2.012   0.000  0.00  0.00    +0.000 C 
BRANCH   7   8
ATOM      8  C   UNK     1       0.354   1.599   0.000  0.00  0.00    +0.000 C 
BRANCH   8   9
ATOM      9  C   UNK     1      -0.361   2.012   0.000  0.00  0.00    +0.000 C 
BRANCH   9  10
ATOM     10  C   UNK     1      -1.075   1.599   0.000  0.00  0.00    +0.000 C 
BRANCH  10  11
ATOM     11  C   UNK     1      -1.790   2.012   0.000  0.00  0.00    +0.000 C 
BRANCH  11  12
ATOM     12  C   UNK     1      -2.504   1.599   0.000  0.00  0.00    +0.000 C 
BRANCH  12  13
ATOM     13  C   UNK     1      -3.219   2.012   0.000  0.00  0.00    +0.000 C 
BRANCH  13  14
ATOM     14  C   UNK     1      -3.933   1.599   0.000  0.00  0.00    +0.000 C 
BRANCH  14  15
ATOM     15  C   UNK     1      -4.648   2.012   0.000  0.00  0.00    +0.000 C 
BRANCH  15  16
ATOM     16  C   UNK     1      -5.362   1.599   0.000  0.00  0.00    +0.000 C 
BRANCH  16  17
ATOM     17  C   UNK     1      -6.077   2.012   0.000  0.00  0.00    +0.000 C 
BRANCH  17  18
ATOM     18  C   UNK     1      -6.791   1.599   0.000  0.00  0.00    +0.000 C 
BRANCH  18  19
ATOM     19  C   UNK     1      -7.506   2.012   0.000  0.00  0.00    +0.000 C 
BRANCH  19  20
ATOM     20  C   UNK     1      -8.220   1.599   0.000  0.00  0.00    +0.000 C 
BRANCH  20  21
ATOM     21  C   UNK     1      -8.935   2.012   0.000  0.00  0.00    +0.000 C 
ATOM     22  C   UNK     1      -9.649   1.599   0.000  0.00  0.00    +0.000 C 
ENDBRANCH  20  21
ENDBRANCH  19  20
ENDBRANCH  18  19
ENDBRANCH  17  18
ENDBRANCH  16  17
ENDBRANCH  15  16
ENDBRANCH  14  15
ENDBRANCH  13  14
ENDBRANCH  12  13
ENDBRANCH  11  12
ENDBRANCH  10  11
ENDBRANCH   9  10
ENDBRANCH   8   9
ENDBRANCH   7   8
ENDBRANCH   6   7
ENDBRANCH   4   6
ENDBRANCH   3   4
ENDBRANCH   2   3
ENDBRANCH   1   2
BRANCH   1  23
ATOM     23  O   UNK     1       4.599   0.705   0.000  0.00  0.00    +0.000 OA
BRANCH  23  24
ATOM     24  C   UNK     1       4.015   0.122   0.000  0.00  0.00    +0.000 C 
ATOM     25  O   UNK     1       4.229  -0.675   0.000  0.00  0.00    +0.000 OA
BRANCH  24  26
ATOM     26  C   UNK     1       3.218   0.336   0.000  0.00  0.00    +0.000 C 
BRANCH  26  27
ATOM     27  C   UNK     1       2.635  -0.248   0.000  0.00  0.00    +0.000 C 
BRANCH  27  28
ATOM     28  C   UNK     1       1.838  -0.034   0.000  0.00  0.00    +0.000 C 
BRANCH  28  29
ATOM     29  C   UNK     1       1.255  -0.618   0.000  0.00  0.00    +0.000 C 
BRANCH  29  30
ATOM     30  C   UNK     1       0.458  -0.404   0.000  0.00  0.00    +0.000 C 
BRANCH  30  31
ATOM     31  C   UNK     1      -0.126  -0.987   0.000  0.00  0.00    +0.000 C 
BRANCH  31  32
ATOM     32  C   UNK     1      -0.922  -0.774   0.000  0.00  0.00    +0.000 C 
BRANCH  32  33
ATOM     33  C   UNK     1      -1.506  -1.357   0.000  0.00  0.00    +0.000 C 
BRANCH  33  34
ATOM     34  C   UNK     1      -2.303  -1.144   0.000  0.00  0.00    +0.000 C 
BRANCH  34  35
ATOM     35  C   UNK     1      -2.886  -1.727   0.000  0.00  0.00    +0.000 C 
BRANCH  35  36
ATOM     36  C   UNK     1      -3.683  -1.514   0.000  0.00  0.00    +0.000 C 
BRANCH  36  37
ATOM     37  C   UNK     1      -4.266  -2.097   0.000  0.00  0.00    +0.000 C 
BRANCH  37  38
ATOM     38  C   UNK     1      -5.063  -1.883   0.000  0.00  0.00    +0.000 C 
BRANCH  38  39
ATOM     39  C   UNK     1      -5.647  -2.467   0.000  0.00  0.00    +0.000 C 
BRANCH  39  40
ATOM     40  C   UNK     1      -6.444  -2.253   0.000  0.00  0.00    +0.000 C 
BRANCH  40  41
ATOM     41  C   UNK     1      -7.027  -2.837   0.000  0.00  0.00    +0.000 C 
ATOM     42  C   UNK     1      -7.824  -2.623   0.000  0.00  0.00    +0.000 C 
ENDBRANCH  40  41
ENDBRANCH  39  40
ENDBRANCH  38  39
ENDBRANCH  37  38
ENDBRANCH  36  37
ENDBRANCH  35  36
ENDBRANCH  34  35
ENDBRANCH  33  34
ENDBRANCH  32  33
ENDBRANCH  31  32
ENDBRANCH  30  31
ENDBRANCH  29  30
ENDBRANCH  28  29
ENDBRANCH  27  28
ENDBRANCH  26  27
ENDBRANCH  24  26
ENDBRANCH  23  24
ENDBRANCH   1  23
BRANCH   1  43
ATOM     43  C   UNK     1       5.373   1.907   0.000  0.00  0.00    +0.000 C 
BRANCH  43  44
ATOM     44  O   UNK     1       6.066   1.460   0.000  0.00  0.00    +0.000 OA
BRANCH  44  45
ATOM     45  P   UNK     1       6.800   1.837   0.000  0.00  0.00    +0.000 P 
ATOM     46  O   UNK     1       7.534   2.214   0.000  0.00  0.00    +0.000 OA
ATOM     47  O   UNK     1       6.423   2.571   0.000  0.00  0.00    +0.000 OA
BRANCH  45  48
ATOM     48  O   UNK     1       7.177   1.103   0.000  0.00  0.00    +0.000 OA
BRANCH  48  49
ATOM     49  C   UNK     1       8.001   1.063   0.000  0.00  0.00    +0.000 C 
BRANCH  49  50
ATOM     50  C   UNK     1       8.378   0.329   0.000  0.00  0.00    +0.000 C 
ATOM     51  N   UNK     1       7.931  -0.364   0.000  0.00  0.00    +0.000 NA
BRANCH  50  52
ATOM     52  C   UNK     1       9.202   0.289   0.000  0.00  0.00    +0.000 C 
ATOM     53  O   UNK     1       9.649   0.982   0.000  0.00  0.00    +0.000 OA
ATOM     54  O   UNK     1       9.579  -0.445   0.000  0.00  0.00    +0.000 OA
ENDBRANCH  50  52
ENDBRANCH  49  50
ENDBRANCH  48  49
ENDBRANCH  45  48
ENDBRANCH  44  45
ENDBRANCH  43  44
ENDBRANCH   1  43
TORSDOF 44
