REMARK  Name = 
REMARK  6 active torsions:
REMARK  status: ('A' for Active; 'I' for Inactive)
REMARK    1  A    between atoms: C_2  and  S_3
REMARK    2  A    between atoms: S_3  and  N_6
REMARK    3  A    between atoms: N_6  and  C_7
REMARK    4  A    between atoms: N_11  and  C_12
REMARK    5  A    between atoms: C_12  and  C_13
REMARK    6  A    between atoms: C_21  and  C_25
REMARK                            x       y       z     vdW  Elec       q    Type
REMARK                         _______ _______ _______ _____ _____    ______ ____
ROOT
ATOM      1  C   UNL     1       3.352   1.935   0.000  0.00  0.00    +0.000 A 
ATOM      2  C   UNL     1       3.352   1.110   0.000  0.00  0.00    +0.000 A 
ATOM      3  C   UNL     1       2.638   0.698   0.000  0.00  0.00    +0.000 A 
ATOM      4  C   UNL     1       1.923   1.110   0.000  0.00  0.00    +0.000 A 
ATOM      5  N   UNL     1       1.139   0.856   0.000  0.00  0.00    +0.000 N 
ATOM      6  C   UNL     1       0.654   1.523   0.000  0.00  0.00    +0.000 A 
ATOM      7  N   UNL     1       1.139   2.190   0.000  0.00  0.00    +0.000 NA
ATOM      8  C   UNL     1       1.923   1.935   0.000  0.00  0.00    +0.000 A 
ATOM      9  C   UNL     1       2.638   2.348   0.000  0.00  0.00    +0.000 A 
ENDROOT
BRANCH   6  10
ATOM     10  C   UNL     1      -0.171   1.523   0.000  0.00  0.00    +0.000 C 
ATOM     11  C   UNL     1      -0.996   1.523   0.000  0.00  0.00    +0.000 C 
ATOM     12  C   UNL     1      -0.171   2.348   0.000  0.00  0.00    +0.000 C 
ATOM     13  C   UNL     1      -0.171   0.698   0.000  0.00  0.00    +0.000 C 
ENDBRANCH   6  10
BRANCH   1  14
ATOM     14  N   UNL     1       4.067   2.348   0.000  0.00  0.00    +0.000 NA
BRANCH  14  15
ATOM     15  S   UNL     1       4.781   1.935   0.000  0.00  0.00    +0.000 S 
ATOM     16  O   UNL     1       5.194   2.650   0.000  0.00  0.00    +0.000 OA
ATOM     17  O   UNL     1       4.369   1.221   0.000  0.00  0.00    +0.000 OA
BRANCH  15  19
ATOM     18  C   UNL     1       5.496   0.698   0.000  0.00  0.00    +0.000 C 
ATOM     19  C   UNL     1       5.496   1.523   0.000  0.00  0.00    +0.000 C 
ENDBRANCH  15  19
ENDBRANCH  14  15
ENDBRANCH   1  14
BRANCH   5  20
ATOM     20  C   UNL     1       0.884   0.071   0.000  0.00  0.00    +0.000 C 
BRANCH  20  21
ATOM     21  C   UNL     1       1.436  -0.542   0.000  0.00  0.00    +0.000 C 
ATOM     22  C   UNL     1       2.243  -0.371   0.000  0.00  0.00    +0.000 C 
ATOM     23  C   UNL     1       2.795  -0.984   0.000  0.00  0.00    +0.000 C 
ATOM     24  C   UNL     1       2.540  -1.768   0.000  0.00  0.00    +0.000 C 
ATOM     25  F   UNL     1       3.357  -1.883   0.000  0.00  0.00    +0.000 F 
ATOM     26  F   UNL     1       2.569  -2.593   0.000  0.00  0.00    +0.000 F 
ATOM     27  C   UNL     1       1.733  -1.940   0.000  0.00  0.00    +0.000 C 
ATOM     28  C   UNL     1       1.181  -1.327   0.000  0.00  0.00    +0.000 C 
ENDBRANCH  20  21
ENDBRANCH   5  20
TORSDOF 6
