REMARK  Name = 
REMARK  5 active torsions:
REMARK  status: ('A' for Active; 'I' for Inactive)
REMARK    1  A    between atoms: N_4  and  C_17
REMARK    2  A    between atoms: N_7  and  C_29
REMARK    3  A    between atoms: C_17  and  C_28
REMARK    4  A    between atoms: C_28  and  C_30
REMARK    5  A    between atoms: C_29  and  C_30
REMARK                            x       y       z     vdW  Elec       q    Type
REMARK                         _______ _______ _______ _____ _____    ______ ____
ROOT
ATOM      1  S   UNL     1       1.314   4.461   0.000  0.00  0.00    +0.000 S 
ATOM      2  N   UNL     1       1.059   2.341   0.000  0.00  0.00    +0.000 N 
ATOM      3  N   UNL     1       0.829   3.793   0.000  0.00  0.00    +0.000 NA
ATOM      4  N   UNL     1       0.549   0.772   0.000  0.00  0.00    +0.000 NA
ATOM      5  C   UNL     1       1.314   3.126   0.000  0.00  0.00    +0.000 A 
ATOM      6  C   UNL     1       2.099   3.381   0.000  0.00  0.00    +0.000 A 
ATOM      7  C   UNL     1       2.099   4.206   0.000  0.00  0.00    +0.000 A 
ATOM      8  C   UNL     1       2.813   2.969   0.000  0.00  0.00    +0.000 A 
ATOM      9  C   UNL     1       2.813   4.619   0.000  0.00  0.00    +0.000 A 
ATOM     10  C   UNL     1       1.611   1.728   0.000  0.00  0.00    +0.000 C 
ATOM     11  C   UNL     1       0.252   2.170   0.000  0.00  0.00    +0.000 C 
ATOM     12  C   UNL     1       3.528   3.381   0.000  0.00  0.00    +0.000 A 
ATOM     13  C   UNL     1       1.356   0.944   0.000  0.00  0.00    +0.000 C 
ATOM     14  C   UNL     1      -0.003   1.385   0.000  0.00  0.00    +0.000 C 
ATOM     15  C   UNL     1       3.528   4.206   0.000  0.00  0.00    +0.000 A 
ENDROOT
BRANCH   4  16
ATOM     16  C   UNL     1       0.294  -0.012   0.000  0.00  0.00    +0.000 C 
BRANCH  16  17
ATOM     17  C   UNL     1      -0.513  -0.184   0.000  0.00  0.00    +0.000 C 
BRANCH  17  18
ATOM     18  C   UNL     1      -0.768  -0.969   0.000  0.00  0.00    +0.000 C 
BRANCH  18  19
ATOM     19  C   UNL     1      -1.575  -1.140   0.000  0.00  0.00    +0.000 C 
BRANCH  19  22
ATOM     20  O   UNL     1      -3.282  -1.695   0.000  0.00  0.00    +0.000 OA
ATOM     21  O   UNL     1      -0.519  -2.592   0.000  0.00  0.00    +0.000 OA
ATOM     22  N   UNL     1      -1.829  -1.925   0.000  0.00  0.00    +0.000 N 
ATOM     23  C   UNL     1      -2.614  -3.005   0.000  0.00  0.00    +0.000 C 
ATOM     24  C   UNL     1      -1.829  -3.260   0.000  0.00  0.00    +0.000 C 
ATOM     25  C   UNL     1      -2.614  -2.180   0.000  0.00  0.00    +0.000 C 
ATOM     26  C   UNL     1      -1.345  -2.592   0.000  0.00  0.00    +0.000 C 
ATOM     27  C   UNL     1      -3.227  -3.557   0.000  0.00  0.00    +0.000 C 
ATOM     28  C   UNL     1      -1.658  -4.066   0.000  0.00  0.00    +0.000 C 
ATOM     29  C   UNL     1      -3.056  -4.364   0.000  0.00  0.00    +0.000 C 
ATOM     30  C   UNL     1      -2.271  -4.619   0.000  0.00  0.00    +0.000 C 
ENDBRANCH  19  22
ENDBRANCH  18  19
ENDBRANCH  17  18
ENDBRANCH  16  17
ENDBRANCH   4  16
TORSDOF 5
