REMARK  Name = 
REMARK  9 active torsions:
REMARK  status: ('A' for Active; 'I' for Inactive)
REMARK    1  A    between atoms: C_2  and  C_3
REMARK    2  A    between atoms: C_3  and  C_5
REMARK    3  A    between atoms: C_5  and  C_7
REMARK    4  A    between atoms: C_7  and  C_8
REMARK    5  A    between atoms: C_8  and  C_9
REMARK    6  A    between atoms: C_8  and  N_17
REMARK    7  A    between atoms: C_9  and  C_10
REMARK    8  A    between atoms: C_10  and  C_11
REMARK    9  A    between atoms: C_11  and  C_12
REMARK                            x       y       z     vdW  Elec       q    Type
REMARK                         _______ _______ _______ _____ _____    ______ ____
ROOT
ATOM      1  C   UNL     1      -0.002  -0.412   0.000  0.00  0.00    +0.000 C 
ENDROOT
BRANCH   1   2
ATOM      2  N   UNL     1      -0.002   0.412   0.000  0.00  0.00    +0.000 NA
ATOM      3  C   UNL     1       0.713   0.824   0.000  0.00  0.00    +0.000 C 
ATOM      4  C   UNL     1       1.428   0.412   0.000  0.00  0.00    +0.000 C 
ATOM      5  O   UNL     1       0.713   1.648   0.000  0.00  0.00    +0.000 OA
ENDBRANCH   1   2
BRANCH   1   6
ATOM      6  C   UNL     1      -0.713  -0.824   0.000  0.00  0.00    +0.000 C 
ATOM      7  O   UNL     1      -0.713  -1.648   0.000  0.00  0.00    +0.000 OA
BRANCH   6   8
ATOM      8  C   UNL     1      -1.428  -0.412   0.000  0.00  0.00    +0.000 C 
ATOM      9  O   UNL     1      -1.428   0.412   0.000  0.00  0.00    +0.000 OA
BRANCH   8  10
ATOM     10  C   UNL     1      -2.142  -0.824   0.000  0.00  0.00    +0.000 C 
ATOM     11  O   UNL     1      -2.142  -1.648   0.000  0.00  0.00    +0.000 OA
BRANCH  10  13
ATOM     12  O   UNL     1      -3.572  -0.824   0.000  0.00  0.00    +0.000 OA
ATOM     13  C   UNL     1      -2.857  -0.412   0.000  0.00  0.00    +0.000 C 
ENDBRANCH  10  13
ENDBRANCH   8  10
ENDBRANCH   6   8
ENDBRANCH   1   6
BRANCH   1  14
ATOM     14  C   UNL     1       0.713  -0.824   0.000  0.00  0.00    +0.000 C 
ATOM     15  O   UNL     1       0.713  -1.648   0.000  0.00  0.00    +0.000 OA
BRANCH  14  16
ATOM     16  C   UNL     1       1.428  -0.412   0.000  0.00  0.00    +0.000 C 
BRANCH  16  17
ATOM     17  C   UNL     1       2.143  -0.824   0.000  0.00  0.00    +0.000 C 
ATOM     18  O   UNL     1       2.143  -1.648   0.000  0.00  0.00    +0.000 OA
BRANCH  17  19
ATOM     19  C   UNL     1       2.857  -0.412   0.000  0.00  0.00    +0.000 C 
ATOM     20  O   UNL     1       3.572  -0.824   0.000  0.00  0.00    +0.000 OA
ATOM     21  O   UNL     1       2.857   0.412   0.000  0.00  0.00    +0.000 OA
ENDBRANCH  17  19
ENDBRANCH  16  17
ENDBRANCH  14  16
ENDBRANCH   1  14
TORSDOF 9
