REMARK  Name = 
REMARK  0 active torsions:
REMARK  status: ('A' for Active; 'I' for Inactive)
REMARK                            x       y       z     vdW  Elec       q    Type
REMARK                         _______ _______ _______ _____ _____    ______ ____
ROOT
ATOM      1  C   UNL     1      -0.357  -0.825   0.000  0.00  0.00    +0.000 C 
ATOM      2  N   UNL     1       0.357  -1.237   0.000  0.00  0.00    +0.000 NA
ATOM      3  N   UNL     1      -0.357   0.000   0.000  0.00  0.00    +0.000 NA
ATOM      4  C   UNL     1       0.357   0.412   0.000  0.00  0.00    +0.000 C 
ATOM      5  C   UNL     1       1.072   0.000   0.000  0.00  0.00    +0.000 C 
ATOM      6  C   UNL     1       1.072  -0.825   0.000  0.00  0.00    +0.000 C 
ATOM      7  O   UNL     1       0.357   1.237   0.000  0.00  0.00    +0.000 OA
ATOM      8  O   UNL     1      -1.072  -1.237   0.000  0.00  0.00    +0.000 OA
ENDROOT
TORSDOF 0
