REMARK  Name = 
REMARK  2 active torsions:
REMARK  status: ('A' for Active; 'I' for Inactive)
REMARK    1  A    between atoms: C_16  and  C_24
REMARK    2  A    between atoms: C_18  and  N_30
REMARK                            x       y       z     vdW  Elec       q    Type
REMARK                         _______ _______ _______ _____ _____    ______ ____
ROOT
ATOM      1  C   UNL     1      -3.578  -0.204   0.000  0.00  0.00    +0.000 A 
ATOM      2  C   UNL     1      -3.578   0.621   0.000  0.00  0.00    +0.000 A 
ATOM      3  C   UNL     1      -2.863   1.033   0.000  0.00  0.00    +0.000 A 
ATOM      4  C   UNL     1      -2.149   0.621   0.000  0.00  0.00    +0.000 A 
ATOM      5  C   UNL     1      -2.149  -0.204   0.000  0.00  0.00    +0.000 A 
ATOM      6  C   UNL     1      -2.863  -0.617   0.000  0.00  0.00    +0.000 A 
ATOM      7  C   UNL     1      -1.434   1.033   0.000  0.00  0.00    +0.000 C 
ATOM      8  C   UNL     1      -0.720   0.621   0.000  0.00  0.00    +0.000 C 
ATOM      9  C   UNL     1      -0.720  -0.204   0.000  0.00  0.00    +0.000 C 
ATOM     10  C   UNL     1      -1.434  -0.617   0.000  0.00  0.00    +0.000 C 
ATOM     11  C   UNL     1      -0.005   1.033   0.000  0.00  0.00    +0.000 C 
ATOM     12  C   UNL     1       0.709   0.621   0.000  0.00  0.00    +0.000 C 
ATOM     13  C   UNL     1       0.709  -0.204   0.000  0.00  0.00    +0.000 C 
ATOM     14  C   UNL     1      -0.005  -0.617   0.000  0.00  0.00    +0.000 C 
ATOM     15  C   UNL     1       1.424   1.033   0.000  0.00  0.00    +0.000 C 
ATOM     16  C   UNL     1       2.138   0.621   0.000  0.00  0.00    +0.000 C 
ATOM     17  C   UNL     1       2.138  -0.204   0.000  0.00  0.00    +0.000 C 
ATOM     18  C   UNL     1       1.424  -0.617   0.000  0.00  0.00    +0.000 C 
ATOM     19 CL   UNL     1      -2.863  -1.441   0.000  0.00  0.00    +0.000 Cl
ATOM     20  O   UNL     1      -2.863   1.858   0.000  0.00  0.00    +0.000 OA
ATOM     21  O   UNL     1      -1.434   1.858   0.000  0.00  0.00    +0.000 OA
ATOM     22  O   UNL     1      -0.005   1.858   0.000  0.00  0.00    +0.000 OA
ATOM     23  O   UNL     1       1.424   1.858   0.000  0.00  0.00    +0.000 OA
ATOM     24  O   UNL     1       2.866  -0.624   0.000  0.00  0.00    +0.000 OA
ATOM     25  O   UNL     1       0.709   1.446   0.000  0.00  0.00    +0.000 OA
ATOM     26  C   UNL     1      -1.022  -1.331   0.000  0.00  0.00    +0.000 C 
ATOM     27  O   UNL     1      -1.847  -1.331   0.000  0.00  0.00    +0.000 OA
ENDROOT
BRANCH  16  28
ATOM     28  C   UNL     1       2.866   1.041   0.000  0.00  0.00    +0.000 C 
ATOM     29  N   UNL     1       3.578   0.631   0.000  0.00  0.00    +0.000 NA
ATOM     30  O   UNL     1       2.866   1.858   0.000  0.00  0.00    +0.000 OA
ENDBRANCH  16  28
BRANCH  18  31
ATOM     31  N   UNL     1       1.424  -1.442   0.000  0.00  0.00    +0.000 NA
ATOM     32  C   UNL     1       0.702  -1.858   0.000  0.00  0.00    +0.000 C 
ATOM     33  C   UNL     1       2.131  -1.850   0.000  0.00  0.00    +0.000 C 
ENDBRANCH  18  31
TORSDOF 2
