REMARK  Name = 
REMARK  14 active torsions:
REMARK  status: ('A' for Active; 'I' for Inactive)
REMARK    1  A    between atoms: C_2  and  C_3
REMARK    2  A    between atoms: C_3  and  N_4
REMARK    3  A    between atoms: N_8  and  C_9
REMARK    4  A    between atoms: C_12  and  C_15
REMARK    5  A    between atoms: C_19  and  C_20
REMARK    6  A    between atoms: C_21  and  C_22
REMARK    7  A    between atoms: C_22  and  C_23
REMARK    8  A    between atoms: C_23  and  C_24
REMARK    9  A    between atoms: C_24  and  N_25
REMARK   10  A    between atoms: C_26  and  C_28
REMARK   11  A    between atoms: C_28  and  N_30
REMARK   12  A    between atoms: C_32  and  C_34
REMARK   13  A    between atoms: C_35  and  C_36
REMARK   14  A    between atoms: C_36  and  N_37
REMARK                            x       y       z     vdW  Elec       q    Type
REMARK                         _______ _______ _______ _____ _____    ______ ____
ROOT
ATOM      1  C   UNL     1       2.858  -4.950   0.000  0.00  0.00    +0.000 C 
ATOM      2  C   UNL     1       3.572  -4.537   0.000  0.00  0.00    +0.000 C 
ENDROOT
BRANCH   1  10
ATOM      3  N   UNL     1       2.858  -6.600   0.000  0.00  0.00    +0.000 NA
ATOM      4  C   UNL     1       2.143  -6.188   0.000  0.00  0.00    +0.000 A 
ATOM      5  N   UNL     1       1.429  -6.600   0.000  0.00  0.00    +0.000 NA
ATOM      6  C   UNL     1       0.715  -6.188   0.000  0.00  0.00    +0.000 A 
ATOM      7  N   UNL     1       0.000  -6.600   0.000  0.00  0.00    +0.000 NA
ATOM      8  N   UNL     1       0.715  -5.362   0.000  0.00  0.00    +0.000 NA
ATOM      9  C   UNL     1       1.429  -4.950   0.000  0.00  0.00    +0.000 A 
ATOM     10  C   UNL     1       2.143  -5.362   0.000  0.00  0.00    +0.000 A 
BRANCH   7  11
ATOM     11  C   UNL     1      -0.715  -6.188   0.000  0.00  0.00    +0.000 A 
ATOM     12  C   UNL     1      -1.429  -6.600   0.000  0.00  0.00    +0.000 A 
ATOM     13  C   UNL     1      -2.143  -6.188   0.000  0.00  0.00    +0.000 A 
ATOM     14  C   UNL     1      -2.143  -5.362   0.000  0.00  0.00    +0.000 A 
ATOM     15  C   UNL     1      -1.429  -4.950   0.000  0.00  0.00    +0.000 A 
ATOM     16  C   UNL     1      -0.715  -5.362   0.000  0.00  0.00    +0.000 A 
BRANCH  14  17
ATOM     17  C   UNL     1      -2.858  -4.950   0.000  0.00  0.00    +0.000 C 
ATOM     18  N   UNL     1      -3.572  -4.537   0.000  0.00  0.00    +0.000 NA
ENDBRANCH  14  17
ENDBRANCH   7  11
BRANCH   3  19
ATOM     19  C   UNL     1       3.572  -6.188   0.000  0.00  0.00    +0.000 C 
BRANCH  19  21
ATOM     20  C   UNL     1       5.001  -6.188   0.000  0.00  0.00    +0.000 C 
ATOM     21  C   UNL     1       4.287  -6.600   0.000  0.00  0.00    +0.000 C 
ENDBRANCH  19  21
ENDBRANCH   3  19
ENDBRANCH   1  10
BRANCH   2  22
ATOM     22  C   UNL     1       4.287  -4.125   0.000  0.00  0.00    +0.000 C 
BRANCH  22  23
ATOM     23  C   UNL     1       5.001  -4.537   0.000  0.00  0.00    +0.000 C 
BRANCH  23  24
ATOM     24  C   UNL     1       5.716  -4.125   0.000  0.00  0.00    +0.000 C 
BRANCH  24  25
ATOM     25  N   UNL     1       6.430  -4.537   0.000  0.00  0.00    +0.000 NA
ATOM     26  C   UNL     1       7.145  -4.125   0.000  0.00  0.00    +0.000 C 
ATOM     27  O   UNL     1       7.145  -3.300   0.000  0.00  0.00    +0.000 OA
BRANCH  26  28
ATOM     28  C   UNL     1       7.859  -4.537   0.000  0.00  0.00    +0.000 C 
ATOM     29  C   UNL     1       7.859  -5.362   0.000  0.00  0.00    +0.000 C 
BRANCH  28  30
ATOM     30  N   UNL     1       8.574  -4.125   0.000  0.00  0.00    +0.000 N 
ATOM     31  C   UNL     1       8.574  -3.300   0.000  0.00  0.00    +0.000 C 
ATOM     32  C   UNL     1       9.288  -4.537   0.000  0.00  0.00    +0.000 C 
ATOM     33  O   UNL     1       9.288  -5.362   0.000  0.00  0.00    +0.000 OA
BRANCH  32  34
ATOM     34  C   UNL     1      10.003  -4.125   0.000  0.00  0.00    +0.000 C 
ATOM     35  C   UNL     1      10.717  -4.537   0.000  0.00  0.00    +0.000 C 
BRANCH  35  36
ATOM     36  C   UNL     1      11.431  -4.125   0.000  0.00  0.00    +0.000 C 
BRANCH  36  37
ATOM     37  N   UNL     1      12.146  -4.537   0.000  0.00  0.00    +0.000 NA
ATOM     38  C   UNL     1      12.861  -4.125   0.000  0.00  0.00    +0.000 C 
ATOM     39  C   UNL     1      12.146  -5.362   0.000  0.00  0.00    +0.000 C 
ENDBRANCH  36  37
ENDBRANCH  35  36
ENDBRANCH  32  34
ENDBRANCH  28  30
ENDBRANCH  26  28
ENDBRANCH  24  25
ENDBRANCH  23  24
ENDBRANCH  22  23
ENDBRANCH   2  22
TORSDOF 14
