REMARK  Name = 
REMARK  7 active torsions:
REMARK  status: ('A' for Active; 'I' for Inactive)
REMARK    1  A    between atoms: C_1  and  O_11
REMARK    2  A    between atoms: O_11  and  C_12
REMARK    3  A    between atoms: C_12  and  C_13
REMARK    4  A    between atoms: C_13  and  C_14
REMARK    5  A    between atoms: C_14  and  C_15
REMARK    6  A    between atoms: C_15  and  N_16
REMARK    7  A    between atoms: N_19  and  C_22
REMARK                            x       y       z     vdW  Elec       q    Type
REMARK                         _______ _______ _______ _____ _____    ______ ____
ROOT
ATOM      1  C   UNL     1       1.134  -1.444   0.000  0.00  0.00    +0.000 C 
ENDROOT
BRANCH   1   2
ATOM      2  N   UNL     1       1.836  -1.031   0.000  0.00  0.00    +0.000 NA
ATOM      3  C   UNL     1       2.537  -1.444   0.000  0.00  0.00    +0.000 C 
ATOM      4  C   UNL     1       3.279  -1.031   0.000  0.00  0.00    +0.000 C 
ATOM      5  N   UNL     1       3.279  -0.206   0.000  0.00  0.00    +0.000 N 
ATOM      6  C   UNL     1       2.537   0.206   0.000  0.00  0.00    +0.000 C 
ATOM      7  C   UNL     1       1.836  -0.206   0.000  0.00  0.00    +0.000 C 
BRANCH   5   8
ATOM      8  C   UNL     1       3.981   0.206   0.000  0.00  0.00    +0.000 A 
ATOM      9  C   UNL     1       4.682  -0.206   0.000  0.00  0.00    +0.000 A 
ATOM     10  C   UNL     1       5.424   0.206   0.000  0.00  0.00    +0.000 A 
ATOM     11  C   UNL     1       5.424   1.031   0.000  0.00  0.00    +0.000 A 
ATOM     12  C   UNL     1       4.682   1.444   0.000  0.00  0.00    +0.000 A 
ATOM     13  C   UNL     1       3.981   1.031   0.000  0.00  0.00    +0.000 A 
ATOM     14  C   UNL     1       4.847  -1.031   0.000  0.00  0.00    +0.000 A 
ATOM     15  C   UNL     1       5.672  -1.155   0.000  0.00  0.00    +0.000 A 
ATOM     16  S   UNL     1       6.043  -0.371   0.000  0.00  0.00    +0.000 S 
ENDBRANCH   5   8
ENDBRANCH   1   2
BRANCH   1  17
ATOM     17  C   UNL     1       0.392  -1.031   0.000  0.00  0.00    +0.000 C 
BRANCH  17  18
ATOM     18  C   UNL     1      -0.309  -1.444   0.000  0.00  0.00    +0.000 C 
BRANCH  18  19
ATOM     19  C   UNL     1      -1.011  -1.031   0.000  0.00  0.00    +0.000 C 
BRANCH  19  20
ATOM     20  O   UNL     1      -1.753  -1.444   0.000  0.00  0.00    +0.000 OA
BRANCH  20  21
ATOM     21  C   UNL     1      -2.454  -1.031   0.000  0.00  0.00    +0.000 A 
ATOM     22  C   UNL     1      -2.454  -0.206   0.000  0.00  0.00    +0.000 A 
ATOM     23  C   UNL     1      -3.156   0.206   0.000  0.00  0.00    +0.000 A 
ATOM     24  C   UNL     1      -3.156  -1.444   0.000  0.00  0.00    +0.000 A 
ATOM     25  C   UNL     1      -3.898  -1.031   0.000  0.00  0.00    +0.000 A 
ATOM     26  C   UNL     1      -3.898  -0.206   0.000  0.00  0.00    +0.000 A 
ATOM     27  C   UNL     1      -5.301  -0.165   0.000  0.00  0.00    +0.000 A 
ATOM     28  C   UNL     1      -5.301  -0.990   0.000  0.00  0.00    +0.000 A 
ATOM     29  N   UNL     1      -4.599  -1.444   0.000  0.00  0.00    +0.000 NA
ATOM     30  O   UNL     1      -6.043  -1.403   0.000  0.00  0.00    +0.000 OA
ATOM     31  C   UNL     1      -4.599   0.206   0.000  0.00  0.00    +0.000 A 
ENDBRANCH  20  21
ENDBRANCH  19  20
ENDBRANCH  18  19
ENDBRANCH  17  18
ENDBRANCH   1  17
TORSDOF 7
