REMARK  Name = 
REMARK  4 active torsions:
REMARK  status: ('A' for Active; 'I' for Inactive)
REMARK    1  A    between atoms: C_2  and  C_4
REMARK    2  A    between atoms: C_9  and  C_10
REMARK    3  A    between atoms: N_18  and  N_22
REMARK    4  A    between atoms: N_22  and  S_23
REMARK                            x       y       z     vdW  Elec       q    Type
REMARK                         _______ _______ _______ _____ _____    ______ ____
ROOT
ATOM      1  C   UNL     1      -0.715  -1.238   0.000  0.00  0.00    +0.000 A 
ATOM      2  C   UNL     1       0.000  -1.650   0.000  0.00  0.00    +0.000 A 
ATOM      3  C   UNL     1       0.715  -1.238   0.000  0.00  0.00    +0.000 A 
ATOM      4  C   UNL     1       0.715  -0.412   0.000  0.00  0.00    +0.000 A 
ATOM      5  C   UNL     1       0.000   0.000   0.000  0.00  0.00    +0.000 A 
ATOM      6  C   UNL     1      -0.715  -0.412   0.000  0.00  0.00    +0.000 A 
ATOM      7  C   UNL     1       1.429   0.000   0.000  0.00  0.00    +0.000 A 
ATOM      8  O   UNL     1       1.429   0.825   0.000  0.00  0.00    +0.000 OA
ATOM      9  N   UNL     1       2.143  -0.412   0.000  0.00  0.00    +0.000 N 
ATOM     10  C   UNL     1       2.143  -1.238   0.000  0.00  0.00    +0.000 A 
ATOM     11  O   UNL     1       2.858  -1.650   0.000  0.00  0.00    +0.000 OA
ATOM     12  N   UNL     1       1.429  -1.650   0.000  0.00  0.00    +0.000 NA
ENDROOT
BRANCH   6  13
ATOM     13  C   UNL     1      -1.429   0.000   0.000  0.00  0.00    +0.000 A 
ATOM     14  C   UNL     1      -2.183  -0.336   0.000  0.00  0.00    +0.000 A 
ATOM     15  C   UNL     1      -2.735   0.278   0.000  0.00  0.00    +0.000 A 
ATOM     16  N   UNL     1      -2.322   0.992   0.000  0.00  0.00    +0.000 NA
ATOM     17  N   UNL     1      -1.515   0.821   0.000  0.00  0.00    +0.000 N 
ATOM     18  C   UNL     1      -0.902   1.373   0.000  0.00  0.00    +0.000 C 
ENDBRANCH   6  13
BRANCH   1  20
ATOM     19  C   UNL     1      -2.143  -1.238   0.000  0.00  0.00    +0.000 C 
ATOM     20  C   UNL     1      -1.429  -1.650   0.000  0.00  0.00    +0.000 C 
ATOM     21  C   UNL     1      -1.429  -2.475   0.000  0.00  0.00    +0.000 C 
ENDBRANCH   1  20
BRANCH   9  22
ATOM     22  N   UNL     1       2.858   0.000   0.000  0.00  0.00    +0.000 NA
BRANCH  22  23
ATOM     23  S   UNL     1       2.858   0.825   0.000  0.00  0.00    +0.000 S 
ATOM     24  O   UNL     1       2.858   1.650   0.000  0.00  0.00    +0.000 OA
ATOM     25  O   UNL     1       3.683   0.825   0.000  0.00  0.00    +0.000 OA
ATOM     26  C   UNL     1       2.033   0.825   0.000  0.00  0.00    +0.000 C 
ENDBRANCH  22  23
ENDBRANCH   9  22
TORSDOF 4
