REMARK  Name = 
REMARK  7 active torsions:
REMARK  status: ('A' for Active; 'I' for Inactive)
REMARK    1  A    between atoms: C_2  and  S_4
REMARK    2  A    between atoms: S_4  and  C_7
REMARK    3  A    between atoms: C_12  and  N_13
REMARK    4  A    between atoms: N_20  and  C_21
REMARK    5  A    between atoms: C_24  and  N_29
REMARK    6  A    between atoms: C_26  and  O_27
REMARK    7  A    between atoms: C_32  and  N_35
REMARK                            x       y       z     vdW  Elec       q    Type
REMARK                         _______ _______ _______ _____ _____    ______ ____
ROOT
ATOM      1  C   UNL     1       0.715  -5.362   0.000  0.00  0.00    +0.000 A 
ATOM      2  C   UNL     1       0.000  -4.950   0.000  0.00  0.00    +0.000 A 
ATOM      3  C   UNL     1       0.000  -4.125   0.000  0.00  0.00    +0.000 A 
ATOM      4  C   UNL     1       0.715  -3.712   0.000  0.00  0.00    +0.000 A 
ATOM      5  C   UNL     1       1.429  -4.125   0.000  0.00  0.00    +0.000 A 
ATOM      6  C   UNL     1       1.429  -4.950   0.000  0.00  0.00    +0.000 A 
ENDROOT
BRANCH   1  14
ATOM      7  N   UNL     1      -2.143  -6.188   0.000  0.00  0.00    +0.000 NA
ATOM      8  C   UNL     1      -1.429  -6.600   0.000  0.00  0.00    +0.000 A 
ATOM      9  N   UNL     1      -1.429  -7.425   0.000  0.00  0.00    +0.000 NA
ATOM     10  C   UNL     1      -0.715  -7.838   0.000  0.00  0.00    +0.000 A 
ATOM     11  N   UNL     1       0.000  -7.425   0.000  0.00  0.00    +0.000 NA
ATOM     12  C   UNL     1       0.000  -6.600   0.000  0.00  0.00    +0.000 A 
ATOM     13  N   UNL     1      -0.715  -6.188   0.000  0.00  0.00    +0.000 NA
ATOM     14  N   UNL     1       0.715  -6.188   0.000  0.00  0.00    +0.000 NA
BRANCH   7  20
ATOM     15  C   UNL     1      -3.572  -6.188   0.000  0.00  0.00    +0.000 A 
ATOM     16  C   UNL     1      -4.287  -6.600   0.000  0.00  0.00    +0.000 A 
ATOM     17  C   UNL     1      -4.287  -7.425   0.000  0.00  0.00    +0.000 A 
ATOM     18  C   UNL     1      -3.572  -7.838   0.000  0.00  0.00    +0.000 A 
ATOM     19  C   UNL     1      -2.858  -7.425   0.000  0.00  0.00    +0.000 A 
ATOM     20  C   UNL     1      -2.858  -6.600   0.000  0.00  0.00    +0.000 A 
BRANCH  15  21
ATOM     21  S   UNL     1      -3.572  -5.362   0.000  0.00  0.00    +0.000 S 
ATOM     22  O   UNL     1      -2.747  -5.362   0.000  0.00  0.00    +0.000 OA
ATOM     23  O   UNL     1      -4.397  -5.362   0.000  0.00  0.00    +0.000 OA
BRANCH  21  25
ATOM     24  C   UNL     1      -4.287  -4.125   0.000  0.00  0.00    +0.000 C 
ATOM     25  C   UNL     1      -3.572  -4.537   0.000  0.00  0.00    +0.000 C 
ATOM     26  C   UNL     1      -2.858  -4.125   0.000  0.00  0.00    +0.000 C 
ENDBRANCH  21  25
ENDBRANCH  15  21
ENDBRANCH   7  20
ENDBRANCH   1  14
BRANCH   4  27
ATOM     27  N   UNL     1       0.715  -2.888   0.000  0.00  0.00    +0.000 N 
ATOM     28  C   UNL     1       0.000  -2.475   0.000  0.00  0.00    +0.000 C 
ATOM     29  C   UNL     1       0.000  -1.650   0.000  0.00  0.00    +0.000 C 
ATOM     30  C   UNL     1       0.715  -1.238   0.000  0.00  0.00    +0.000 C 
ATOM     31  C   UNL     1       1.429  -1.650   0.000  0.00  0.00    +0.000 C 
ATOM     32  C   UNL     1       1.429  -2.475   0.000  0.00  0.00    +0.000 C 
BRANCH  30  33
ATOM     33  N   UNL     1       0.715  -0.412   0.000  0.00  0.00    +0.000 NA
ATOM     34  C   UNL     1       0.000   0.000   0.000  0.00  0.00    +0.000 C 
ATOM     35  C   UNL     1       0.000   0.825   0.000  0.00  0.00    +0.000 C 
ATOM     36  N   UNL     1       0.715   1.238   0.000  0.00  0.00    +0.000 NA
ATOM     37  C   UNL     1       1.429   0.825   0.000  0.00  0.00    +0.000 C 
ATOM     38  C   UNL     1       1.429   0.000   0.000  0.00  0.00    +0.000 C 
ATOM     39  C   UNL     1       0.715   2.062   0.000  0.00  0.00    +0.000 C 
ENDBRANCH  30  33
ENDBRANCH   4  27
BRANCH   6  40
ATOM     40  O   UNL     1       2.143  -5.362   0.000  0.00  0.00    +0.000 OA
ATOM     41  C   UNL     1       2.143  -6.188   0.000  0.00  0.00    +0.000 C 
ENDBRANCH   6  40
TORSDOF 7
