REMARK  Name = 
REMARK  4 active torsions:
REMARK  status: ('A' for Active; 'I' for Inactive)
REMARK    1  A    between atoms: C_1  and  C_4
REMARK    2  A    between atoms: C_1  and  C_5
REMARK    3  A    between atoms: C_4  and  C_10
REMARK    4  A    between atoms: C_5  and  C_11
REMARK                            x       y       z     vdW  Elec       q    Type
REMARK                         _______ _______ _______ _____ _____    ______ ____
ROOT
ATOM      1  C   UNL     1       0.029  -0.445   0.000  0.00  0.00    +0.000 C 
ATOM      2  C   UNL     1       0.029  -1.270   0.000  0.00  0.00    +0.000 C 
ATOM      3  C   UNL     1      -0.686  -0.033   0.000  0.00  0.00    +0.000 C 
ATOM      4  N   UNL     1      -0.686  -1.683   0.000  0.00  0.00    +0.000 NA
ATOM      5  O   UNL     1       0.743  -1.683   0.000  0.00  0.00    +0.000 OA
ATOM      6  N   UNL     1      -1.400  -0.445   0.000  0.00  0.00    +0.000 NA
ATOM      7  O   UNL     1      -0.686   0.792   0.000  0.00  0.00    +0.000 OA
ATOM      8  C   UNL     1      -1.400  -1.270   0.000  0.00  0.00    +0.000 C 
ATOM      9  O   UNL     1      -2.115  -1.683   0.000  0.00  0.00    +0.000 OA
ENDROOT
BRANCH   1  10
ATOM     10  C   UNL     1       0.853  -0.416   0.000  0.00  0.00    +0.000 C 
BRANCH  10  11
ATOM     11  C   UNL     1       1.290  -1.116   0.000  0.00  0.00    +0.000 C 
ATOM     12  C   UNL     1       2.115  -1.087   0.000  0.00  0.00    +0.000 C 
ENDBRANCH  10  11
ENDBRANCH   1  10
BRANCH   1  13
ATOM     13  C   UNL     1       0.466   0.255   0.000  0.00  0.00    +0.000 C 
BRANCH  13  14
ATOM     14  C   UNL     1       0.078   0.983   0.000  0.00  0.00    +0.000 C 
ATOM     15  C   UNL     1       0.515   1.683   0.000  0.00  0.00    +0.000 C 
ENDBRANCH  13  14
ENDBRANCH   1  13
TORSDOF 4
