REMARK  Name = 
REMARK  2 active torsions:
REMARK  status: ('A' for Active; 'I' for Inactive)
REMARK    1  A    between atoms: C_1  and  N_12
REMARK    2  A    between atoms: C_8  and  C_10
REMARK                            x       y       z     vdW  Elec       q    Type
REMARK                         _______ _______ _______ _____ _____    ______ ____
ROOT
ATOM      1  C   UNL     1      -0.715   0.412   0.000  0.00  0.00    +0.000 C 
ATOM      2  C   UNL     1      -0.715  -0.412   0.000  0.00  0.00    +0.000 C 
ATOM      3  O   UNL     1       0.000  -0.825   0.000  0.00  0.00    +0.000 OA
ATOM      4  C   UNL     1      -1.429  -0.825   0.000  0.00  0.00    +0.000 C 
ATOM      5  O   UNL     1      -1.429  -1.650   0.000  0.00  0.00    +0.000 OA
ATOM      6  C   UNL     1      -2.144  -0.412   0.000  0.00  0.00    +0.000 C 
ATOM      7  O   UNL     1      -2.858  -0.825   0.000  0.00  0.00    +0.000 OA
ATOM      8  C   UNL     1      -2.144   0.412   0.000  0.00  0.00    +0.000 C 
ATOM      9  O   UNL     1      -1.429   0.825   0.000  0.00  0.00    +0.000 OA
ENDROOT
BRANCH   1  10
ATOM     10  N   UNL     1       0.000   0.825   0.000  0.00  0.00    +0.000 NA
ATOM     11  C   UNL     1       0.715   0.412   0.000  0.00  0.00    +0.000 C 
ATOM     12  O   UNL     1       0.715  -0.412   0.000  0.00  0.00    +0.000 OA
ATOM     13  N   UNL     1       1.429   0.825   0.000  0.00  0.00    +0.000 NA
ATOM     14  C   UNL     1       2.144   0.412   0.000  0.00  0.00    +0.000 C 
ATOM     15  C   UNL     1       2.858   0.825   0.000  0.00  0.00    +0.000 C 
ATOM     16  O   UNL     1       2.144  -0.412   0.000  0.00  0.00    +0.000 OA
ENDBRANCH   1  10
BRANCH   8  17
ATOM     17  C   UNL     1      -2.858   0.825   0.000  0.00  0.00    +0.000 C 
ATOM     18  O   UNL     1      -2.858   1.650   0.000  0.00  0.00    +0.000 OA
ENDBRANCH   8  17
TORSDOF 2
