REMARK  Name = 
REMARK  12 active torsions:
REMARK  status: ('A' for Active; 'I' for Inactive)
REMARK    1  A    between atoms: C_1  and  C_44
REMARK    2  A    between atoms: C_8  and  N_35
REMARK    3  A    between atoms: N_10  and  C_25
REMARK    4  A    between atoms: C_12  and  C_26
REMARK    5  A    between atoms: N_13  and  C_27
REMARK    6  A    between atoms: C_16  and  C_25
REMARK    7  A    between atoms: C_27  and  C_30
REMARK    8  A    between atoms: N_28  and  C_45
REMARK    9  A    between atoms: C_30  and  C_32
REMARK   10  A    between atoms: C_32  and  C_33
REMARK   11  A    between atoms: C_33  and  C_34
REMARK   12  A    between atoms: C_33  and  C_44
REMARK                            x       y       z     vdW  Elec       q    Type
REMARK                         _______ _______ _______ _____ _____    ______ ____
ROOT
ATOM      1  C   UNL     1      -0.043   0.319   0.000  0.00  0.00    +0.000 C 
ENDROOT
BRANCH   1   5
ATOM      2  N   UNL     1      -2.183  -0.920   0.000  0.00  0.00    +0.000 NA
ATOM      3  C   UNL     1      -1.470  -1.333   0.000  0.00  0.00    +0.000 C 
ATOM      4  C   UNL     1      -0.759  -0.924   0.000  0.00  0.00    +0.000 C 
ATOM      5  N   UNL     1      -0.756  -0.100   0.000  0.00  0.00    +0.000 NA
ATOM      6  C   UNL     1      -1.469   0.312   0.000  0.00  0.00    +0.000 C 
ATOM      7  C   UNL     1      -2.186  -0.098   0.000  0.00  0.00    +0.000 C 
BRANCH   4   8
ATOM      8  C   UNL     1      -0.451  -1.684   0.000  0.00  0.00    +0.000 C 
ATOM      9  N   UNL     1       0.368  -1.792   0.000  0.00  0.00    +0.000 NA
ATOM     10  O   UNL     1      -0.961  -2.333   0.000  0.00  0.00    +0.000 OA
BRANCH   9  11
ATOM     11  C   UNL     1       0.867  -2.449   0.000  0.00  0.00    +0.000 C 
ATOM     12  C   UNL     1       1.630  -2.133   0.000  0.00  0.00    +0.000 C 
ATOM     13  C   UNL     1       0.207  -2.945   0.000  0.00  0.00    +0.000 C 
ATOM     14  C   UNL     1       1.366  -3.105   0.000  0.00  0.00    +0.000 C 
ENDBRANCH   9  11
ENDBRANCH   4   8
BRANCH   2  15
ATOM     15  C   UNL     1      -2.896  -1.337   0.000  0.00  0.00    +0.000 C 
BRANCH  15  16
ATOM     16  C   UNL     1      -3.606  -0.926   0.000  0.00  0.00    +0.000 A 
ATOM     17  C   UNL     1      -3.603  -0.100   0.000  0.00  0.00    +0.000 A 
ATOM     18  C   UNL     1      -5.029  -0.096   0.000  0.00  0.00    +0.000 A 
ATOM     19  C   UNL     1      -5.032  -0.922   0.000  0.00  0.00    +0.000 A 
ATOM     20  O   UNL     1      -4.316  -1.341   0.000  0.00  0.00    +0.000 OA
ATOM     21  C   UNL     1      -6.468  -0.908   0.000  0.00  0.00    +0.000 A 
ATOM     22  C   UNL     1      -5.756  -1.331   0.000  0.00  0.00    +0.000 A 
ATOM     23  C   UNL     1      -5.745   0.324   0.000  0.00  0.00    +0.000 A 
ATOM     24  C   UNL     1      -6.462  -0.085   0.000  0.00  0.00    +0.000 A 
ENDBRANCH  15  16
ENDBRANCH   2  15
ENDBRANCH   1   5
BRANCH   1  25
ATOM     25  C   UNL     1       0.007   1.136   0.000  0.00  0.00    +0.000 C 
ATOM     26  O   UNL     1      -0.711   1.549   0.000  0.00  0.00    +0.000 OA
BRANCH  25  27
ATOM     27  C   UNL     1       0.720   1.553   0.000  0.00  0.00    +0.000 C 
BRANCH  27  28
ATOM     28  C   UNL     1       1.433   1.141   0.000  0.00  0.00    +0.000 C 
BRANCH  28  29
ATOM     29  C   UNL     1       2.147   1.558   0.000  0.00  0.00    +0.000 C 
ATOM     30  N   UNL     1       2.860   1.145   0.000  0.00  0.00    +0.000 NA
ATOM     31  O   UNL     1       2.142   2.384   0.000  0.00  0.00    +0.000 OA
BRANCH  30  33
ATOM     32  C   UNL     1       3.619   2.388   0.000  0.00  0.00    +0.000 C 
ATOM     33  C   UNL     1       3.619   1.562   0.000  0.00  0.00    +0.000 C 
ATOM     34  C   UNL     1       4.328   2.805   0.000  0.00  0.00    +0.000 C 
ATOM     35  C   UNL     1       5.045   2.388   0.000  0.00  0.00    +0.000 A 
ATOM     36  C   UNL     1       5.043   1.564   0.000  0.00  0.00    +0.000 A 
ATOM     37  C   UNL     1       5.755   1.152   0.000  0.00  0.00    +0.000 A 
ATOM     38  C   UNL     1       6.468   1.563   0.000  0.00  0.00    +0.000 A 
ATOM     39  C   UNL     1       6.466   2.390   0.000  0.00  0.00    +0.000 A 
ATOM     40  C   UNL     1       5.754   2.798   0.000  0.00  0.00    +0.000 A 
ATOM     41  O   UNL     1       3.202   3.105   0.000  0.00  0.00    +0.000 OA
ENDBRANCH  30  33
ENDBRANCH  28  29
BRANCH  28  42
ATOM     42  C   UNL     1       1.429   0.315   0.000  0.00  0.00    +0.000 C 
BRANCH  42  43
ATOM     43  C   UNL     1       2.073  -0.208   0.000  0.00  0.00    +0.000 A 
ATOM     44  C   UNL     1       1.942  -1.021   0.000  0.00  0.00    +0.000 A 
ATOM     45  C   UNL     1       2.580  -1.538   0.000  0.00  0.00    +0.000 A 
ATOM     46  C   UNL     1       3.348  -1.244   0.000  0.00  0.00    +0.000 A 
ATOM     47  C   UNL     1       3.475  -0.427   0.000  0.00  0.00    +0.000 A 
ATOM     48  C   UNL     1       2.836   0.086   0.000  0.00  0.00    +0.000 A 
ENDBRANCH  42  43
ENDBRANCH  28  42
ENDBRANCH  27  28
ENDBRANCH  25  27
ENDBRANCH   1  25
TORSDOF 12
