REMARK  Name = 
REMARK  2 active torsions:
REMARK  status: ('A' for Active; 'I' for Inactive)
REMARK    1  A    between atoms: N_6  and  C_16
REMARK    2  A    between atoms: C_8  and  C_10
REMARK                            x       y       z     vdW  Elec       q    Type
REMARK                         _______ _______ _______ _____ _____    ______ ____
ROOT
ATOM      1  N   UNL     1       0.024  -0.204   0.000  0.00  0.00    +0.000 NA
ATOM      2  N   UNL     1       0.739   1.033   0.000  0.00  0.00    +0.000 NA
ATOM      3  C   UNL     1      -0.690   0.208   0.000  0.00  0.00    +0.000 A 
ATOM      4  C   UNL     1      -0.690   1.033   0.000  0.00  0.00    +0.000 A 
ATOM      5  C   UNL     1       0.024   1.446   0.000  0.00  0.00    +0.000 A 
ATOM      6  C   UNL     1       0.739   0.208   0.000  0.00  0.00    +0.000 A 
ENDROOT
BRANCH   3   9
ATOM      7  S   UNL     1      -2.159   0.131   0.000  0.00  0.00    +0.000 S 
ATOM      8  N   UNL     1      -2.298  -1.196   0.000  0.00  0.00    +0.000 NA
ATOM      9  C   UNL     1      -1.405  -0.204   0.000  0.00  0.00    +0.000 A 
ATOM     10  C   UNL     1      -1.491  -1.025   0.000  0.00  0.00    +0.000 A 
ATOM     11  C   UNL     1      -2.711  -0.482   0.000  0.00  0.00    +0.000 A 
ATOM     12  C   UNL     1      -0.878  -1.577   0.000  0.00  0.00    +0.000 C 
ATOM     13  C   UNL     1      -3.531  -0.396   0.000  0.00  0.00    +0.000 C 
ENDBRANCH   3   9
BRANCH   6  15
ATOM     14  O   UNL     1       3.597   0.208   0.000  0.00  0.00    +0.000 OA
ATOM     15  N   UNL     1       1.453  -0.204   0.000  0.00  0.00    +0.000 NA
ATOM     16  N   UNL     1       2.882  -0.204   0.000  0.00  0.00    +0.000 NA
ATOM     17  C   UNL     1       2.168   0.208   0.000  0.00  0.00    +0.000 C 
ENDBRANCH   6  15
TORSDOF 2
