REMARK  Name = 
REMARK  7 active torsions:
REMARK  status: ('A' for Active; 'I' for Inactive)
REMARK    1  A    between atoms: N_6  and  N_7
REMARK    2  A    between atoms: C_8  and  C_9
REMARK    3  A    between atoms: C_13  and  C_15
REMARK    4  A    between atoms: C_15  and  C_16
REMARK    5  A    between atoms: C_15  and  C_23
REMARK    6  A    between atoms: C_25  and  C_30
REMARK    7  A    between atoms: N_31  and  N_32
REMARK                            x       y       z     vdW  Elec       q    Type
REMARK                         _______ _______ _______ _____ _____    ______ ____
ROOT
ATOM      1  C   UNL     1       2.073   2.516   0.000  0.00  0.00    +0.000 C 
ENDROOT
BRANCH   1   2
ATOM      2  C   UNL     1       1.289   2.771   0.000  0.00  0.00    +0.000 A 
ATOM      3  C   UNL     1       0.675   2.219   0.000  0.00  0.00    +0.000 A 
ATOM      4  C   UNL     1      -0.109   2.474   0.000  0.00  0.00    +0.000 A 
ATOM      5  C   UNL     1      -0.281   3.281   0.000  0.00  0.00    +0.000 A 
ATOM      6  C   UNL     1       0.332   3.833   0.000  0.00  0.00    +0.000 A 
ATOM      7  C   UNL     1       1.117   3.578   0.000  0.00  0.00    +0.000 A 
ATOM      8  O   UNL     1      -1.065   3.536   0.000  0.00  0.00    +0.000 OA
ENDBRANCH   1   2
BRANCH   1   9
ATOM      9  C   UNL     1       2.686   3.068   0.000  0.00  0.00    +0.000 A 
ATOM     10  C   UNL     1       2.515   3.875   0.000  0.00  0.00    +0.000 A 
ATOM     11  C   UNL     1       3.128   4.427   0.000  0.00  0.00    +0.000 A 
ATOM     12  C   UNL     1       3.913   4.172   0.000  0.00  0.00    +0.000 A 
ATOM     13  C   UNL     1       4.084   3.365   0.000  0.00  0.00    +0.000 A 
ATOM     14  C   UNL     1       3.471   2.813   0.000  0.00  0.00    +0.000 A 
ATOM     15  O   UNL     1       3.642   2.006   0.000  0.00  0.00    +0.000 OA
BRANCH  11  16
ATOM     16  C   UNL     1       2.956   5.234   0.000  0.00  0.00    +0.000 C 
ATOM     17  N   UNL     1       2.172   5.489   0.000  0.00  0.00    +0.000 NA
BRANCH  17  18
ATOM     18  N   UNL     1       2.000   6.296   0.000  0.00  0.00    +0.000 N 
ATOM     19  C   UNL     1       1.246   6.631   0.000  0.00  0.00    +0.000 A 
ATOM     20  N   UNL     1       1.333   7.452   0.000  0.00  0.00    +0.000 NA
ATOM     21  N   UNL     1       2.140   7.623   0.000  0.00  0.00    +0.000 NA
ATOM     22  N   UNL     1       2.552   6.909   0.000  0.00  0.00    +0.000 NA
ATOM     23  C   UNL     1       0.532   6.219   0.000  0.00  0.00    +0.000 C 
ENDBRANCH  17  18
ENDBRANCH  11  16
ENDBRANCH   1   9
BRANCH   1  28
ATOM     24  C   UNL     1       3.201   0.647   0.000  0.00  0.00    +0.000 A 
ATOM     25  C   UNL     1       2.588   0.095   0.000  0.00  0.00    +0.000 A 
ATOM     26  C   UNL     1       1.803   0.350   0.000  0.00  0.00    +0.000 A 
ATOM     27  C   UNL     1       1.632   1.157   0.000  0.00  0.00    +0.000 A 
ATOM     28  C   UNL     1       2.245   1.709   0.000  0.00  0.00    +0.000 A 
ATOM     29  C   UNL     1       3.029   1.454   0.000  0.00  0.00    +0.000 A 
ATOM     30  O   UNL     1       0.847   1.412   0.000  0.00  0.00    +0.000 OA
BRANCH  24  32
ATOM     31  N   UNL     1       4.157  -0.415   0.000  0.00  0.00    +0.000 NA
ATOM     32  C   UNL     1       3.986   0.392   0.000  0.00  0.00    +0.000 C 
BRANCH  31  38
ATOM     33  C   UNL     1       5.609   0.640   0.000  0.00  0.00    +0.000 C 
ATOM     34  C   UNL     1       5.609  -0.185   0.000  0.00  0.00    +0.000 A 
ATOM     35  N   UNL     1       6.277  -0.670   0.000  0.00  0.00    +0.000 NA
ATOM     36  N   UNL     1       6.022  -1.454   0.000  0.00  0.00    +0.000 NA
ATOM     37  N   UNL     1       5.197  -1.454   0.000  0.00  0.00    +0.000 NA
ATOM     38  N   UNL     1       4.942  -0.670   0.000  0.00  0.00    +0.000 N 
ENDBRANCH  31  38
ENDBRANCH  24  32
ENDBRANCH   1  28
TORSDOF 7
