REMARK  Name = 
REMARK  11 active torsions:
REMARK  status: ('A' for Active; 'I' for Inactive)
REMARK    1  A    between atoms: C_1  and  C_2
REMARK    2  A    between atoms: C_2  and  C_4
REMARK    3  A    between atoms: C_4  and  C_5
REMARK    4  A    between atoms: C_5  and  C_6
REMARK    5  A    between atoms: C_6  and  C_7
REMARK    6  A    between atoms: N_11  and  C_13
REMARK    7  A    between atoms: C_12  and  C_13
REMARK    8  A    between atoms: C_13  and  C_16
REMARK    9  A    between atoms: N_14  and  CA_19
REMARK   10  A    between atoms: C_18  and  CA_19
REMARK   11  A    between atoms: CA_19  and  CB_21
REMARK                            x       y       z     vdW  Elec       q    Type
REMARK                         _______ _______ _______ _____ _____    ______ ____
ROOT
ATOM      1  C   UNK A   1       1.074   0.206   0.000  0.00  0.00    +0.000 C 
ENDROOT
BRANCH   1   4
ATOM      2  C   UNK A   1      -0.356   0.203   0.000  0.00  0.00    +0.000 C 
ATOM      3  O   UNK A   1      -0.363   1.028   0.000  0.00  0.00    +0.000 OA
ATOM      4  N   UNK A   1       0.360  -0.206   0.000  0.00  0.00    +0.000 NA
BRANCH   2   5
ATOM      5  C   UNK A   1      -1.071  -0.211   0.000  0.00  0.00    +0.000 C 
BRANCH   5   6
ATOM      6  C   UNK A   1      -1.785   0.203   0.000  0.00  0.00    +0.000 C 
BRANCH   6   7
ATOM      7  C   UNK A   1      -2.496  -0.211   0.000  0.00  0.00    +0.000 C 
BRANCH   7   8
ATOM      8  C   UNK A   1      -3.211   0.203   0.000  0.00  0.00    +0.000 C 
ATOM      9  N   UNK A   1      -3.214   1.028   0.000  0.00  0.00    +0.000 NA
BRANCH   8  10
ATOM     10  C   UNK A   1      -3.929  -0.211   0.000  0.00  0.00    +0.000 C 
ATOM     11  O   UNK A   1      -4.647   0.199   0.000  0.00  0.00    +0.000 OA
ATOM     12  O   UNK A   1      -3.932  -1.036   0.000  0.00  0.00    +0.000 OA
ENDBRANCH   8  10
ENDBRANCH   7   8
ENDBRANCH   6   7
ENDBRANCH   5   6
ENDBRANCH   2   5
ENDBRANCH   1   4
BRANCH   1  13
ATOM     13  C   UNK A   1       1.789  -0.206   0.000  0.00  0.00    +0.000 C 
ATOM     14  N   VAL A   2       2.503   0.206   0.000  0.00  0.00    +0.000 NA
ATOM     15  O   UNK A   1       1.789  -1.031   0.000  0.00  0.00    +0.000 OA
BRANCH  14  16
ATOM     16  CA  VAL A   2       3.218  -0.206   0.000  0.00  0.00    +0.000 C 
BRANCH  16  17
ATOM     17  CB  VAL A   2       3.218  -1.031   0.000  0.00  0.00    +0.000 C 
ATOM     18  CG1 VAL A   2       3.932  -1.444   0.000  0.00  0.00    +0.000 C 
ATOM     19  CG2 VAL A   2       2.503  -1.444   0.000  0.00  0.00    +0.000 C 
ENDBRANCH  16  17
BRANCH  16  20
ATOM     20  C   VAL A   2       3.932   0.206   0.000  0.00  0.00    +0.000 C 
ATOM     21  O   VAL A   2       4.647  -0.206   0.000  0.00  0.00    +0.000 OA
ATOM     22  OXT VAL A   2       3.932   1.031   0.000  0.00  0.00    +0.000 OA
ENDBRANCH  16  20
ENDBRANCH  14  16
ENDBRANCH   1  13
BRANCH   1  24
ATOM     23  S   UNK A   1       0.360   1.444   0.000  0.00  0.00    +0.000 S 
ATOM     24  C   UNK A   1       1.074   1.031   0.000  0.00  0.00    +0.000 C 
ENDBRANCH   1  24
TORSDOF 11
