REMARK  Name = 
REMARK  8 active torsions:
REMARK  status: ('A' for Active; 'I' for Inactive)
REMARK    1  A    between atoms: C_1  and  N_2
REMARK    2  A    between atoms: N_2  and  C_3
REMARK    3  A    between atoms: C_3  and  C_4
REMARK    4  A    between atoms: C_4  and  C_5
REMARK    5  A    between atoms: C_5  and  O_6
REMARK    6  A    between atoms: O_6  and  C_7
REMARK    7  A    between atoms: C_10  and  N_17
REMARK    8  A    between atoms: N_20  and  C_21
REMARK                            x       y       z     vdW  Elec       q    Type
REMARK                         _______ _______ _______ _____ _____    ______ ____
ROOT
ATOM      1  C   UNL     1       0.005   0.619   0.000  0.00  0.00    +0.000 A 
ATOM      2  C   UNL     1       0.001  -0.206   0.000  0.00  0.00    +0.000 A 
ATOM      3  C   UNL     1       0.714  -0.619   0.000  0.00  0.00    +0.000 A 
ATOM      4  C   UNL     1       1.429  -0.207   0.000  0.00  0.00    +0.000 A 
ATOM      5  C   UNL     1       1.427   0.621   0.000  0.00  0.00    +0.000 A 
ATOM      6  C   UNL     1       0.714   1.030   0.000  0.00  0.00    +0.000 A 
ENDROOT
BRANCH   4   7
ATOM      7  N   UNL     1       2.140  -0.619   0.000  0.00  0.00    +0.000 NA
ATOM      8  C   UNL     1       2.136  -1.445   0.000  0.00  0.00    +0.000 C 
ATOM      9  O   UNL     1       1.419  -1.854   0.000  0.00  0.00    +0.000 OA
ATOM     10  N   UNL     1       2.849  -1.858   0.000  0.00  0.00    +0.000 NA
BRANCH  10  11
ATOM     11  C   UNL     1       3.562  -1.441   0.000  0.00  0.00    +0.000 C 
ATOM     12  C   UNL     1       4.280  -1.852   0.000  0.00  0.00    +0.000 C 
ATOM     13  C   UNL     1       4.991  -1.439   0.000  0.00  0.00    +0.000 C 
ATOM     14  C   UNL     1       4.991  -0.612   0.000  0.00  0.00    +0.000 C 
ATOM     15  C   UNL     1       4.273  -0.201   0.000  0.00  0.00    +0.000 C 
ATOM     16  C   UNL     1       3.556  -0.616   0.000  0.00  0.00    +0.000 C 
ENDBRANCH  10  11
ENDBRANCH   4   7
BRANCH   1  17
ATOM     17  O   UNL     1      -0.708   1.032   0.000  0.00  0.00    +0.000 OA
BRANCH  17  18
ATOM     18  C   UNL     1      -1.421   0.619   0.000  0.00  0.00    +0.000 C 
BRANCH  18  19
ATOM     19  C   UNL     1      -2.134   1.032   0.000  0.00  0.00    +0.000 C 
ATOM     20  O   UNL     1      -2.139   1.858   0.000  0.00  0.00    +0.000 OA
BRANCH  19  21
ATOM     21  C   UNL     1      -2.848   0.619   0.000  0.00  0.00    +0.000 C 
BRANCH  21  22
ATOM     22  N   UNL     1      -3.561   1.032   0.000  0.00  0.00    +0.000 NA
BRANCH  22  23
ATOM     23  C   UNL     1      -4.274   0.619   0.000  0.00  0.00    +0.000 C 
ATOM     24  C   UNL     1      -4.684   1.338   0.000  0.00  0.00    +0.000 C 
ATOM     25  C   UNL     1      -3.865  -0.098   0.000  0.00  0.00    +0.000 C 
ATOM     26  C   UNL     1      -4.991   0.210   0.000  0.00  0.00    +0.000 C 
ENDBRANCH  22  23
ENDBRANCH  21  22
ENDBRANCH  19  21
ENDBRANCH  18  19
ENDBRANCH  17  18
ENDBRANCH   1  17
TORSDOF 8
