REMARK  Name = 
REMARK  11 active torsions:
REMARK  status: ('A' for Active; 'I' for Inactive)
REMARK    1  A    between atoms: C_1  and  N_4
REMARK    2  A    between atoms: C_5  and  C_11
REMARK    3  A    between atoms: C_7  and  C_12
REMARK    4  A    between atoms: C_9  and  C_13
REMARK    5  A    between atoms: C_13  and  C_20
REMARK    6  A    between atoms: C_20  and  C_22
REMARK    7  A    between atoms: C_22  and  C_23
REMARK    8  A    between atoms: C_23  and  C_24
REMARK    9  A    between atoms: N_25  and  C_27
REMARK   10  A    between atoms: C_30  and  C_35
REMARK   11  A    between atoms: C_32  and  C_36
REMARK                            x       y       z     vdW  Elec       q    Type
REMARK                         _______ _______ _______ _____ _____    ______ ____
ROOT
ATOM      1  C   UNL     1      -0.343  -0.197   0.000  0.00  0.00    +0.000 C 
ENDROOT
BRANCH   1   2
ATOM      2  C   UNL     1      -1.049  -0.615   0.000  0.00  0.00    +0.000 C 
BRANCH   2   4
ATOM      3  N   UNL     1      -2.503  -0.627   0.000  0.00  0.00    +0.000 NA
ATOM      4  C   UNL     1      -1.780  -0.201   0.000  0.00  0.00    +0.000 C 
ATOM      5  O   UNL     1      -1.796   0.583   0.000  0.00  0.00    +0.000 OA
BRANCH   3   6
ATOM      6  C   UNL     1      -3.229  -0.217   0.000  0.00  0.00    +0.000 A 
ATOM      7  C   UNL     1      -3.229   0.583   0.000  0.00  0.00    +0.000 A 
ATOM      8  C   UNL     1      -3.936  -0.643   0.000  0.00  0.00    +0.000 A 
ATOM      9  C   UNL     1      -3.936   0.997   0.000  0.00  0.00    +0.000 A 
ATOM     10  I   UNL     1      -2.503   0.997   0.000  0.00  0.00    +0.000 I 
ATOM     11  C   UNL     1      -4.679  -0.229   0.000  0.00  0.00    +0.000 A 
ATOM     12  I   UNL     1      -3.920  -1.476   0.000  0.00  0.00    +0.000 I 
ATOM     13  C   UNL     1      -4.679   0.550   0.000  0.00  0.00    +0.000 A 
ATOM     14  I   UNL     1      -5.385   0.960   0.000  0.00  0.00    +0.000 I 
BRANCH   9  15
ATOM     15  C   UNL     1      -3.944   1.829   0.000  0.00  0.00    +0.000 C 
ATOM     16  N   UNL     1      -3.237   2.255   0.000  0.00  0.00    +0.000 NA
ATOM     17  O   UNL     1      -4.679   2.219   0.000  0.00  0.00    +0.000 OA
ATOM     18  C   UNL     1      -3.237   3.079   0.000  0.00  0.00    +0.000 C 
ENDBRANCH   9  15
BRANCH  11  19
ATOM     19  C   UNL     1      -5.373  -0.651   0.000  0.00  0.00    +0.000 C 
ATOM     20  O   UNL     1      -6.107  -0.217   0.000  0.00  0.00    +0.000 OA
ATOM     21  O   UNL     1      -5.356  -1.492   0.000  0.00  0.00    +0.000 OA
ENDBRANCH  11  19
ENDBRANCH   3   6
ENDBRANCH   2   4
ENDBRANCH   1   2
BRANCH   1  22
ATOM     22  C   UNL     1       0.339  -0.615   0.000  0.00  0.00    +0.000 C 
BRANCH  22  23
ATOM     23  C   UNL     1       1.045  -0.197   0.000  0.00  0.00    +0.000 C 
BRANCH  23  24
ATOM     24  C   UNL     1       1.752  -0.607   0.000  0.00  0.00    +0.000 C 
ATOM     25  N   UNL     1       2.482  -0.181   0.000  0.00  0.00    +0.000 NA
ATOM     26  O   UNL     1       1.752  -1.439   0.000  0.00  0.00    +0.000 OA
BRANCH  25  27
ATOM     27  C   UNL     1       3.209  -0.595   0.000  0.00  0.00    +0.000 A 
ATOM     28  C   UNL     1       3.928  -0.156   0.000  0.00  0.00    +0.000 A 
ATOM     29  C   UNL     1       3.221  -1.407   0.000  0.00  0.00    +0.000 A 
ATOM     30  C   UNL     1       4.674  -0.595   0.000  0.00  0.00    +0.000 A 
ATOM     31  I   UNL     1       3.928   0.627   0.000  0.00  0.00    +0.000 I 
ATOM     32  C   UNL     1       3.928  -1.829   0.000  0.00  0.00    +0.000 A 
ATOM     33  I   UNL     1       2.503  -1.849   0.000  0.00  0.00    +0.000 I 
ATOM     34  C   UNL     1       4.658  -1.431   0.000  0.00  0.00    +0.000 A 
ATOM     35  I   UNL     1       5.381  -1.821   0.000  0.00  0.00    +0.000 I 
BRANCH  30  36
ATOM     36  C   UNL     1       5.365  -0.156   0.000  0.00  0.00    +0.000 C 
ATOM     37  N   UNL     1       5.357   0.607   0.000  0.00  0.00    +0.000 NA
ATOM     38  O   UNL     1       6.107  -0.583   0.000  0.00  0.00    +0.000 OA
ATOM     39  C   UNL     1       6.087   1.041   0.000  0.00  0.00    +0.000 C 
ENDBRANCH  30  36
BRANCH  32  40
ATOM     40  C   UNL     1       3.944  -2.669   0.000  0.00  0.00    +0.000 C 
ATOM     41  O   UNL     1       3.237  -3.079   0.000  0.00  0.00    +0.000 OA
ATOM     42  O   UNL     1       4.674  -3.079   0.000  0.00  0.00    +0.000 OA
ENDBRANCH  32  40
ENDBRANCH  25  27
ENDBRANCH  23  24
ENDBRANCH  22  23
ENDBRANCH   1  22
TORSDOF 11
