REMARK  Name = 
REMARK  12 active torsions:
REMARK  status: ('A' for Active; 'I' for Inactive)
REMARK    1  A    between atoms: C_9  and  C_12
REMARK    2  A    between atoms: C_9  and  C_13
REMARK    3  A    between atoms: C_10  and  C_14
REMARK    4  A    between atoms: C_10  and  C_15
REMARK    5  A    between atoms: C_11  and  C_16
REMARK    6  A    between atoms: C_11  and  C_18
REMARK    7  A    between atoms: C_12  and  C_20
REMARK    8  A    between atoms: C_13  and  C_21
REMARK    9  A    between atoms: C_14  and  C_21
REMARK   10  A    between atoms: C_15  and  C_22
REMARK   11  A    between atoms: C_16  and  C_22
REMARK   12  A    between atoms: C_18  and  C_29
REMARK                            x       y       z     vdW  Elec       q    Type
REMARK                         _______ _______ _______ _____ _____    ______ ____
ROOT
ATOM      1  C   UNL     1       2.163  -0.481   0.000  0.00  0.00    +0.000 C 
ENDROOT
BRANCH   1  14
ATOM      2  C   UNL     1       5.349   1.719   0.000  0.00  0.00    +0.000 C 
ATOM      3  C   UNL     1       3.724   1.432   0.000  0.00  0.00    +0.000 C 
ATOM      4  C   UNL     1       5.846  -1.096   0.000  0.00  0.00    +0.000 C 
ATOM      5  C   UNL     1       2.348  -1.526   0.000  0.00  0.00    +0.000 C 
ATOM      6  C   UNL     1       4.221  -1.382   0.000  0.00  0.00    +0.000 C 
ATOM      7  C   UNL     1       3.408  -1.526   0.000  0.00  0.00    +0.000 C 
ATOM      8  C   UNL     1       5.067   0.943   0.000  0.00  0.00    +0.000 A 
ATOM      9  C   UNL     1       4.255   0.800   0.000  0.00  0.00    +0.000 A 
ATOM     10  C   UNL     1       5.315  -0.464   0.000  0.00  0.00    +0.000 A 
ATOM     11  C   UNL     1       4.503  -0.607   0.000  0.00  0.00    +0.000 A 
ATOM     12  C   UNL     1       5.598   0.311   0.000  0.00  0.00    +0.000 A 
ATOM     13  C   UNL     1       3.973   0.025   0.000  0.00  0.00    +0.000 A 
ATOM     14  C   UNL     1       2.878  -0.894   0.000  0.00  0.00    +0.000 C 
ATOM     15  O   UNL     1       6.410   0.455   0.000  0.00  0.00    +0.000 OA
ATOM     16  O   UNL     1       3.160  -0.118   0.000  0.00  0.00    +0.000 OA
ENDBRANCH   1  14
BRANCH   1  17
ATOM     17  C   UNL     1       1.449  -0.894   0.000  0.00  0.00    +0.000 C 
BRANCH  17  18
ATOM     18  C   UNL     1       0.735  -0.481   0.000  0.00  0.00    +0.000 C 
BRANCH  18  20
ATOM     19  C   UNL     1       0.020  -1.719   0.000  0.00  0.00    +0.000 C 
ATOM     20  C   UNL     1       0.020  -0.894   0.000  0.00  0.00    +0.000 C 
BRANCH  20  21
ATOM     21  C   UNL     1      -0.694  -0.481   0.000  0.00  0.00    +0.000 C 
BRANCH  21  22
ATOM     22  C   UNL     1      -1.409  -0.894   0.000  0.00  0.00    +0.000 C 
BRANCH  22  23
ATOM     23  C   UNL     1      -2.123  -0.481   0.000  0.00  0.00    +0.000 C 
BRANCH  23  25
ATOM     24  C   UNL     1      -2.838  -1.719   0.000  0.00  0.00    +0.000 C 
ATOM     25  C   UNL     1      -2.838  -0.894   0.000  0.00  0.00    +0.000 C 
BRANCH  25  26
ATOM     26  C   UNL     1      -3.552  -0.481   0.000  0.00  0.00    +0.000 C 
BRANCH  26  27
ATOM     27  C   UNL     1      -4.267  -0.894   0.000  0.00  0.00    +0.000 C 
BRANCH  27  28
ATOM     28  C   UNL     1      -4.981  -0.481   0.000  0.00  0.00    +0.000 C 
BRANCH  28  31
ATOM     29  C   UNL     1      -6.410  -0.481   0.000  0.00  0.00    +0.000 C 
ATOM     30  C   UNL     1      -5.696  -1.719   0.000  0.00  0.00    +0.000 C 
ATOM     31  C   UNL     1      -5.696  -0.894   0.000  0.00  0.00    +0.000 C 
ENDBRANCH  28  31
ENDBRANCH  27  28
ENDBRANCH  26  27
ENDBRANCH  25  26
ENDBRANCH  23  25
ENDBRANCH  22  23
ENDBRANCH  21  22
ENDBRANCH  20  21
ENDBRANCH  18  20
ENDBRANCH  17  18
ENDBRANCH   1  17
TORSDOF 12
