REMARK  Name = 
REMARK  1 active torsions:
REMARK  status: ('A' for Active; 'I' for Inactive)
REMARK    1  A    between atoms: N_10  and  C_25
REMARK                            x       y       z     vdW  Elec       q    Type
REMARK                         _______ _______ _______ _____ _____    ______ ____
ROOT
ATOM      1  N   UNL     1       0.492   0.824   0.000  0.00  0.00    +0.000 NA
ATOM      2  C   UNL     1       0.977   0.156   0.000  0.00  0.00    +0.000 A 
ATOM      3  C   UNL     1       0.492  -0.511   0.000  0.00  0.00    +0.000 A 
ATOM      4  C   UNL     1      -0.293  -0.256   0.000  0.00  0.00    +0.000 A 
ATOM      5  C   UNL     1      -1.008  -0.669   0.000  0.00  0.00    +0.000 A 
ATOM      6  C   UNL     1      -1.722  -0.256   0.000  0.00  0.00    +0.000 A 
ATOM      7  C   UNL     1      -1.722   0.569   0.000  0.00  0.00    +0.000 A 
ATOM      8  C   UNL     1      -1.008   0.981   0.000  0.00  0.00    +0.000 A 
ATOM      9  C   UNL     1      -0.293   0.569   0.000  0.00  0.00    +0.000 A 
ATOM     10  N   UNL     1      -2.507  -0.511   0.000  0.00  0.00    +0.000 N 
ATOM     11  C   UNL     1      -2.507   0.824   0.000  0.00  0.00    +0.000 C 
ATOM     12  C   UNL     1      -2.991   0.156   0.000  0.00  0.00    +0.000 C 
ATOM     13  C   UNL     1       0.711  -1.306   0.000  0.00  0.00    +0.000 C 
ATOM     14  C   UNL     1       1.470  -1.631   0.000  0.00  0.00    +0.000 C 
ATOM     15  C   UNL     1       2.196  -1.240   0.000  0.00  0.00    +0.000 C 
ATOM     16  C   UNL     1       2.344  -0.428   0.000  0.00  0.00    +0.000 A 
ATOM     17  C   UNL     1       1.801   0.193   0.000  0.00  0.00    +0.000 A 
ATOM     18  N   UNL     1       3.028   0.718   0.000  0.00  0.00    +0.000 NA
ATOM     19  N   UNL     1       2.224   0.901   0.000  0.00  0.00    +0.000 NA
ATOM     20  C   UNL     1       3.102  -0.104   0.000  0.00  0.00    +0.000 A 
ATOM     21  O   UNL     1      -3.817   0.156   0.000  0.00  0.00    +0.000 OA
ATOM     22  C   UNL     1      -3.120   1.376   0.000  0.00  0.00    +0.000 C 
ATOM     23  C   UNL     1      -2.335   1.631   0.000  0.00  0.00    +0.000 C 
ATOM     24  C   UNL     1       3.817  -0.516   0.000  0.00  0.00    +0.000 C 
ENDROOT
BRANCH  10  25
ATOM     25  C   UNL     1      -2.762  -1.296   0.000  0.00  0.00    +0.000 C 
ATOM     26  C   UNL     1      -3.568  -1.467   0.000  0.00  0.00    +0.000 C 
ENDBRANCH  10  25
TORSDOF 1
