REMARK  Name = 
REMARK  7 active torsions:
REMARK  status: ('A' for Active; 'I' for Inactive)
REMARK    1  A    between atoms: S_2  and  C_34
REMARK    2  A    between atoms: C_6  and  C_22
REMARK    3  A    between atoms: C_14  and  C_15
REMARK    4  A    between atoms: N_23  and  CA_25
REMARK    5  A    between atoms: CA_25  and  C_26
REMARK    6  A    between atoms: CA_25  and  C_27
REMARK    7  A    between atoms: C_26  and  C_30
REMARK                            x       y       z     vdW  Elec       q    Type
REMARK                         _______ _______ _______ _____ _____    ______ ____
ROOT
ATOM      1  C   UNL     1       0.639  -2.361   0.000  0.00  0.00    +0.000 A 
ATOM      2  C   UNL     1       1.355  -1.948   0.000  0.00  0.00    +0.000 A 
ATOM      3  C   UNL     1       1.352  -1.117   0.000  0.00  0.00    +0.000 A 
ATOM      4  C   UNL     1       0.637  -0.708   0.000  0.00  0.00    +0.000 A 
ATOM      5  C   UNL     1      -0.076  -1.948   0.000  0.00  0.00    +0.000 A 
ATOM      6  C   UNL     1      -0.076  -1.121   0.000  0.00  0.00    +0.000 A 
ATOM      7  C   UNL     1      -0.789  -0.710   0.000  0.00  0.00    +0.000 C 
ATOM      8  C   UNL     1      -1.506  -1.122   0.000  0.00  0.00    +0.000 C 
ATOM      9  N   UNL     1      -1.506  -1.949   0.000  0.00  0.00    +0.000 N 
ATOM     10  C   UNL     1      -0.788  -2.365   0.000  0.00  0.00    +0.000 C 
ATOM     11  C   UNL     1      -2.220  -2.361   0.000  0.00  0.00    +0.000 C 
ATOM     12  O   UNL     1      -2.221  -3.186   0.000  0.00  0.00    +0.000 OA
ATOM     13 CL   UNL     1       0.635   0.117   0.000  0.00  0.00    +0.000 Cl
ATOM     14 CL   UNL     1       2.070  -2.359   0.000  0.00  0.00    +0.000 Cl
ENDROOT
BRANCH  11  15
ATOM     15  C   UNL     1      -2.935  -1.948   0.000  0.00  0.00    +0.000 A 
ATOM     16  C   UNL     1      -2.930  -1.125   0.000  0.00  0.00    +0.000 A 
ATOM     17  C   UNL     1      -3.644  -0.712   0.000  0.00  0.00    +0.000 A 
ATOM     18  C   UNL     1      -3.643  -2.362   0.000  0.00  0.00    +0.000 A 
ATOM     19  C   UNL     1      -4.357  -1.953   0.000  0.00  0.00    +0.000 A 
ATOM     20  C   UNL     1      -4.363  -1.121   0.000  0.00  0.00    +0.000 A 
ATOM     21  C   UNL     1      -5.156  -0.869   0.000  0.00  0.00    +0.000 A 
ATOM     22  C   UNL     1      -5.641  -1.546   0.000  0.00  0.00    +0.000 A 
ATOM     23  O   UNL     1      -5.147  -2.216   0.000  0.00  0.00    +0.000 OA
ENDBRANCH  11  15
BRANCH   3  24
ATOM     24  C   UNL     1       2.065  -0.702   0.000  0.00  0.00    +0.000 C 
ATOM     25  N   UNL     1       2.781  -1.112   0.000  0.00  0.00    +0.000 NA
ATOM     26  O   UNL     1       2.062   0.123   0.000  0.00  0.00    +0.000 OA
BRANCH  25  27
ATOM     27  CA  UNL     1       3.494  -0.697   0.000  0.00  0.00    +0.000 C 
BRANCH  27  28
ATOM     28  C   UNL     1       4.210  -1.107   0.000  0.00  0.00    +0.000 C 
ATOM     29  O   UNL     1       4.213  -1.932   0.000  0.00  0.00    +0.000 OA
ATOM     30  OXT UNL     1       4.923  -0.692   0.000  0.00  0.00    +0.000 OA
ENDBRANCH  27  28
BRANCH  27  31
ATOM     31  C   UNL     1       3.497   0.129   0.000  0.00  0.00    +0.000 C 
BRANCH  31  32
ATOM     32  C   UNL     1       4.212   0.540   0.000  0.00  0.00    +0.000 A 
ATOM     33  C   UNL     1       4.922   0.121   0.000  0.00  0.00    +0.000 A 
ATOM     34  C   UNL     1       5.638   0.530   0.000  0.00  0.00    +0.000 A 
ATOM     35  C   UNL     1       5.641   1.356   0.000  0.00  0.00    +0.000 A 
ATOM     36  C   UNL     1       4.922   1.771   0.000  0.00  0.00    +0.000 A 
ATOM     37  C   UNL     1       4.210   1.359   0.000  0.00  0.00    +0.000 A 
BRANCH  36  39
ATOM     38  O   UNL     1       4.118   2.387   0.000  0.00  0.00    +0.000 OA
ATOM     39  S   UNL     1       4.918   2.600   0.000  0.00  0.00    +0.000 S 
ATOM     40  O   UNL     1       4.334   3.186   0.000  0.00  0.00    +0.000 OA
ATOM     41  C   UNL     1       5.636   3.009   0.000  0.00  0.00    +0.000 C 
ENDBRANCH  36  39
ENDBRANCH  31  32
ENDBRANCH  27  31
ENDBRANCH  25  27
ENDBRANCH   3  24
TORSDOF 7
