REMARK  Name = 
REMARK  2 active torsions:
REMARK  status: ('A' for Active; 'I' for Inactive)
REMARK    1  A    between atoms: N_6  and  C_7
REMARK    2  A    between atoms: C_7  and  C_8
REMARK                            x       y       z     vdW  Elec       q    Type
REMARK                         _______ _______ _______ _____ _____    ______ ____
ROOT
ATOM      1  C   UNL     1       4.361   1.217   0.000  0.00  0.00    +0.000 C 
ATOM      2  C   UNL     1       3.660   0.782   0.000  0.00  0.00    +0.000 A 
ATOM      3  N   UNL     1       3.599  -0.041   0.000  0.00  0.00    +0.000 NA
ATOM      4  C   UNL     1       2.798  -0.237   0.000  0.00  0.00    +0.000 A 
ATOM      5  C   UNL     1       2.364   0.464   0.000  0.00  0.00    +0.000 A 
ATOM      6  N   UNL     1       2.896   1.094   0.000  0.00  0.00    +0.000 N 
ATOM      7  C   UNL     1       1.539   0.438   0.000  0.00  0.00    +0.000 A 
ATOM      8  C   UNL     1       1.149  -0.289   0.000  0.00  0.00    +0.000 A 
ATOM      9  C   UNL     1       0.325  -0.315   0.000  0.00  0.00    +0.000 A 
ATOM     10  C   UNL     1      -0.110   0.387   0.000  0.00  0.00    +0.000 A 
ATOM     11  C   UNL     1       0.280   1.114   0.000  0.00  0.00    +0.000 A 
ATOM     12  N   UNL     1       1.105   1.139   0.000  0.00  0.00    +0.000 NA
ATOM     13  N   UNL     1       1.584  -0.990   0.000  0.00  0.00    +0.000 NA
ATOM     14  C   UNL     1       2.408  -0.964   0.000  0.00  0.00    +0.000 A 
ATOM     15  N   UNL     1       2.843  -1.665   0.000  0.00  0.00    +0.000 NA
ENDROOT
BRANCH   6  16
ATOM     16  C   UNL     1       2.700   1.895   0.000  0.00  0.00    +0.000 C 
BRANCH  16  17
ATOM     17  C   UNL     1       3.295   2.466   0.000  0.00  0.00    +0.000 C 
ATOM     18  C   UNL     1       3.099   3.267   0.000  0.00  0.00    +0.000 C 
ATOM     19  C   UNL     1       4.087   2.236   0.000  0.00  0.00    +0.000 C 
ENDBRANCH  16  17
ENDBRANCH   6  16
TORSDOF 2
