REMARK  Name = 
REMARK  5 active torsions:
REMARK  status: ('A' for Active; 'I' for Inactive)
REMARK    1  A    between atoms: C_6  and  C_7
REMARK    2  A    between atoms: C_9  and  C_16
REMARK    3  A    between atoms: C_10  and  N_11
REMARK    4  A    between atoms: C_10  and  C_16
REMARK    5  A    between atoms: N_11  and  C_14
REMARK                            x       y       z     vdW  Elec       q    Type
REMARK                         _______ _______ _______ _____ _____    ______ ____
ROOT
ATOM      1  C   UNL     1      -1.113   0.412   0.000  0.00  0.00    +0.000 A 
ATOM      2  C   UNL     1      -1.113  -1.238   0.000  0.00  0.00    +0.000 A 
ATOM      3  C   UNL     1      -0.398  -0.825   0.000  0.00  0.00    +0.000 A 
ATOM      4  C   UNL     1      -1.827  -0.825   0.000  0.00  0.00    +0.000 A 
ATOM      5  O   UNL     1      -2.542  -1.238   0.000  0.00  0.00    +0.000 OA
ATOM      6  C   UNL     1      -1.827   0.000   0.000  0.00  0.00    +0.000 A 
ATOM      7  C   UNL     1      -0.398   0.000   0.000  0.00  0.00    +0.000 A 
ENDROOT
BRANCH   6   8
ATOM      8  C   UNL     1      -2.542   0.412   0.000  0.00  0.00    +0.000 C 
ATOM      9  O   UNL     1      -3.256   0.000   0.000  0.00  0.00    +0.000 OA
ENDBRANCH   6   8
BRANCH   7  10
ATOM     10  C   UNL     1       0.316   0.412   0.000  0.00  0.00    +0.000 C 
ATOM     11  O   UNL     1       0.316   1.238   0.000  0.00  0.00    +0.000 OA
BRANCH  10  12
ATOM     12  C   UNL     1       1.030   0.000   0.000  0.00  0.00    +0.000 C 
BRANCH  12  13
ATOM     13  N   UNL     1       1.745   0.412   0.000  0.00  0.00    +0.000 NA
BRANCH  13  16
ATOM     14  C   UNL     1       3.043   0.583   0.000  0.00  0.00    +0.000 C 
ATOM     15  C   UNL     1       2.673  -0.797   0.000  0.00  0.00    +0.000 C 
ATOM     16  C   UNL     1       2.459   0.000   0.000  0.00  0.00    +0.000 C 
ATOM     17  C   UNL     1       3.256  -0.213   0.000  0.00  0.00    +0.000 C 
ENDBRANCH  13  16
ENDBRANCH  12  13
ENDBRANCH  10  12
ENDBRANCH   7  10
TORSDOF 5
