REMARK  Name = 
REMARK  8 active torsions:
REMARK  status: ('A' for Active; 'I' for Inactive)
REMARK    1  A    between atoms: C_2  and  C_4
REMARK    2  A    between atoms: C_7  and  S_10
REMARK    3  A    between atoms: S_10  and  N_13
REMARK    4  A    between atoms: N_13  and  C_14
REMARK    5  A    between atoms: C_14  and  C_15
REMARK    6  A    between atoms: C_18  and  O_19
REMARK    7  A    between atoms: O_19  and  C_20
REMARK    8  A    between atoms: C_35  and  C_36
REMARK                            x       y       z     vdW  Elec       q    Type
REMARK                         _______ _______ _______ _____ _____    ______ ____
ROOT
ATOM      1  N   UNL     1       0.000  -1.650   0.000  0.00  0.00    +0.000 N 
ATOM      2  C   UNL     1       0.715  -1.238   0.000  0.00  0.00    +0.000 A 
ATOM      3  N   UNL     1       0.715  -0.412   0.000  0.00  0.00    +0.000 NA
ATOM      4  C   UNL     1       1.429   0.000   0.000  0.00  0.00    +0.000 A 
ATOM      5  C   UNL     1       2.143  -0.412   0.000  0.00  0.00    +0.000 A 
ATOM      6  C   UNL     1       2.858   0.000   0.000  0.00  0.00    +0.000 A 
ATOM      7  C   UNL     1       3.572  -0.412   0.000  0.00  0.00    +0.000 A 
ATOM      8  C   UNL     1       3.572  -1.238   0.000  0.00  0.00    +0.000 A 
ATOM      9  C   UNL     1       2.858  -1.650   0.000  0.00  0.00    +0.000 A 
ATOM     10  C   UNL     1       2.143  -1.238   0.000  0.00  0.00    +0.000 A 
ATOM     11  C   UNL     1       1.429  -1.650   0.000  0.00  0.00    +0.000 A 
ENDROOT
BRANCH  11  12
ATOM     12  C   UNL     1       1.429  -2.475   0.000  0.00  0.00    +0.000 C 
ATOM     13  C   UNL     1       1.841  -3.189   0.000  0.00  0.00    +0.000 C 
ATOM     14  C   UNL     1       1.016  -3.189   0.000  0.00  0.00    +0.000 C 
ENDBRANCH  11  12
BRANCH   1  15
ATOM     15  S   UNL     1       0.000  -2.475   0.000  0.00  0.00    +0.000 S 
ATOM     16  O   UNL     1       0.825  -2.475   0.000  0.00  0.00    +0.000 OA
ATOM     17  O   UNL     1      -0.825  -2.475   0.000  0.00  0.00    +0.000 OA
BRANCH  15  21
ATOM     18  C   UNL     1       0.000  -4.950   0.000  0.00  0.00    +0.000 A 
ATOM     19  C   UNL     1      -0.715  -4.537   0.000  0.00  0.00    +0.000 A 
ATOM     20  C   UNL     1      -0.715  -3.712   0.000  0.00  0.00    +0.000 A 
ATOM     21  C   UNL     1       0.000  -3.300   0.000  0.00  0.00    +0.000 A 
ATOM     22  C   UNL     1       0.715  -3.712   0.000  0.00  0.00    +0.000 A 
ATOM     23  C   UNL     1       0.715  -4.537   0.000  0.00  0.00    +0.000 A 
BRANCH  18  25
ATOM     24  O   UNL     1       0.715  -6.188   0.000  0.00  0.00    +0.000 OA
ATOM     25  C   UNL     1       0.000  -5.775   0.000  0.00  0.00    +0.000 C 
ATOM     26  O   UNL     1      -0.715  -6.188   0.000  0.00  0.00    +0.000 OA
ENDBRANCH  18  25
ENDBRANCH  15  21
ENDBRANCH   1  15
BRANCH   1  27
ATOM     27  C   UNL     1      -0.715  -1.238   0.000  0.00  0.00    +0.000 C 
BRANCH  27  28
ATOM     28  C   UNL     1      -0.715  -0.412   0.000  0.00  0.00    +0.000 A 
ATOM     29  C   UNL     1      -1.429   0.000   0.000  0.00  0.00    +0.000 A 
ATOM     30  C   UNL     1      -1.429   0.825   0.000  0.00  0.00    +0.000 A 
ATOM     31  C   UNL     1      -0.715   1.238   0.000  0.00  0.00    +0.000 A 
ATOM     32  C   UNL     1       0.000   0.825   0.000  0.00  0.00    +0.000 A 
ATOM     33  C   UNL     1       0.000   0.000   0.000  0.00  0.00    +0.000 A 
BRANCH  31  34
ATOM     34  O   UNL     1      -0.715   2.062   0.000  0.00  0.00    +0.000 OA
BRANCH  34  35
ATOM     35  C   UNL     1      -1.429   2.475   0.000  0.00  0.00    +0.000 C 
ATOM     36  F   UNL     1      -2.143   2.888   0.000  0.00  0.00    +0.000 F 
ATOM     37  F   UNL     1      -1.016   3.189   0.000  0.00  0.00    +0.000 F 
ATOM     38  F   UNL     1      -1.841   1.760   0.000  0.00  0.00    +0.000 F 
ENDBRANCH  34  35
ENDBRANCH  31  34
ENDBRANCH  27  28
ENDBRANCH   1  27
TORSDOF 8
