REMARK  Name = 
REMARK  8 active torsions:
REMARK  status: ('A' for Active; 'I' for Inactive)
REMARK    1  A    between atoms: O_2  and  C_3
REMARK    2  A    between atoms: C_3  and  C_4
REMARK    3  A    between atoms: C_4  and  C_5
REMARK    4  A    between atoms: C_5  and  N_6
REMARK    5  A    between atoms: N_11  and  C_14
REMARK    6  A    between atoms: C_18  and  C_20
REMARK    7  A    between atoms: N_22  and  C_23
REMARK    8  A    between atoms: C_23  and  C_24
REMARK                            x       y       z     vdW  Elec       q    Type
REMARK                         _______ _______ _______ _____ _____    ______ ____
ROOT
ATOM      1  C   UNL     1       8.153  -7.204   0.000  0.00  0.00    +0.000 A 
ATOM      2  C   UNL     1       8.868  -6.792   0.000  0.00  0.00    +0.000 A 
ATOM      3  C   UNL     1       9.582  -7.204   0.000  0.00  0.00    +0.000 A 
ATOM      4  C   UNL     1       9.582  -8.029   0.000  0.00  0.00    +0.000 A 
ATOM      5  C   UNL     1       8.868  -8.442   0.000  0.00  0.00    +0.000 A 
ATOM      6  C   UNL     1       8.153  -8.029   0.000  0.00  0.00    +0.000 A 
ATOM      7 CL   UNL     1      10.297  -8.442   0.000  0.00  0.00    +0.000 Cl
ENDROOT
BRANCH   1  13
ATOM      8  N   UNL     1       6.010  -6.792   0.000  0.00  0.00    +0.000 N 
ATOM      9  C   UNL     1       6.010  -5.967   0.000  0.00  0.00    +0.000 A 
ATOM     10  O   UNL     1       5.295  -5.554   0.000  0.00  0.00    +0.000 OA
ATOM     11  C   UNL     1       6.724  -5.554   0.000  0.00  0.00    +0.000 A 
ATOM     12  N   UNL     1       7.439  -5.967   0.000  0.00  0.00    +0.000 NA
ATOM     13  N   UNL     1       7.439  -6.792   0.000  0.00  0.00    +0.000 N 
ATOM     14  C   UNL     1       6.724  -7.204   0.000  0.00  0.00    +0.000 A 
ATOM     15  O   UNL     1       6.724  -8.029   0.000  0.00  0.00    +0.000 OA
BRANCH   8  16
ATOM     16  C   UNL     1       5.295  -7.204   0.000  0.00  0.00    +0.000 C 
BRANCH  16  17
ATOM     17  C   UNL     1       4.581  -6.792   0.000  0.00  0.00    +0.000 C 
ATOM     18  O   UNL     1       4.581  -5.967   0.000  0.00  0.00    +0.000 OA
BRANCH  17  19
ATOM     19  C   UNL     1       3.867  -7.204   0.000  0.00  0.00    +0.000 C 
BRANCH  19  21
ATOM     20  C   UNL     1       2.438  -7.204   0.000  0.00  0.00    +0.000 C 
ATOM     21  O   UNL     1       3.152  -6.792   0.000  0.00  0.00    +0.000 OA
ENDBRANCH  19  21
ENDBRANCH  17  19
ENDBRANCH  16  17
ENDBRANCH   8  16
ENDBRANCH   1  13
BRANCH   5  22
ATOM     22  C   UNL     1       8.868  -9.267   0.000  0.00  0.00    +0.000 C 
ATOM     23  O   UNL     1       8.153  -9.679   0.000  0.00  0.00    +0.000 OA
ATOM     24  N   UNL     1       9.582  -9.679   0.000  0.00  0.00    +0.000 NA
BRANCH  24  25
ATOM     25  C   UNL     1       9.582 -10.504   0.000  0.00  0.00    +0.000 C 
BRANCH  25  26
ATOM     26  C   UNL     1      10.297 -10.917   0.000  0.00  0.00    +0.000 C 
ATOM     27  C   UNL     1      11.120 -10.978   0.000  0.00  0.00    +0.000 C 
ATOM     28  C   UNL     1      11.584 -11.660   0.000  0.00  0.00    +0.000 C 
ATOM     29  C   UNL     1      11.341 -12.448   0.000  0.00  0.00    +0.000 C 
ATOM     30  C   UNL     1      10.573 -12.750   0.000  0.00  0.00    +0.000 C 
ATOM     31  C   UNL     1       9.859 -12.337   0.000  0.00  0.00    +0.000 C 
ATOM     32  C   UNL     1       9.736 -11.521   0.000  0.00  0.00    +0.000 C 
ATOM     33  O   UNL     1      10.540 -10.128   0.000  0.00  0.00    +0.000 OA
ENDBRANCH  25  26
ENDBRANCH  24  25
ENDBRANCH   5  22
TORSDOF 8
