REMARK  Name = 
REMARK  7 active torsions:
REMARK  status: ('A' for Active; 'I' for Inactive)
REMARK    1  A    between atoms: C_3  and  O_7
REMARK    2  A    between atoms: C_4  and  O_8
REMARK    3  A    between atoms: C_5  and  O_7
REMARK    4  A    between atoms: C_5  and  S_11
REMARK    5  A    between atoms: C_6  and  O_8
REMARK    6  A    between atoms: C_6  and  S_12
REMARK    7  A    between atoms: S_11  and  S_12
REMARK                            x       y       z     vdW  Elec       q    Type
REMARK                         _______ _______ _______ _____ _____    ______ ____
ROOT
ATOM      1  S   UNL     1       3.491  -0.715   0.000  0.00  0.00    +0.000 S 
ENDROOT
BRANCH   1   2
ATOM      2  C   UNL     1       2.777  -0.302   0.000  0.00  0.00    +0.000 C 
ATOM      3  S   UNL     1       2.777   0.523   0.000  0.00  0.00    +0.000 S 
BRANCH   2   4
ATOM      4  O   UNL     1       2.062  -0.715   0.000  0.00  0.00    +0.000 OA
BRANCH   4   6
ATOM      5  C   UNL     1       0.634  -0.715   0.000  0.00  0.00    +0.000 C 
ATOM      6  C   UNL     1       1.348  -0.302   0.000  0.00  0.00    +0.000 C 
ENDBRANCH   4   6
ENDBRANCH   2   4
ENDBRANCH   1   2
BRANCH   1   7
ATOM      7  S   UNL     1       4.206  -0.302   0.000  0.00  0.00    +0.000 S 
BRANCH   7   8
ATOM      8  C   UNL     1       4.920  -0.715   0.000  0.00  0.00    +0.000 C 
ATOM      9  S   UNL     1       4.920  -1.540   0.000  0.00  0.00    +0.000 S 
BRANCH   8  10
ATOM     10  O   UNL     1       5.635  -0.302   0.000  0.00  0.00    +0.000 OA
BRANCH  10  12
ATOM     11  C   UNL     1       7.064  -0.302   0.000  0.00  0.00    +0.000 C 
ATOM     12  C   UNL     1       6.349  -0.715   0.000  0.00  0.00    +0.000 C 
ENDBRANCH  10  12
ENDBRANCH   8  10
ENDBRANCH   7   8
ENDBRANCH   1   7
TORSDOF 7
