REMARK  Name = 
REMARK  7 active torsions:
REMARK  status: ('A' for Active; 'I' for Inactive)
REMARK    1  A    between atoms: CA_2  and  C_3
REMARK    2  A    between atoms: CA_2  and  C_12
REMARK    3  A    between atoms: C_3  and  C_4
REMARK    4  A    between atoms: C_4  and  C_5
REMARK    5  A    between atoms: C_4  and  C_9
REMARK    6  A    between atoms: C_5  and  C_6
REMARK    7  A    between atoms: C_6  and  C_7
REMARK                            x       y       z     vdW  Elec       q    Type
REMARK                         _______ _______ _______ _____ _____    ______ ____
ROOT
ATOM      1  C   UNL     1       5.856   2.556   0.000  0.00  0.00    +0.000 C 
ENDROOT
BRANCH   1   2
ATOM      2  C   UNL     1       5.856   3.381   0.000  0.00  0.00    +0.000 C 
ATOM      3  O   UNL     1       5.141   3.793   0.000  0.00  0.00    +0.000 OA
ATOM      4  O   UNL     1       6.570   3.793   0.000  0.00  0.00    +0.000 OA
ENDBRANCH   1   2
BRANCH   1   5
ATOM      5  C   UNL     1       5.141   2.143   0.000  0.00  0.00    +0.000 C 
BRANCH   5   6
ATOM      6  C   UNL     1       4.427   2.556   0.000  0.00  0.00    +0.000 C 
BRANCH   6   7
ATOM      7  C   UNL     1       3.712   2.143   0.000  0.00  0.00    +0.000 C 
ATOM      8  F   UNL     1       2.998   2.556   0.000  0.00  0.00    +0.000 F 
ENDBRANCH   6   7
ENDBRANCH   5   6
ENDBRANCH   1   5
BRANCH   1   9
ATOM      9  C   UNL     1       6.570   2.143   0.000  0.00  0.00    +0.000 C 
BRANCH   9  11
ATOM     10  N   UNL     1       7.285   3.381   0.000  0.00  0.00    +0.000 NA
ATOM     11  CA  UNL     1       7.285   2.556   0.000  0.00  0.00    +0.000 C 
BRANCH  11  12
ATOM     12  C   UNL     1       7.999   2.143   0.000  0.00  0.00    +0.000 C 
ATOM     13  O   UNL     1       8.714   2.556   0.000  0.00  0.00    +0.000 OA
ATOM     14  OXT UNL     1       7.999   1.318   0.000  0.00  0.00    +0.000 OA
ENDBRANCH  11  12
ENDBRANCH   9  11
ENDBRANCH   1   9
TORSDOF 7
