REMARK  Name = 
REMARK  16 active torsions:
REMARK  status: ('A' for Active; 'I' for Inactive)
REMARK    1  A    between atoms: C_1  and  C_7
REMARK    2  A    between atoms: C_3  and  C_6
REMARK    3  A    between atoms: C_9  and  N_73
REMARK    4  A    between atoms: C_16  and  O_19
REMARK    5  A    between atoms: O_19  and  C_37
REMARK    6  A    between atoms: C_23  and  N_75
REMARK    7  A    between atoms: C_31  and  O_33
REMARK    8  A    between atoms: O_33  and  C_36
REMARK    9  A    between atoms: C_40  and  O_56
REMARK   10  A    between atoms: C_41  and  O_48
REMARK   11  A    between atoms: C_45  and  O_70
REMARK   12  A    between atoms: C_46  and  O_62
REMARK   13  A    between atoms: O_48  and  C_49
REMARK   14  A    between atoms: C_49  and  C_50
REMARK   15  A    between atoms: O_62  and  C_63
REMARK   16  A    between atoms: C_63  and  C_65
REMARK                            x       y       z     vdW  Elec       q    Type
REMARK                         _______ _______ _______ _____ _____    ______ ____
ROOT
ATOM      1  C   UNL     1      -0.660   2.528   0.000  0.00  0.00    +0.000 A 
ATOM      2  C   UNL     1       0.007   2.038   0.000  0.00  0.00    +0.000 A 
ATOM      3  C   UNL     1       0.678   2.521   0.000  0.00  0.00    +0.000 A 
ATOM      4  C   UNL     1       0.426   3.308   0.000  0.00  0.00    +0.000 A 
ATOM      5  C   UNL     1       0.004   1.215   0.000  0.00  0.00    +0.000 C 
ATOM      6  N   UNL     1      -0.399   3.310   0.000  0.00  0.00    +0.000 NA
ENDROOT
BRANCH   3   7
ATOM      7  C   UNL     1       1.390   2.106   0.000  0.00  0.00    +0.000 C 
ATOM      8  O   UNL     1       1.391   1.282   0.000  0.00  0.00    +0.000 OA
ATOM      9  N   UNL     1       2.107   2.514   0.000  0.00  0.00    +0.000 NA
BRANCH   9  10
ATOM     10  C   UNL     1       2.822   2.103   0.000  0.00  0.00    +0.000 A 
ATOM     11  C   UNL     1       2.823   1.279   0.000  0.00  0.00    +0.000 A 
ATOM     12  O   UNL     1       3.535   0.864   0.000  0.00  0.00    +0.000 OA
ATOM     13  C   UNL     1       3.538   2.512   0.000  0.00  0.00    +0.000 A 
ATOM     14  C   UNL     1       4.254   2.102   0.000  0.00  0.00    +0.000 A 
ATOM     15  C   UNL     1       4.251   1.274   0.000  0.00  0.00    +0.000 A 
ATOM     16  C   UNL     1       4.963   0.859   0.000  0.00  0.00    +0.000 A 
ATOM     17  C   UNL     1       5.678   1.273   0.000  0.00  0.00    +0.000 A 
ATOM     18  C   UNL     1       5.682   2.097   0.000  0.00  0.00    +0.000 A 
ATOM     19  C   UNL     1       4.970   2.512   0.000  0.00  0.00    +0.000 A 
ATOM     20  C   UNL     1       4.964   0.035   0.000  0.00  0.00    +0.000 C 
ATOM     21  O   UNL     1       2.108   0.865   0.000  0.00  0.00    +0.000 OA
ATOM     22  O   UNL     1       3.541   3.335   0.000  0.00  0.00    +0.000 OA
BRANCH  17  23
ATOM     23  O   UNL     1       6.395   0.859   0.000  0.00  0.00    +0.000 OA
BRANCH  23  24
ATOM     24  C   UNL     1       6.391   0.035   0.000  0.00  0.00    +0.000 C 
ATOM     25  O   UNL     1       5.676  -0.379   0.000  0.00  0.00    +0.000 OA
ATOM     26  C   UNL     1       5.677  -1.203   0.000  0.00  0.00    +0.000 C 
ATOM     27  C   UNL     1       6.389  -1.617   0.000  0.00  0.00    +0.000 C 
ATOM     28  C   UNL     1       7.104  -1.204   0.000  0.00  0.00    +0.000 C 
ATOM     29  C   UNL     1       7.108  -0.379   0.000  0.00  0.00    +0.000 C 
ATOM     30  C   UNL     1       4.866  -1.058   0.000  0.00  0.00    +0.000 C 
ATOM     31  C   UNL     1       5.392  -1.979   0.000  0.00  0.00    +0.000 C 
ATOM     32  O   UNL     1       7.823   0.024   0.000  0.00  0.00    +0.000 OA
BRANCH  27  33
ATOM     33  O   UNL     1       6.390  -2.441   0.000  0.00  0.00    +0.000 OA
ATOM     34  C   UNL     1       7.102  -2.856   0.000  0.00  0.00    +0.000 C 
ENDBRANCH  27  33
BRANCH  28  35
ATOM     35  O   UNL     1       7.821  -1.618   0.000  0.00  0.00    +0.000 OA
BRANCH  35  36
ATOM     36  C   UNL     1       8.536  -1.208   0.000  0.00  0.00    +0.000 C 
ATOM     37  O   UNL     1       8.535  -0.380   0.000  0.00  0.00    +0.000 OA
BRANCH  36  38
ATOM     38  C   UNL     1       9.248  -1.623   0.000  0.00  0.00    +0.000 A 
ATOM     39  C   UNL     1      10.000  -1.285   0.000  0.00  0.00    +0.000 A 
ATOM     40  C   UNL     1      10.552  -1.902   0.000  0.00  0.00    +0.000 A 
ATOM     41  C   UNL     1      10.138  -2.614   0.000  0.00  0.00    +0.000 A 
ATOM     42  C   UNL     1      10.472  -3.370   0.000  0.00  0.00    +0.000 C 
ATOM     43  N   UNL     1       9.330  -2.444   0.000  0.00  0.00    +0.000 NA
ENDBRANCH  36  38
ENDBRANCH  35  36
ENDBRANCH  28  35
ENDBRANCH  23  24
ENDBRANCH  17  23
ENDBRANCH   9  10
ENDBRANCH   3   7
BRANCH   1  44
ATOM     44  C   UNL     1      -1.374   2.120   0.000  0.00  0.00    +0.000 C 
ATOM     45  O   UNL     1      -1.375   1.294   0.000  0.00  0.00    +0.000 OA
ATOM     46  N   UNL     1      -2.086   2.535   0.000  0.00  0.00    +0.000 NA
BRANCH  46  47
ATOM     47  C   UNL     1      -2.805   2.131   0.000  0.00  0.00    +0.000 A 
ATOM     48  C   UNL     1      -2.809   1.309   0.000  0.00  0.00    +0.000 A 
ATOM     49  O   UNL     1      -4.236   2.138   0.000  0.00  0.00    +0.000 OA
ATOM     50  C   UNL     1      -3.518   2.548   0.000  0.00  0.00    +0.000 A 
ATOM     51  C   UNL     1      -4.237   1.312   0.000  0.00  0.00    +0.000 A 
ATOM     52  C   UNL     1      -3.527   0.898   0.000  0.00  0.00    +0.000 A 
ATOM     53  C   UNL     1      -3.528   0.072   0.000  0.00  0.00    +0.000 A 
ATOM     54  C   UNL     1      -4.246  -0.338   0.000  0.00  0.00    +0.000 A 
ATOM     55  C   UNL     1      -4.958   0.080   0.000  0.00  0.00    +0.000 A 
ATOM     56  C   UNL     1      -4.955   0.902   0.000  0.00  0.00    +0.000 A 
ATOM     57  C   UNL     1      -5.667   1.319   0.000  0.00  0.00    +0.000 C 
ATOM     58  O   UNL     1      -3.514   3.370   0.000  0.00  0.00    +0.000 OA
ATOM     59  O   UNL     1      -2.092   0.883   0.000  0.00  0.00    +0.000 OA
BRANCH  55  60
ATOM     60  O   UNL     1      -5.676  -0.331   0.000  0.00  0.00    +0.000 OA
BRANCH  60  61
ATOM     61  C   UNL     1      -6.386   0.083   0.000  0.00  0.00    +0.000 C 
ATOM     62  O   UNL     1      -6.385   0.909   0.000  0.00  0.00    +0.000 OA
ATOM     63  C   UNL     1      -7.095   1.323   0.000  0.00  0.00    +0.000 C 
ATOM     64  C   UNL     1      -7.813   0.912   0.000  0.00  0.00    +0.000 C 
ATOM     65  C   UNL     1      -7.817   0.090   0.000  0.00  0.00    +0.000 C 
ATOM     66  C   UNL     1      -7.104  -0.327   0.000  0.00  0.00    +0.000 C 
ATOM     67  C   UNL     1      -6.563   1.956   0.000  0.00  0.00    +0.000 C 
ATOM     68  C   UNL     1      -7.623   1.960   0.000  0.00  0.00    +0.000 C 
ATOM     69  O   UNL     1      -7.104  -1.153   0.000  0.00  0.00    +0.000 OA
BRANCH  64  70
ATOM     70  O   UNL     1      -8.525   1.330   0.000  0.00  0.00    +0.000 OA
ATOM     71  C   UNL     1      -9.242   0.920   0.000  0.00  0.00    +0.000 C 
ENDBRANCH  64  70
BRANCH  65  72
ATOM     72  O   UNL     1      -8.533  -0.319   0.000  0.00  0.00    +0.000 OA
BRANCH  72  73
ATOM     73  C   UNL     1      -8.535  -1.145   0.000  0.00  0.00    +0.000 C 
ATOM     74  O   UNL     1      -7.824  -1.559   0.000  0.00  0.00    +0.000 OA
BRANCH  73  75
ATOM     75  C   UNL     1      -9.252  -1.556   0.000  0.00  0.00    +0.000 A 
ATOM     76  C   UNL     1     -10.002  -1.217   0.000  0.00  0.00    +0.000 A 
ATOM     77  C   UNL     1     -10.552  -1.825   0.000  0.00  0.00    +0.000 A 
ATOM     78  C   UNL     1     -10.144  -2.539   0.000  0.00  0.00    +0.000 A 
ATOM     79  C   UNL     1     -10.487  -3.295   0.000  0.00  0.00    +0.000 C 
ATOM     80  N   UNL     1      -9.335  -2.376   0.000  0.00  0.00    +0.000 NA
ENDBRANCH  73  75
ENDBRANCH  72  73
ENDBRANCH  65  72
ENDBRANCH  60  61
ENDBRANCH  55  60
ENDBRANCH  46  47
ENDBRANCH   1  44
TORSDOF 16
