REMARK  Name = 
REMARK  1 active torsions:
REMARK  status: ('A' for Active; 'I' for Inactive)
REMARK    1  A    between atoms: C_15  and  C_19
REMARK                            x       y       z     vdW  Elec       q    Type
REMARK                         _______ _______ _______ _____ _____    ______ ____
ROOT
ATOM      1  C   UNL     1      -0.690   0.190   0.000  0.00  0.00    +0.000 A 
ATOM      2  C   UNL     1      -0.690  -1.460   0.000  0.00  0.00    +0.000 A 
ATOM      3  C   UNL     1      -1.404  -1.047   0.000  0.00  0.00    +0.000 A 
ATOM      4  C   UNL     1       0.024  -1.047   0.000  0.00  0.00    +0.000 A 
ATOM      5  C   UNL     1       0.024  -0.222   0.000  0.00  0.00    +0.000 A 
ATOM      6  N   UNL     1       0.809  -1.302   0.000  0.00  0.00    +0.000 N 
ATOM      7  N   UNL     1       0.439  -2.682   0.000  0.00  0.00    +0.000 NA
ATOM      8  C   UNL     1       1.023  -2.099   0.000  0.00  0.00    +0.000 C 
ATOM      9  O   UNL     1       1.819  -2.313   0.000  0.00  0.00    +0.000 OA
ATOM     10  C   UNL     1      -1.404  -0.222   0.000  0.00  0.00    +0.000 A 
ATOM     11 CL   UNL     1      -2.119   0.190   0.000  0.00  0.00    +0.000 Cl
ATOM     12  C   UNL     1       1.294  -0.635   0.000  0.00  0.00    +0.000 C 
ATOM     13  O   UNL     1       2.119  -0.635   0.000  0.00  0.00    +0.000 OA
ATOM     14  C   UNL     1       0.809   0.033   0.000  0.00  0.00    +0.000 C 
ATOM     15  C   UNL     1       1.023   0.830   0.000  0.00  0.00    +0.000 C 
ATOM     16  O   UNL     1       1.819   1.043   0.000  0.00  0.00    +0.000 OA
ENDROOT
BRANCH  15  17
ATOM     17  C   UNL     1       0.439   1.413   0.000  0.00  0.00    +0.000 A 
ATOM     18  C   UNL     1       0.027   2.682   0.000  0.00  0.00    +0.000 A 
ATOM     19  C   UNL     1      -0.641   2.197   0.000  0.00  0.00    +0.000 A 
ATOM     20  C   UNL     1      -0.386   1.413   0.000  0.00  0.00    +0.000 A 
ATOM     21  S   UNL     1       0.694   2.197   0.000  0.00  0.00    +0.000 S 
ENDBRANCH  15  17
TORSDOF 1
