REMARK  Name = 
REMARK  8 active torsions:
REMARK  status: ('A' for Active; 'I' for Inactive)
REMARK    1  A    between atoms: C_5  and  C_8
REMARK    2  A    between atoms: C_5  and  C_9
REMARK    3  A    between atoms: C_8  and  C_12
REMARK    4  A    between atoms: C_9  and  C_13
REMARK    5  A    between atoms: C_12  and  C_18
REMARK    6  A    between atoms: C_13  and  C_19
REMARK    7  A    between atoms: C_17  and  C_18
REMARK    8  A    between atoms: C_18  and  C_20
REMARK                            x       y       z     vdW  Elec       q    Type
REMARK                         _______ _______ _______ _____ _____    ______ ____
ROOT
ATOM      1  C   UNL     1       2.143   1.238   0.000  0.00  0.00    +0.000 C 
ENDROOT
BRANCH   1   8
ATOM      2  C   UNL     1      -0.715   2.888   0.000  0.00  0.00    +0.000 C 
ATOM      3  C   UNL     1      -0.715   1.238   0.000  0.00  0.00    +0.000 C 
ATOM      4  C   UNL     1       2.143   2.888   0.000  0.00  0.00    +0.000 C 
ATOM      5  C   UNL     1       0.000   2.475   0.000  0.00  0.00    +0.000 C 
ATOM      6  C   UNL     1       0.000   1.650   0.000  0.00  0.00    +0.000 C 
ATOM      7  C   UNL     1       1.429   2.475   0.000  0.00  0.00    +0.000 C 
ATOM      8  C   UNL     1       1.429   1.650   0.000  0.00  0.00    +0.000 C 
ATOM      9  C   UNL     1       0.715   2.888   0.000  0.00  0.00    +0.000 C 
ATOM     10  C   UNL     1       0.715   1.238   0.000  0.00  0.00    +0.000 C 
ATOM     11  O   UNL     1       0.715   3.712   0.000  0.00  0.00    +0.000 OA
ATOM     12  O   UNL     1       0.715   0.412   0.000  0.00  0.00    +0.000 OA
ENDBRANCH   1   8
BRANCH   1  18
ATOM     13  C   UNL     1       2.143  -1.238   0.000  0.00  0.00    +0.000 A 
ATOM     14  C   UNL     1       2.858  -0.825   0.000  0.00  0.00    +0.000 A 
ATOM     15  C   UNL     1       1.429  -0.825   0.000  0.00  0.00    +0.000 A 
ATOM     16  C   UNL     1       2.858   0.000   0.000  0.00  0.00    +0.000 A 
ATOM     17  C   UNL     1       1.429   0.000   0.000  0.00  0.00    +0.000 A 
ATOM     18  C   UNL     1       2.143   0.412   0.000  0.00  0.00    +0.000 A 
ENDBRANCH   1  18
BRANCH   1  19
ATOM     19  C   UNL     1       2.858   1.650   0.000  0.00  0.00    +0.000 C 
BRANCH  19  20
ATOM     20  C   UNL     1       3.572   1.238   0.000  0.00  0.00    +0.000 C 
BRANCH  20  21
ATOM     21  C   UNL     1       4.287   1.650   0.000  0.00  0.00    +0.000 C 
BRANCH  21  22
ATOM     22  C   UNL     1       5.001   1.238   0.000  0.00  0.00    +0.000 C 
BRANCH  22  23
ATOM     23  C   UNL     1       5.716   1.650   0.000  0.00  0.00    +0.000 C 
BRANCH  23  24
ATOM     24  C   UNL     1       6.430   1.238   0.000  0.00  0.00    +0.000 C 
ATOM     25  O   UNL     1       7.145   1.650   0.000  0.00  0.00    +0.000 OA
ATOM     26  O   UNL     1       6.430   0.412   0.000  0.00  0.00    +0.000 OA
ENDBRANCH  23  24
ENDBRANCH  22  23
ENDBRANCH  21  22
ENDBRANCH  20  21
ENDBRANCH  19  20
ENDBRANCH   1  19
TORSDOF 8
