REMARK  Name = 
REMARK  0 active torsions:
REMARK  status: ('A' for Active; 'I' for Inactive)
REMARK                            x       y       z     vdW  Elec       q    Type
REMARK                         _______ _______ _______ _____ _____    ______ ____
ROOT
ATOM      1 CL   UNL     1      -0.803  -0.007   0.000  0.00  0.00    +0.000 Cl
ATOM      2  O   UNL     1      -0.839   0.825   0.000  0.00  0.00    +0.000 OA
ATOM      3  O   UNL     1      -1.710  -0.007   0.000  0.00  0.00    +0.000 OA
ATOM      4  O   UNL     1      -0.803  -0.825   0.000  0.00  0.00    +0.000 OA
ATOM      5  O   UNL     1       0.004   0.018   0.000  0.00  0.00    +0.000 OA
ENDROOT
TORSDOF 0
REMARK  Name = 
REMARK  0 active torsions:
REMARK  status: ('A' for Active; 'I' for Inactive)
REMARK                            x       y       z     vdW  Elec       q    Type
REMARK                         _______ _______ _______ _____ _____    ______ ____
ROOT
ATOM      1 NA   UNL     1       1.710   0.082   0.000  0.00  0.00    +0.000 Na
ENDROOT
TORSDOF 0
