REMARK  Name = 
REMARK  1 active torsions:
REMARK  status: ('A' for Active; 'I' for Inactive)
REMARK    1  A    between atoms: C_9  and  C_21
REMARK                            x       y       z     vdW  Elec       q    Type
REMARK                         _______ _______ _______ _____ _____    ______ ____
ROOT
ATOM      1  O   UNL     1      -3.237  -1.008   0.000  0.00  0.00    +0.000 OA
ATOM      2  C   UNL     1       1.294   0.532   0.000  0.00  0.00    +0.000 C 
ATOM      3  C   UNL     1      -0.946  -0.519   0.000  0.00  0.00    +0.000 C 
ATOM      4  C   UNL     1      -0.199  -0.169   0.000  0.00  0.00    +0.000 C 
ATOM      5  C   UNL     1       1.225  -0.290   0.000  0.00  0.00    +0.000 C 
ATOM      6  C   UNL     1       0.478  -0.640   0.000  0.00  0.00    +0.000 C 
ATOM      7  C   UNL     1      -1.016  -1.341   0.000  0.00  0.00    +0.000 C 
ATOM      8  C   UNL     1       2.098   0.720   0.000  0.00  0.00    +0.000 C 
ATOM      9  C   UNL     1       0.618   1.004   0.000  0.00  0.00    +0.000 C 
ATOM     10  C   UNL     1      -0.129   0.653   0.000  0.00  0.00    +0.000 C 
ATOM     11  C   UNL     1       0.408  -1.462   0.000  0.00  0.00    +0.000 C 
ATOM     12  C   UNL     1       1.985  -0.610   0.000  0.00  0.00    +0.000 C 
ATOM     13  C   UNL     1      -1.623  -0.047   0.000  0.00  0.00    +0.000 C 
ATOM     14  C   UNL     1      -0.339  -1.812   0.000  0.00  0.00    +0.000 C 
ATOM     15  C   UNL     1       2.525   0.014   0.000  0.00  0.00    +0.000 C 
ATOM     16  C   UNL     1      -1.763  -1.692   0.000  0.00  0.00    +0.000 C 
ATOM     17  C   UNL     1      -2.440  -1.220   0.000  0.00  0.00    +0.000 C 
ATOM     18  C   UNL     1       1.450   1.343   0.000  0.00  0.00    +0.000 C 
ATOM     19  C   UNL     1      -0.876   0.303   0.000  0.00  0.00    +0.000 C 
ATOM     20  C   UNL     1      -2.370  -0.398   0.000  0.00  0.00    +0.000 C 
ATOM     21  C   UNL     1      -2.787  -1.968   0.000  0.00  0.00    +0.000 C 
ENDROOT
BRANCH   8  23
ATOM     22  O   UNL     1       1.921   2.138   0.000  0.00  0.00    +0.000 OA
ATOM     23  C   UNL     1       2.418   1.480   0.000  0.00  0.00    +0.000 C 
ATOM     24  C   UNL     1       3.237   1.583   0.000  0.00  0.00    +0.000 C 
ENDBRANCH   8  23
TORSDOF 1
