REMARK  Name = 
REMARK  18 active torsions:
REMARK  status: ('A' for Active; 'I' for Inactive)
REMARK    1  A    between atoms: N_1  and  C_7
REMARK    2  A    between atoms: N_4  and  C_22
REMARK    3  A    between atoms: C_7  and  C_8
REMARK    4  A    between atoms: C_8  and  C_9
REMARK    5  A    between atoms: C_9  and  N_10
REMARK    6  A    between atoms: C_11  and  C_12
REMARK    7  A    between atoms: C_12  and  C_15
REMARK    8  A    between atoms: C_15  and  C_16
REMARK    9  A    between atoms: C_16  and  C_17
REMARK   10  A    between atoms: C_17  and  N_18
REMARK   11  A    between atoms: C_22  and  C_23
REMARK   12  A    between atoms: C_23  and  C_24
REMARK   13  A    between atoms: C_24  and  N_25
REMARK   14  A    between atoms: C_26  and  C_27
REMARK   15  A    between atoms: C_27  and  C_30
REMARK   16  A    between atoms: C_30  and  C_31
REMARK   17  A    between atoms: C_31  and  C_32
REMARK   18  A    between atoms: C_32  and  N_33
REMARK                            x       y       z     vdW  Elec       q    Type
REMARK                         _______ _______ _______ _____ _____    ______ ____
ROOT
ATOM      1  N   UNL     1       0.714   0.412   0.000  0.00  0.00    +0.000 NA
ATOM      2  C   UNL     1       0.000   0.825   0.000  0.00  0.00    +0.000 C 
ATOM      3  C   UNL     1      -0.714   0.412   0.000  0.00  0.00    +0.000 C 
ATOM      4  N   UNL     1      -0.715  -0.412   0.000  0.00  0.00    +0.000 NA
ATOM      5  C   UNL     1       0.000  -0.825   0.000  0.00  0.00    +0.000 C 
ATOM      6  C   UNL     1       0.714  -0.412   0.000  0.00  0.00    +0.000 C 
ENDROOT
BRANCH   1   7
ATOM      7  C   UNL     1       1.429   0.825   0.000  0.00  0.00    +0.000 C 
BRANCH   7   8
ATOM      8  C   UNL     1       2.143   0.412   0.000  0.00  0.00    +0.000 C 
BRANCH   8   9
ATOM      9  C   UNL     1       2.858   0.825   0.000  0.00  0.00    +0.000 C 
BRANCH   9  10
ATOM     10  N   UNL     1       3.572   0.412   0.000  0.00  0.00    +0.000 NA
ATOM     11  C   UNL     1       4.287   0.825   0.000  0.00  0.00    +0.000 C 
ATOM     12  O   UNL     1       4.287   1.650   0.000  0.00  0.00    +0.000 OA
BRANCH  11  13
ATOM     13  C   UNL     1       5.001   0.412   0.000  0.00  0.00    +0.000 C 
ATOM     14  N   UNL     1       5.716   0.825   0.000  0.00  0.00    +0.000 NA
BRANCH  13  15
ATOM     15  C   UNL     1       5.001  -0.412   0.000  0.00  0.00    +0.000 C 
BRANCH  15  16
ATOM     16  C   UNL     1       5.716  -0.825   0.000  0.00  0.00    +0.000 C 
BRANCH  16  17
ATOM     17  C   UNL     1       5.716  -1.650   0.000  0.00  0.00    +0.000 C 
BRANCH  17  18
ATOM     18  N   UNL     1       6.430  -2.062   0.000  0.00  0.00    +0.000 NA
ATOM     19  C   UNL     1       6.430  -2.888   0.000  0.00  0.00    +0.000 C 
ATOM     20  N   UNL     1       7.145  -3.300   0.000  0.00  0.00    +0.000 NA
ATOM     21  N   UNL     1       5.716  -3.300   0.000  0.00  0.00    +0.000 NA
ENDBRANCH  17  18
ENDBRANCH  16  17
ENDBRANCH  15  16
ENDBRANCH  13  15
ENDBRANCH  11  13
ENDBRANCH   9  10
ENDBRANCH   8   9
ENDBRANCH   7   8
ENDBRANCH   1   7
BRANCH   4  22
ATOM     22  C   UNL     1      -1.429  -0.825   0.000  0.00  0.00    +0.000 C 
BRANCH  22  23
ATOM     23  C   UNL     1      -2.143  -0.412   0.000  0.00  0.00    +0.000 C 
BRANCH  23  24
ATOM     24  C   UNL     1      -2.858  -0.825   0.000  0.00  0.00    +0.000 C 
BRANCH  24  25
ATOM     25  N   UNL     1      -3.572  -0.412   0.000  0.00  0.00    +0.000 NA
ATOM     26  C   UNL     1      -4.287  -0.825   0.000  0.00  0.00    +0.000 C 
ATOM     27  O   UNL     1      -4.287  -1.650   0.000  0.00  0.00    +0.000 OA
BRANCH  26  28
ATOM     28  C   UNL     1      -5.001  -0.412   0.000  0.00  0.00    +0.000 C 
ATOM     29  N   UNL     1      -5.716  -0.825   0.000  0.00  0.00    +0.000 NA
BRANCH  28  30
ATOM     30  C   UNL     1      -5.001   0.412   0.000  0.00  0.00    +0.000 C 
BRANCH  30  31
ATOM     31  C   UNL     1      -5.716   0.825   0.000  0.00  0.00    +0.000 C 
BRANCH  31  32
ATOM     32  C   UNL     1      -5.716   1.650   0.000  0.00  0.00    +0.000 C 
BRANCH  32  33
ATOM     33  N   UNL     1      -6.430   2.062   0.000  0.00  0.00    +0.000 NA
ATOM     34  C   UNL     1      -6.430   2.887   0.000  0.00  0.00    +0.000 C 
ATOM     35  N   UNL     1      -7.145   3.300   0.000  0.00  0.00    +0.000 NA
ATOM     36  N   UNL     1      -5.716   3.300   0.000  0.00  0.00    +0.000 NA
ENDBRANCH  32  33
ENDBRANCH  31  32
ENDBRANCH  30  31
ENDBRANCH  28  30
ENDBRANCH  26  28
ENDBRANCH  24  25
ENDBRANCH  23  24
ENDBRANCH  22  23
ENDBRANCH   4  22
TORSDOF 18
