REMARK  Name = 
REMARK  4 active torsions:
REMARK  status: ('A' for Active; 'I' for Inactive)
REMARK    1  A    between atoms: C_6  and  C_7
REMARK    2  A    between atoms: C_7  and  C_8
REMARK    3  A    between atoms: C_14  and  C_16
REMARK    4  A    between atoms: N_18  and  C_19
REMARK                            x       y       z     vdW  Elec       q    Type
REMARK                         _______ _______ _______ _____ _____    ______ ____
ROOT
ATOM      1  C   UNL     1       4.781   6.060   0.000  0.00  0.00    +0.000 C 
ATOM      2  C   UNL     1       5.496   5.648   0.000  0.00  0.00    +0.000 C 
ATOM      3  C   UNL     1       5.496   4.823   0.000  0.00  0.00    +0.000 C 
ATOM      4  N   UNL     1       4.781   4.410   0.000  0.00  0.00    +0.000 N 
ATOM      5  C   UNL     1       4.067   4.823   0.000  0.00  0.00    +0.000 C 
ATOM      6  C   UNL     1       4.067   5.648   0.000  0.00  0.00    +0.000 C 
ATOM      7  C   UNL     1       4.781   3.585   0.000  0.00  0.00    +0.000 C 
ATOM      8  O   UNL     1       5.496   3.173   0.000  0.00  0.00    +0.000 OA
ENDROOT
BRANCH   7   9
ATOM      9  C   UNL     1       4.067   3.173   0.000  0.00  0.00    +0.000 C 
ATOM     10  O   UNL     1       3.352   3.585   0.000  0.00  0.00    +0.000 OA
ATOM     11  N   UNL     1       4.067   2.348   0.000  0.00  0.00    +0.000 NA
BRANCH  11  12
ATOM     12  C   UNL     1       3.352   1.935   0.000  0.00  0.00    +0.000 A 
ATOM     13  C   UNL     1       3.352   1.110   0.000  0.00  0.00    +0.000 A 
ATOM     14  C   UNL     1       2.638   0.698   0.000  0.00  0.00    +0.000 A 
ATOM     15  C   UNL     1       1.923   1.110   0.000  0.00  0.00    +0.000 A 
ATOM     16  C   UNL     1       1.923   1.935   0.000  0.00  0.00    +0.000 A 
ATOM     17  C   UNL     1       2.638   2.348   0.000  0.00  0.00    +0.000 A 
ATOM     18  O   UNL     1       1.139   2.190   0.000  0.00  0.00    +0.000 OA
ATOM     19  C   UNL     1       0.654   1.523   0.000  0.00  0.00    +0.000 A 
ATOM     20  O   UNL     1      -0.171   1.523   0.000  0.00  0.00    +0.000 OA
ATOM     21  N   UNL     1       1.139   0.856   0.000  0.00  0.00    +0.000 NA
ENDBRANCH  11  12
ENDBRANCH   7   9
BRANCH   1  22
ATOM     22  C   UNL     1       4.781   6.885   0.000  0.00  0.00    +0.000 C 
BRANCH  22  28
ATOM     23  C   UNL     1       5.496   8.123   0.000  0.00  0.00    +0.000 A 
ATOM     24  C   UNL     1       6.210   8.535   0.000  0.00  0.00    +0.000 A 
ATOM     25  C   UNL     1       6.925   8.123   0.000  0.00  0.00    +0.000 A 
ATOM     26  C   UNL     1       6.925   7.298   0.000  0.00  0.00    +0.000 A 
ATOM     27  C   UNL     1       6.210   6.885   0.000  0.00  0.00    +0.000 A 
ATOM     28  C   UNL     1       5.496   7.298   0.000  0.00  0.00    +0.000 A 
ATOM     29  F   UNL     1       7.639   8.535   0.000  0.00  0.00    +0.000 F 
ENDBRANCH  22  28
ENDBRANCH   1  22
TORSDOF 4
