REMARK  Name = 
REMARK  25 active torsions:
REMARK  status: ('A' for Active; 'I' for Inactive)
REMARK    1  A    between atoms: N_12  and  CA_29
REMARK    2  A    between atoms: N_13  and  CA_35
REMARK    3  A    between atoms: N_14  and  CA_32
REMARK    4  A    between atoms: N_16  and  CA_37
REMARK    5  A    between atoms: N_17  and  CA_42
REMARK    6  A    between atoms: N_19  and  CA_49
REMARK    7  A    between atoms: NE_20  and  CD_58
REMARK    8  A    between atoms: N_21  and  C_63
REMARK    9  A    between atoms: CA_24  and  C_30
REMARK   10  A    between atoms: C_28  and  CA_29
REMARK   11  A    between atoms: CA_29  and  CB_31
REMARK   12  A    between atoms: CB_31  and  CG_36
REMARK   13  A    between atoms: CA_32  and  C_33
REMARK   14  A    between atoms: CA_32  and  CB_34
REMARK   15  A    between atoms: CA_35  and  C_44
REMARK   16  A    between atoms: CA_37  and  C_41
REMARK   17  A    between atoms: CA_37  and  CB_46
REMARK   18  A    between atoms: CA_42  and  CB_45
REMARK   19  A    between atoms: CA_42  and  C_47
REMARK   20  A    between atoms: CB_46  and  CG_50
REMARK   21  A    between atoms: CA_49  and  C_53
REMARK   22  A    between atoms: CA_49  and  CB_54
REMARK   23  A    between atoms: CB_54  and  CG_55
REMARK   24  A    between atoms: CG_55  and  CD_58
REMARK   25  A    between atoms: C_61  and  C_63
REMARK                            x       y       z     vdW  Elec       q    Type
REMARK                         _______ _______ _______ _____ _____    ______ ____
ROOT
ATOM      1  CA  ARG A   1      -1.491  -2.133   0.000  0.00  0.00    +0.000 C 
ENDROOT
BRANCH   1   3
ATOM      2  O   ARG A   1      -0.061  -1.308   0.000  0.00  0.00    +0.000 OA
ATOM      3  N   ARG A   1      -0.776  -2.546   0.000  0.00  0.00    +0.000 N 
ATOM      4  C   ARG A   1      -0.061  -2.133   0.000  0.00  0.00    +0.000 C 
ATOM      5  H   ARG A   1      -0.776  -3.057   0.000  0.00  0.00    +0.000 HD
BRANCH   4   6
ATOM      6  CA  ARG A   1       0.653  -2.546   0.000  0.00  0.00    +0.000 C 
BRANCH   6   8
ATOM      7  O   ARG A   1       2.082  -3.371   0.000  0.00  0.00    +0.000 OA
ATOM      8  N   ARG A   1       1.367  -2.133   0.000  0.00  0.00    +0.000 N 
ATOM      9  C   ARG A   1       2.082  -2.546   0.000  0.00  0.00    +0.000 C 
ATOM     10  H   ARG A   1       1.367  -1.621   0.000  0.00  0.00    +0.000 HD
BRANCH   9  11
ATOM     11  CA  ARG A   1       2.796  -2.133   0.000  0.00  0.00    +0.000 C 
BRANCH  11  13
ATOM     12  O   UNK A   0       4.225  -1.308   0.000  0.00  0.00    +0.000 OA
ATOM     13  N   ARG A   1       3.511  -2.546   0.000  0.00  0.00    +0.000 N 
ATOM     14  C   UNK A   0       4.225  -2.133   0.000  0.00  0.00    +0.000 C 
ATOM     15  H   ARG A   1       3.511  -3.057   0.000  0.00  0.00    +0.000 HD
BRANCH  14  16
ATOM     16  C   UNK A   0       4.940  -2.546   0.000  0.00  0.00    +0.000 C 
BRANCH  16  17
ATOM     17  N   UNK A   0       5.654  -2.133   0.000  0.00  0.00    +0.000 NA
ATOM     18  C   UNK A   0       6.369  -2.546   0.000  0.00  0.00    +0.000 C 
ATOM     19  H   UNK A   0       5.654  -1.621   0.000  0.00  0.00    +0.000 HD
ENDBRANCH  16  17
ENDBRANCH  14  16
ENDBRANCH  11  13
BRANCH  11  20
ATOM     20  CB  ARG A   1       2.796  -1.308   0.000  0.00  0.00    +0.000 C 
BRANCH  20  21
ATOM     21  CG  ARG A   1       3.511  -0.895   0.000  0.00  0.00    +0.000 C 
BRANCH  21  22
ATOM     22  CD  ARG A   1       3.511  -0.070   0.000  0.00  0.00    +0.000 C 
BRANCH  22  23
ATOM     23  NE  ARG A   1       4.225   0.342   0.000  0.00  0.00    +0.000 NA
ATOM     24  NH1 ARG A   1       3.511   1.579   0.000  0.00  0.00    +0.000 N 
ATOM     25  NH2 ARG A   1       4.940   1.579   0.000  0.00  0.00    +0.000 N 
ATOM     26  CZ  ARG A   1       4.225   1.167   0.000  0.00  0.00    +0.000 C 
ATOM     27 HH11 ARG A   1       3.068   1.324   0.000  0.00  0.00    +0.000 HD
ATOM     28 HH12 ARG A   1       3.511   2.091   0.000  0.00  0.00    +0.000 HD
ATOM     29 HH21 ARG A   1       5.383   1.324   0.000  0.00  0.00    +0.000 HD
ATOM     30 HH22 ARG A   1       4.940   2.091   0.000  0.00  0.00    +0.000 HD
ENDBRANCH  22  23
ENDBRANCH  21  22
ENDBRANCH  20  21
ENDBRANCH  11  20
ENDBRANCH   9  11
ENDBRANCH   6   8
BRANCH   6  31
ATOM     31  CB  ARG A   1       0.653  -3.371   0.000  0.00  0.00    +0.000 C 
ATOM     32  CG1 ARG A   1      -0.061  -3.783   0.000  0.00  0.00    +0.000 C 
ATOM     33  CG2 ARG A   1       1.367  -3.783   0.000  0.00  0.00    +0.000 C 
ENDBRANCH   6  31
ENDBRANCH   4   6
ENDBRANCH   1   3
BRANCH   1  36
ATOM     34  O   ARG A   1      -0.776  -0.895   0.000  0.00  0.00    +0.000 OA
ATOM     35  N   ARG A   1      -2.205  -0.895   0.000  0.00  0.00    +0.000 N 
ATOM     36  C   ARG A   1      -1.491  -1.308   0.000  0.00  0.00    +0.000 C 
ATOM     37  H   ARG A   1      -2.648  -1.151   0.000  0.00  0.00    +0.000 HD
BRANCH  35  38
ATOM     38  CA  ARG A   1      -2.205  -0.070   0.000  0.00  0.00    +0.000 C 
BRANCH  38  41
ATOM     39  O   ARG A   1      -3.634  -0.070   0.000  0.00  0.00    +0.000 OA
ATOM     40  N   ARG A   1      -2.920   1.167   0.000  0.00  0.00    +0.000 N 
ATOM     41  C   ARG A   1      -2.920   0.342   0.000  0.00  0.00    +0.000 C 
ATOM     42  H   ARG A   1      -2.477   1.423   0.000  0.00  0.00    +0.000 HD
BRANCH  40  43
ATOM     43  CA  ARG A   1      -3.634   1.579   0.000  0.00  0.00    +0.000 C 
BRANCH  43  50
ATOM     44  O   ARG A   1      -4.348   2.817   0.000  0.00  0.00    +0.000 OA
ATOM     45  N   ARG A   1      -2.920   2.817   0.000  0.00  0.00    +0.000 N 
ATOM     46  CA  ARG A   1      -2.833   3.638   0.000  0.00  0.00    +0.000 C 
ATOM     47  CB  ARG A   1      -2.026   3.809   0.000  0.00  0.00    +0.000 C 
ATOM     48  CG  ARG A   1      -1.614   3.095   0.000  0.00  0.00    +0.000 C 
ATOM     49  CD  ARG A   1      -2.166   2.481   0.000  0.00  0.00    +0.000 C 
ATOM     50  C   ARG A   1      -3.634   2.405   0.000  0.00  0.00    +0.000 C 
BRANCH  46  53
ATOM     51  O   ARG A   1      -3.275   4.997   0.000  0.00  0.00    +0.000 OA
ATOM     52  N   ALA A   2      -4.231   3.934   0.000  0.00  0.00    +0.000 N 
ATOM     53  C   ARG A   1      -3.446   4.189   0.000  0.00  0.00    +0.000 C 
ATOM     54  H   ALA A   2      -4.337   3.434   0.000  0.00  0.00    +0.000 HD
BRANCH  52  55
ATOM     55  CA  ALA A   2      -4.844   4.487   0.000  0.00  0.00    +0.000 C 
ATOM     56  CB  ALA A   2      -5.629   4.232   0.000  0.00  0.00    +0.000 C 
BRANCH  55  59
ATOM     57  O   ALA A   2      -5.286   5.846   0.000  0.00  0.00    +0.000 OA
ATOM     58  OXT ALA A   2      -3.888   5.548   0.000  0.00  0.00    +0.000 OA
ATOM     59  C   ALA A   2      -4.673   5.294   0.000  0.00  0.00    +0.000 C 
ENDBRANCH  55  59
ENDBRANCH  52  55
ENDBRANCH  46  53
ENDBRANCH  43  50
BRANCH  43  60
ATOM     60  CB  ARG A   1      -4.348   1.167   0.000  0.00  0.00    +0.000 C 
BRANCH  60  63
ATOM     61  ND1 ARG A   1      -5.817   1.244   0.000  0.00  0.00    +0.000 N 
ATOM     62  NE2 ARG A   1      -5.956   2.571   0.000  0.00  0.00    +0.000 NA
ATOM     63  CG  ARG A   1      -5.063   1.579   0.000  0.00  0.00    +0.000 A 
ATOM     64  CD2 ARG A   1      -5.149   2.400   0.000  0.00  0.00    +0.000 A 
ATOM     65  CE1 ARG A   1      -6.369   1.857   0.000  0.00  0.00    +0.000 A 
ATOM     66  HD1 ARG A   1      -5.923   0.744   0.000  0.00  0.00    +0.000 HD
ENDBRANCH  60  63
ENDBRANCH  43  60
ENDBRANCH  40  43
ENDBRANCH  38  41
BRANCH  38  67
ATOM     67  CB  ARG A   1      -1.491   0.342   0.000  0.00  0.00    +0.000 C 
ATOM     68  CG1 ARG A   1      -1.491   1.167   0.000  0.00  0.00    +0.000 C 
ATOM     69  CG2 ARG A   1      -0.776  -0.070   0.000  0.00  0.00    +0.000 C 
ENDBRANCH  38  67
ENDBRANCH  35  38
ENDBRANCH   1  36
BRANCH   1  70
ATOM     70  CB  ARG A   1      -2.205  -2.546   0.000  0.00  0.00    +0.000 C 
BRANCH  70  72
ATOM     71  OH  ARG A   1      -2.205  -5.846   0.000  0.00  0.00    +0.000 OA
ATOM     72  CG  ARG A   1      -2.205  -3.371   0.000  0.00  0.00    +0.000 A 
ATOM     73  CD1 ARG A   1      -1.491  -3.783   0.000  0.00  0.00    +0.000 A 
ATOM     74  CD2 ARG A   1      -2.920  -3.783   0.000  0.00  0.00    +0.000 A 
ATOM     75  CE1 ARG A   1      -1.491  -4.608   0.000  0.00  0.00    +0.000 A 
ATOM     76  CE2 ARG A   1      -2.920  -4.608   0.000  0.00  0.00    +0.000 A 
ATOM     77  CZ  ARG A   1      -2.205  -5.021   0.000  0.00  0.00    +0.000 A 
ENDBRANCH  70  72
ENDBRANCH   1  70
TORSDOF 25
