REMARK  Name = 
REMARK  5 active torsions:
REMARK  status: ('A' for Active; 'I' for Inactive)
REMARK    1  A    between atoms: C_4  and  C_5
REMARK    2  A    between atoms: C_5  and  N_6
REMARK    3  A    between atoms: C_9  and  C_12
REMARK    4  A    between atoms: C_15  and  C_18
REMARK    5  A    between atoms: N_20  and  C_21
REMARK                            x       y       z     vdW  Elec       q    Type
REMARK                         _______ _______ _______ _____ _____    ______ ____
ROOT
ATOM      1  C   UNL     1       2.306 -12.438   0.000  0.00  0.00    +0.000 A 
ATOM      2  C   UNL     1       2.791 -13.106   0.000  0.00  0.00    +0.000 A 
ATOM      3  C   UNL     1       2.456 -13.859   0.000  0.00  0.00    +0.000 A 
ATOM      4  C   UNL     1       1.635 -13.946   0.000  0.00  0.00    +0.000 A 
ATOM      5  C   UNL     1       1.150 -13.278   0.000  0.00  0.00    +0.000 A 
ATOM      6  C   UNL     1       1.486 -12.524   0.000  0.00  0.00    +0.000 A 
ENDROOT
BRANCH   1  10
ATOM      7  N   UNL     1       3.313 -10.177   0.000  0.00  0.00    +0.000 NA
ATOM      8  C   UNL     1       3.798 -10.845   0.000  0.00  0.00    +0.000 C 
ATOM      9  C   UNL     1       3.462 -11.598   0.000  0.00  0.00    +0.000 C 
ATOM     10  C   UNL     1       2.642 -11.685   0.000  0.00  0.00    +0.000 C 
ATOM     11  C   UNL     1       2.157 -11.017   0.000  0.00  0.00    +0.000 C 
ATOM     12  C   UNL     1       2.493 -10.264   0.000  0.00  0.00    +0.000 C 
BRANCH   7  13
ATOM     13  C   UNL     1       3.649  -9.424   0.000  0.00  0.00    +0.000 C 
BRANCH  13  17
ATOM     14  C   UNL     1       2.751  -6.662   0.000  0.00  0.00    +0.000 C 
ATOM     15  N   UNL     1       2.751  -7.487   0.000  0.00  0.00    +0.000 N 
ATOM     16  C   UNL     1       3.419  -7.971   0.000  0.00  0.00    +0.000 A 
ATOM     17  C   UNL     1       3.164  -8.756   0.000  0.00  0.00    +0.000 A 
ATOM     18  C   UNL     1       2.339  -8.756   0.000  0.00  0.00    +0.000 A 
ATOM     19  C   UNL     1       1.854  -9.424   0.000  0.00  0.00    +0.000 C 
ATOM     20  N   UNL     1       2.084  -7.971   0.000  0.00  0.00    +0.000 NA
ENDBRANCH  13  17
ENDBRANCH   7  13
ENDBRANCH   1  10
BRANCH   4  21
ATOM     21  C   UNL     1       1.300 -14.699   0.000  0.00  0.00    +0.000 C 
ATOM     22  O   UNL     1       0.479 -14.786   0.000  0.00  0.00    +0.000 OA
ATOM     23  N   UNL     1       1.785 -15.367   0.000  0.00  0.00    +0.000 NA
BRANCH  23  24
ATOM     24  C   UNL     1       1.449 -16.120   0.000  0.00  0.00    +0.000 A 
ATOM     25  C   UNL     1       1.934 -16.788   0.000  0.00  0.00    +0.000 A 
ATOM     26  C   UNL     1       1.598 -17.541   0.000  0.00  0.00    +0.000 A 
ATOM     27  C   UNL     1       0.778 -17.628   0.000  0.00  0.00    +0.000 A 
ATOM     28  C   UNL     1       0.293 -16.960   0.000  0.00  0.00    +0.000 A 
ATOM     29  C   UNL     1       0.629 -16.207   0.000  0.00  0.00    +0.000 A 
ATOM     30  N   UNL     1       0.144 -15.539   0.000  0.00  0.00    +0.000 NA
ENDBRANCH  23  24
ENDBRANCH   4  21
TORSDOF 5
