REMARK  Name = 
REMARK  11 active torsions:
REMARK  status: ('A' for Active; 'I' for Inactive)
REMARK    1  A    between atoms: C_1  and  C_2
REMARK    2  A    between atoms: C_3  and  C_8
REMARK    3  A    between atoms: C_4  and  C_10
REMARK    4  A    between atoms: C_6  and  C_25
REMARK    5  A    between atoms: C_8  and  O_15
REMARK    6  A    between atoms: C_10  and  O_18
REMARK    7  A    between atoms: O_15  and  C_21
REMARK    8  A    between atoms: O_18  and  C_22
REMARK    9  A    between atoms: C_26  and  C_27
REMARK   10  A    between atoms: C_27  and  O_28
REMARK   11  A    between atoms: O_28  and  C_30
REMARK                            x       y       z     vdW  Elec       q    Type
REMARK                         _______ _______ _______ _____ _____    ______ ____
ROOT
ATOM      1  C   UNL     1      -0.823   0.686   0.000  0.00  0.00    +0.000 C 
ATOM      2  C   UNL     1      -1.536   1.095   0.000  0.00  0.00    +0.000 C 
ATOM      3  C   UNL     1      -0.111   1.091   0.000  0.00  0.00    +0.000 C 
ATOM      4  C   UNL     1      -1.532   1.920   0.000  0.00  0.00    +0.000 C 
ATOM      5  C   UNL     1      -0.107   1.913   0.000  0.00  0.00    +0.000 C 
ATOM      6  N   UNL     1      -0.820   2.329   0.000  0.00  0.00    +0.000 NA
ATOM      7  C   UNL     1      -2.244   2.333   0.000  0.00  0.00    +0.000 C 
ATOM      8  C   UNL     1       0.605   2.325   0.000  0.00  0.00    +0.000 C 
ENDROOT
BRANCH   1   9
ATOM      9  C   UNL     1      -0.791  -0.686   0.000  0.00  0.00    +0.000 A 
ATOM     10  C   UNL     1      -1.507  -1.095   0.000  0.00  0.00    +0.000 A 
ATOM     11  C   UNL     1      -0.079  -1.102   0.000  0.00  0.00    +0.000 A 
ATOM     12  C   UNL     1      -1.507  -1.920   0.000  0.00  0.00    +0.000 A 
ATOM     13  C   UNL     1      -0.083  -1.920   0.000  0.00  0.00    +0.000 A 
ATOM     14  C   UNL     1      -0.798  -2.333   0.000  0.00  0.00    +0.000 A 
BRANCH  11  15
ATOM     15  C   UNL     1       0.661  -0.679   0.000  0.00  0.00    +0.000 C 
ATOM     16  C   UNL     1       1.378  -1.097   0.000  0.00  0.00    +0.000 C 
BRANCH  16  17
ATOM     17  C   UNL     1       2.100  -0.685   0.000  0.00  0.00    +0.000 C 
ATOM     18  O   UNL     1       2.062   0.168   0.000  0.00  0.00    +0.000 OA
BRANCH  17  19
ATOM     19  O   UNL     1       2.811  -1.100   0.000  0.00  0.00    +0.000 OA
BRANCH  19  20
ATOM     20  C   UNL     1       3.536  -0.686   0.000  0.00  0.00    +0.000 C 
ATOM     21  C   UNL     1       4.385  -0.189   0.000  0.00  0.00    +0.000 C 
ATOM     22  C   UNL     1       3.945  -1.403   0.000  0.00  0.00    +0.000 C 
ATOM     23  C   UNL     1       3.108   0.062   0.000  0.00  0.00    +0.000 C 
ENDBRANCH  19  20
ENDBRANCH  17  19
ENDBRANCH  16  17
ENDBRANCH  11  15
ENDBRANCH   1   9
BRANCH   3  24
ATOM     24  C   UNL     1       0.598   0.679   0.000  0.00  0.00    +0.000 C 
ATOM     25  O   UNL     1       0.594  -0.146   0.000  0.00  0.00    +0.000 OA
BRANCH  24  26
ATOM     26  O   UNL     1       1.314   1.084   0.000  0.00  0.00    +0.000 OA
BRANCH  26  27
ATOM     27  C   UNL     1       2.026   0.672   0.000  0.00  0.00    +0.000 C 
ATOM     28  C   UNL     1       2.768   1.099   0.000  0.00  0.00    +0.000 C 
ENDBRANCH  26  27
ENDBRANCH  24  26
ENDBRANCH   3  24
BRANCH   2  29
ATOM     29  C   UNL     1      -2.251   0.689   0.000  0.00  0.00    +0.000 C 
ATOM     30  O   UNL     1      -2.251  -0.139   0.000  0.00  0.00    +0.000 OA
BRANCH  29  31
ATOM     31  O   UNL     1      -2.960   1.098   0.000  0.00  0.00    +0.000 OA
BRANCH  31  32
ATOM     32  C   UNL     1      -3.672   0.689   0.000  0.00  0.00    +0.000 C 
ATOM     33  C   UNL     1      -4.385   1.102   0.000  0.00  0.00    +0.000 C 
ENDBRANCH  31  32
ENDBRANCH  29  31
ENDBRANCH   2  29
TORSDOF 11
