REMARK  Name = 
REMARK  21 active torsions:
REMARK  status: ('A' for Active; 'I' for Inactive)
REMARK    1  A    between atoms: C_1  and  C_10
REMARK    2  A    between atoms: C_3  and  C_54
REMARK    3  A    between atoms: C_7  and  C_18
REMARK    4  A    between atoms: C_8  and  C_14
REMARK    5  A    between atoms: C_18  and  C_19
REMARK    6  A    between atoms: C_19  and  C_20
REMARK    7  A    between atoms: C_19  and  N_42
REMARK    8  A    between atoms: N_22  and  C_23
REMARK    9  A    between atoms: C_23  and  C_24
REMARK   10  A    between atoms: C_23  and  C_25
REMARK   11  A    between atoms: C_25  and  C_36
REMARK   12  A    between atoms: N_26  and  C_28
REMARK   13  A    between atoms: C_28  and  C_29
REMARK   14  A    between atoms: C_29  and  C_30
REMARK   15  A    between atoms: C_36  and  C_37
REMARK   16  A    between atoms: C_37  and  N_38
REMARK   17  A    between atoms: C_43  and  C_44
REMARK   18  A    between atoms: C_44  and  C_45
REMARK   19  A    between atoms: C_45  and  C_46
REMARK   20  A    between atoms: C_46  and  C_47
REMARK   21  A    between atoms: C_47  and  N_48
REMARK                            x       y       z     vdW  Elec       q    Type
REMARK                         _______ _______ _______ _____ _____    ______ ____
ROOT
ATOM      1  C   UNL     1       0.000  -1.551   0.000  0.00  0.00    +0.000 C 
ENDROOT
BRANCH   1   2
ATOM      2  N   UNL     1      -0.714  -1.964   0.000  0.00  0.00    +0.000 NA
ATOM      3  C   UNL     1      -1.429  -1.551   0.000  0.00  0.00    +0.000 C 
ATOM      4  O   UNL     1      -1.429  -0.726   0.000  0.00  0.00    +0.000 OA
BRANCH   3   5
ATOM      5  C   UNL     1      -2.143  -1.964   0.000  0.00  0.00    +0.000 C 
ATOM      6  N   UNL     1      -2.143  -2.788   0.000  0.00  0.00    +0.000 NA
BRANCH   5   7
ATOM      7  C   UNL     1      -2.858  -1.551   0.000  0.00  0.00    +0.000 C 
BRANCH   7   8
ATOM      8  C   UNL     1      -3.572  -1.964   0.000  0.00  0.00    +0.000 C 
BRANCH   8   9
ATOM      9  C   UNL     1      -4.287  -1.551   0.000  0.00  0.00    +0.000 C 
BRANCH   9  10
ATOM     10  N   UNL     1      -5.001  -1.964   0.000  0.00  0.00    +0.000 NA
ATOM     11  C   UNL     1      -5.716  -1.551   0.000  0.00  0.00    +0.000 C 
ATOM     12  N   UNL     1      -6.430  -1.964   0.000  0.00  0.00    +0.000 NA
ATOM     13  N   UNL     1      -5.716  -0.726   0.000  0.00  0.00    +0.000 NA
ENDBRANCH   9  10
ENDBRANCH   8   9
ENDBRANCH   7   8
ENDBRANCH   5   7
ENDBRANCH   3   5
ENDBRANCH   1   2
BRANCH   1  14
ATOM     14  C   UNL     1       0.715  -1.964   0.000  0.00  0.00    +0.000 C 
ATOM     15  O   UNL     1       0.715  -2.788   0.000  0.00  0.00    +0.000 OA
ATOM     16  N   UNL     1       1.429  -1.551   0.000  0.00  0.00    +0.000 NA
BRANCH  16  17
ATOM     17  C   UNL     1       2.143  -1.964   0.000  0.00  0.00    +0.000 C 
BRANCH  17  18
ATOM     18  C   UNL     1       2.143  -2.788   0.000  0.00  0.00    +0.000 C 
ATOM     19  N   UNL     1       2.858  -3.201   0.000  0.00  0.00    +0.000 NA
ATOM     20  O   UNL     1       1.429  -3.201   0.000  0.00  0.00    +0.000 OA
BRANCH  19  21
ATOM     21  C   UNL     1       3.572  -2.788   0.000  0.00  0.00    +0.000 C 
BRANCH  21  22
ATOM     22  C   UNL     1       4.287  -3.201   0.000  0.00  0.00    +0.000 C 
BRANCH  22  23
ATOM     23  C   UNL     1       5.001  -2.788   0.000  0.00  0.00    +0.000 A 
ATOM     24  C   UNL     1       5.716  -1.551   0.000  0.00  0.00    +0.000 A 
ATOM     25  C   UNL     1       5.001  -1.964   0.000  0.00  0.00    +0.000 A 
ATOM     26  C   UNL     1       5.716  -3.201   0.000  0.00  0.00    +0.000 A 
ATOM     27  C   UNL     1       6.430  -2.788   0.000  0.00  0.00    +0.000 A 
ATOM     28  C   UNL     1       6.430  -1.964   0.000  0.00  0.00    +0.000 A 
ENDBRANCH  22  23
ENDBRANCH  21  22
ENDBRANCH  19  21
ENDBRANCH  17  18
BRANCH  17  29
ATOM     29  C   UNL     1       2.858  -1.551   0.000  0.00  0.00    +0.000 C 
BRANCH  29  30
ATOM     30  C   UNL     1       2.858  -0.726   0.000  0.00  0.00    +0.000 C 
BRANCH  30  31
ATOM     31  C   UNL     1       3.572  -0.314   0.000  0.00  0.00    +0.000 C 
BRANCH  31  32
ATOM     32  N   UNL     1       3.572   0.511   0.000  0.00  0.00    +0.000 NA
ATOM     33  C   UNL     1       4.287   0.924   0.000  0.00  0.00    +0.000 C 
ATOM     34  N   UNL     1       4.287   1.749   0.000  0.00  0.00    +0.000 NA
ATOM     35  N   UNL     1       5.001   0.511   0.000  0.00  0.00    +0.000 NA
ENDBRANCH  31  32
ENDBRANCH  30  31
ENDBRANCH  29  30
ENDBRANCH  17  29
ENDBRANCH  16  17
ENDBRANCH   1  14
BRANCH   1  36
ATOM     36  C   UNL     1       0.000  -0.726   0.000  0.00  0.00    +0.000 C 
BRANCH  36  43
ATOM     37  C   UNL     1      -1.754   1.551   0.000  0.00  0.00    +0.000 A 
ATOM     38  C   UNL     1      -2.468   1.138   0.000  0.00  0.00    +0.000 A 
ATOM     39  C   UNL     1      -2.468   0.313   0.000  0.00  0.00    +0.000 A 
ATOM     40  C   UNL     1      -1.754  -0.099   0.000  0.00  0.00    +0.000 A 
ATOM     41  C   UNL     1      -1.039   0.313   0.000  0.00  0.00    +0.000 A 
ATOM     42  C   UNL     1      -1.039   1.138   0.000  0.00  0.00    +0.000 A 
ATOM     43  C   UNL     1      -0.255   0.059   0.000  0.00  0.00    +0.000 A 
ATOM     44  C   UNL     1       0.230   0.726   0.000  0.00  0.00    +0.000 A 
ATOM     45  N   UNL     1      -0.255   1.393   0.000  0.00  0.00    +0.000 NA
BRANCH  44  46
ATOM     46  C   UNL     1       1.055   0.726   0.000  0.00  0.00    +0.000 C 
ATOM     47  C   UNL     1       1.055   1.551   0.000  0.00  0.00    +0.000 C 
ATOM     48  C   UNL     1       1.880   0.726   0.000  0.00  0.00    +0.000 C 
ATOM     49  C   UNL     1       1.055  -0.099   0.000  0.00  0.00    +0.000 C 
ENDBRANCH  44  46
BRANCH  39  50
ATOM     50  C   UNL     1      -3.183  -0.099   0.000  0.00  0.00    +0.000 C 
ATOM     51  C   UNL     1      -3.595   0.615   0.000  0.00  0.00    +0.000 C 
ATOM     52  C   UNL     1      -3.897  -0.511   0.000  0.00  0.00    +0.000 C 
ATOM     53  C   UNL     1      -2.770  -0.813   0.000  0.00  0.00    +0.000 C 
ENDBRANCH  39  50
BRANCH  37  54
ATOM     54  C   UNL     1      -1.754   2.376   0.000  0.00  0.00    +0.000 C 
ATOM     55  C   UNL     1      -0.929   2.376   0.000  0.00  0.00    +0.000 C 
ATOM     56  C   UNL     1      -1.754   3.201   0.000  0.00  0.00    +0.000 C 
ATOM     57  C   UNL     1      -2.579   2.376   0.000  0.00  0.00    +0.000 C 
ENDBRANCH  37  54
ENDBRANCH  36  43
ENDBRANCH   1  36
TORSDOF 21
