REMARK  Name = 
REMARK  5 active torsions:
REMARK  status: ('A' for Active; 'I' for Inactive)
REMARK    1  A    between atoms: C_4  and  C_6
REMARK    2  A    between atoms: C_6  and  C_7
REMARK    3  A    between atoms: C_7  and  N_8
REMARK    4  A    between atoms: C_9  and  C_25
REMARK    5  A    between atoms: N_13  and  C_14
REMARK                            x       y       z     vdW  Elec       q    Type
REMARK                         _______ _______ _______ _____ _____    ______ ____
ROOT
ATOM      1  N   UNL     1       6.087   1.658   0.000  0.00  0.00    +0.000 N 
ATOM      2  C   UNL     1       5.674   0.943   0.000  0.00  0.00    +0.000 A 
ATOM      3  N   UNL     1       4.867   1.115   0.000  0.00  0.00    +0.000 NA
ATOM      4  C   UNL     1       4.781   1.935   0.000  0.00  0.00    +0.000 A 
ATOM      5  N   UNL     1       5.535   2.271   0.000  0.00  0.00    +0.000 NA
ATOM      6  N   UNL     1       4.067   2.348   0.000  0.00  0.00    +0.000 NA
ENDROOT
BRANCH   6   7
ATOM      7  C   UNL     1       3.352   1.935   0.000  0.00  0.00    +0.000 A 
ATOM      8  C   UNL     1       3.352   1.110   0.000  0.00  0.00    +0.000 A 
ATOM      9  C   UNL     1       2.638   0.698   0.000  0.00  0.00    +0.000 A 
ATOM     10  C   UNL     1       1.923   1.110   0.000  0.00  0.00    +0.000 A 
ATOM     11  C   UNL     1       1.923   1.935   0.000  0.00  0.00    +0.000 A 
ATOM     12  C   UNL     1       2.638   2.348   0.000  0.00  0.00    +0.000 A 
ATOM     13  O   UNL     1       1.139   2.190   0.000  0.00  0.00    +0.000 OA
ATOM     14  C   UNL     1       0.654   1.523   0.000  0.00  0.00    +0.000 C 
ATOM     15  O   UNL     1       1.139   0.856   0.000  0.00  0.00    +0.000 OA
ATOM     16  F   UNL     1      -0.065   1.928   0.000  0.00  0.00    +0.000 F 
ATOM     17  F   UNL     1      -0.065   1.118   0.000  0.00  0.00    +0.000 F 
ENDBRANCH   6   7
BRANCH   2  18
ATOM     18  C   UNL     1       6.010   0.190   0.000  0.00  0.00    +0.000 A 
ATOM     19  C   UNL     1       6.830   0.103   0.000  0.00  0.00    +0.000 A 
ATOM     20  C   UNL     1       7.166  -0.650   0.000  0.00  0.00    +0.000 A 
ATOM     21  N   UNL     1       6.681  -1.318   0.000  0.00  0.00    +0.000 NA
ATOM     22  C   UNL     1       5.861  -1.231   0.000  0.00  0.00    +0.000 A 
ATOM     23  C   UNL     1       5.525  -0.478   0.000  0.00  0.00    +0.000 A 
ENDBRANCH   2  18
BRANCH   1  24
ATOM     24  C   UNL     1       6.907   1.744   0.000  0.00  0.00    +0.000 C 
BRANCH  24  25
ATOM     25  C   UNL     1       7.392   1.077   0.000  0.00  0.00    +0.000 C 
BRANCH  25  29
ATOM     26  C   UNL     1       9.518   0.582   0.000  0.00  0.00    +0.000 C 
ATOM     27  N   UNL     1       8.698   0.495   0.000  0.00  0.00    +0.000 N 
ATOM     28  C   UNL     1       8.362  -0.258   0.000  0.00  0.00    +0.000 C 
ATOM     29  C   UNL     1       8.213   1.163   0.000  0.00  0.00    +0.000 C 
ATOM     30  O   UNL     1       8.548   1.917   0.000  0.00  0.00    +0.000 OA
ENDBRANCH  25  29
ENDBRANCH  24  25
ENDBRANCH   1  24
TORSDOF 5
