REMARK  Name = 
REMARK  7 active torsions:
REMARK  status: ('A' for Active; 'I' for Inactive)
REMARK    1  A    between atoms: C_2  and  O_21
REMARK    2  A    between atoms: C_7  and  C_10
REMARK    3  A    between atoms: N_11  and  N_12
REMARK    4  A    between atoms: N_14  and  C_15
REMARK    5  A    between atoms: C_15  and  C_16
REMARK    6  A    between atoms: C_16  and  C_17
REMARK    7  A    between atoms: C_17  and  C_18
REMARK                            x       y       z     vdW  Elec       q    Type
REMARK                         _______ _______ _______ _____ _____    ______ ____
ROOT
ATOM      1  C   UNL     1      -3.192   0.315   0.000  0.00  0.00    +0.000 A 
ATOM      2  C   UNL     1      -3.945   0.650   0.000  0.00  0.00    +0.000 A 
ATOM      3  C   UNL     1      -4.613   0.166   0.000  0.00  0.00    +0.000 A 
ATOM      4  C   UNL     1      -4.526  -0.655   0.000  0.00  0.00    +0.000 A 
ATOM      5  C   UNL     1      -3.773  -0.991   0.000  0.00  0.00    +0.000 A 
ATOM      6  C   UNL     1      -3.105  -0.505   0.000  0.00  0.00    +0.000 A 
ATOM      7  C   UNL     1      -2.438  -0.991   0.000  0.00  0.00    +0.000 A 
ATOM      8  N   UNL     1      -3.518  -1.775   0.000  0.00  0.00    +0.000 NA
ATOM      9  C   UNL     1      -2.693  -1.775   0.000  0.00  0.00    +0.000 A 
ENDROOT
BRANCH   7  10
ATOM     10  C   UNL     1      -1.723  -0.578   0.000  0.00  0.00    +0.000 C 
ATOM     11  N   UNL     1      -1.056  -1.063   0.000  0.00  0.00    +0.000 NA
BRANCH  11  12
ATOM     12  N   UNL     1      -0.342  -0.650   0.000  0.00  0.00    +0.000 NA
ATOM     13  C   UNL     1       0.373  -1.063   0.000  0.00  0.00    +0.000 C 
ATOM     14  N   UNL     1       1.087  -0.650   0.000  0.00  0.00    +0.000 NA
ATOM     15  N   UNL     1       0.373  -1.888   0.000  0.00  0.00    +0.000 NA
BRANCH  14  16
ATOM     16  C   UNL     1       1.802  -1.063   0.000  0.00  0.00    +0.000 C 
BRANCH  16  17
ATOM     17  C   UNL     1       2.516  -0.650   0.000  0.00  0.00    +0.000 C 
BRANCH  17  18
ATOM     18  C   UNL     1       3.231  -1.063   0.000  0.00  0.00    +0.000 C 
BRANCH  18  19
ATOM     19  C   UNL     1       3.945  -0.650   0.000  0.00  0.00    +0.000 C 
ATOM     20  C   UNL     1       4.660  -1.063   0.000  0.00  0.00    +0.000 C 
ENDBRANCH  18  19
ENDBRANCH  17  18
ENDBRANCH  16  17
ENDBRANCH  14  16
ENDBRANCH  11  12
ENDBRANCH   7  10
BRANCH   2  21
ATOM     21  O   UNL     1      -3.945   1.475   0.000  0.00  0.00    +0.000 OA
ATOM     22  C   UNL     1      -4.660   1.888   0.000  0.00  0.00    +0.000 C 
ENDBRANCH   2  21
TORSDOF 7
