REMARK  Name = 
REMARK  12 active torsions:
REMARK  status: ('A' for Active; 'I' for Inactive)
REMARK    1  A    between atoms: N_7  and  C_12
REMARK    2  A    between atoms: N_8  and  C_24
REMARK    3  A    between atoms: N_9  and  C_20
REMARK    4  A    between atoms: N_10  and  C_30
REMARK    5  A    between atoms: C_11  and  C_21
REMARK    6  A    between atoms: C_12  and  C_16
REMARK    7  A    between atoms: C_15  and  C_17
REMARK    8  A    between atoms: C_15  and  C_19
REMARK    9  A    between atoms: C_15  and  C_23
REMARK   10  A    between atoms: C_16  and  C_17
REMARK   11  A    between atoms: C_19  and  C_28
REMARK   12  A    between atoms: C_24  and  C_31
REMARK                            x       y       z     vdW  Elec       q    Type
REMARK                         _______ _______ _______ _____ _____    ______ ____
ROOT
ATOM      1  O   UNL     1       0.053  -2.627   0.000  0.00  0.00    +0.000 OA
ATOM      2  C   UNL     1       0.309  -1.843   0.000  0.00  0.00    +0.000 C 
ENDROOT
BRANCH   2   3
ATOM      3  C   UNL     1      -0.242  -1.229   0.000  0.00  0.00    +0.000 C 
BRANCH   3   4
ATOM      4  C   UNL     1      -1.049  -1.399   0.000  0.00  0.00    +0.000 C 
BRANCH   4   7
ATOM      5  O   UNL     1      -0.754  -2.797   0.000  0.00  0.00    +0.000 OA
ATOM      6  N   UNL     1      -2.113  -2.353   0.000  0.00  0.00    +0.000 N 
ATOM      7  C   UNL     1      -1.306  -2.183   0.000  0.00  0.00    +0.000 C 
ATOM      8  H   UNL     1      -2.454  -1.972   0.000  0.00  0.00    +0.000 HD
BRANCH   6  10
ATOM      9  O   UNL     1      -1.062  -3.801   0.000  0.00  0.00    +0.000 OA
ATOM     10  C   UNL     1      -2.369  -3.137   0.000  0.00  0.00    +0.000 C 
ATOM     11  C   UNL     1      -1.887  -3.801   0.000  0.00  0.00    +0.000 C 
ATOM     12  C   UNL     1      -3.150  -3.389   0.000  0.00  0.00    +0.000 A 
ATOM     13  C   UNL     1      -2.369  -4.465   0.000  0.00  0.00    +0.000 C 
ATOM     14  C   UNL     1      -3.150  -4.214   0.000  0.00  0.00    +0.000 A 
ATOM     15  C   UNL     1      -3.864  -2.976   0.000  0.00  0.00    +0.000 A 
ATOM     16  C   UNL     1      -3.864  -4.626   0.000  0.00  0.00    +0.000 A 
ATOM     17  C   UNL     1      -4.579  -3.389   0.000  0.00  0.00    +0.000 A 
ATOM     18  C   UNL     1      -4.579  -4.214   0.000  0.00  0.00    +0.000 A 
ENDBRANCH   6  10
ENDBRANCH   4   7
BRANCH   4  19
ATOM     19  C   UNL     1      -1.600  -0.785   0.000  0.00  0.00    +0.000 C 
ATOM     20  C   UNL     1      -2.407  -0.955   0.000  0.00  0.00    +0.000 C 
BRANCH  19  21
ATOM     21  C   UNL     1      -1.344  -0.001   0.000  0.00  0.00    +0.000 A 
ATOM     22  C   UNL     1      -0.537   0.169   0.000  0.00  0.00    +0.000 A 
ATOM     23  C   UNL     1      -1.895   0.613   0.000  0.00  0.00    +0.000 A 
ATOM     24  C   UNL     1      -0.280   0.954   0.000  0.00  0.00    +0.000 A 
ATOM     25  C   UNL     1      -1.639   1.398   0.000  0.00  0.00    +0.000 A 
ATOM     26  C   UNL     1      -0.831   1.568   0.000  0.00  0.00    +0.000 A 
ENDBRANCH  19  21
ENDBRANCH   4  19
ENDBRANCH   3   4
ENDBRANCH   2   3
BRANCH   2  27
ATOM     27  C   UNL     1       1.116  -1.673   0.000  0.00  0.00    +0.000 C 
BRANCH  27  28
ATOM     28  N   UNL     1       1.373  -0.888   0.000  0.00  0.00    +0.000 NA
ATOM     29  N   UNL     1       1.885   0.680   0.000  0.00  0.00    +0.000 NA
ATOM     30  C   UNL     1       2.180  -0.718   0.000  0.00  0.00    +0.000 C 
ATOM     31  C   UNL     1       2.436   0.066   0.000  0.00  0.00    +0.000 C 
ATOM     32  C   UNL     1       0.822  -0.274   0.000  0.00  0.00    +0.000 C 
ATOM     33  C   UNL     1       1.078   0.510   0.000  0.00  0.00    +0.000 C 
BRANCH  30  36
ATOM     34  O   UNL     1       2.474  -2.116   0.000  0.00  0.00    +0.000 OA
ATOM     35  N   UNL     1       3.538  -1.162   0.000  0.00  0.00    +0.000 N 
ATOM     36  C   UNL     1       2.731  -1.332   0.000  0.00  0.00    +0.000 C 
ATOM     37  H   UNL     1       3.880  -1.543   0.000  0.00  0.00    +0.000 HD
BRANCH  35  38
ATOM     38  C   UNL     1       3.794  -0.378   0.000  0.00  0.00    +0.000 C 
ATOM     39  C   UNL     1       4.579  -0.634   0.000  0.00  0.00    +0.000 C 
ATOM     40  C   UNL     1       3.010  -0.122   0.000  0.00  0.00    +0.000 C 
ATOM     41  C   UNL     1       4.051   0.406   0.000  0.00  0.00    +0.000 C 
ENDBRANCH  35  38
ENDBRANCH  30  36
BRANCH  29  42
ATOM     42  C   UNL     1       2.142   1.464   0.000  0.00  0.00    +0.000 C 
BRANCH  42  45
ATOM     43  O   UNL     1       1.381   4.292   0.000  0.00  0.00    +0.000 OA
ATOM     44  O   UNL     1       0.082   4.018   0.000  0.00  0.00    +0.000 OA
ATOM     45  C   UNL     1       1.591   2.078   0.000  0.00  0.00    +0.000 A 
ATOM     46  C   UNL     1       1.847   2.862   0.000  0.00  0.00    +0.000 A 
ATOM     47  C   UNL     1       0.783   1.908   0.000  0.00  0.00    +0.000 A 
ATOM     48  C   UNL     1       1.296   3.476   0.000  0.00  0.00    +0.000 A 
ATOM     49  C   UNL     1       0.232   2.522   0.000  0.00  0.00    +0.000 A 
ATOM     50  C   UNL     1       0.489   3.306   0.000  0.00  0.00    +0.000 A 
ATOM     51  C   UNL     1       0.632   4.626   0.000  0.00  0.00    +0.000 C 
ENDBRANCH  42  45
ENDBRANCH  29  42
ENDBRANCH  27  28
ENDBRANCH   2  27
TORSDOF 12
