REMARK  Name = 
REMARK  11 active torsions:
REMARK  status: ('A' for Active; 'I' for Inactive)
REMARK    1  A    between atoms: C_6  and  C_8
REMARK    2  A    between atoms: C_9  and  C_10
REMARK    3  A    between atoms: C_13  and  C_15
REMARK    4  A    between atoms: C_15  and  C_35
REMARK    5  A    between atoms: C_17  and  C_18
REMARK    6  A    between atoms: C_20  and  C_25
REMARK    7  A    between atoms: C_22  and  C_24
REMARK    8  A    between atoms: C_24  and  C_39
REMARK    9  A    between atoms: C_29  and  C_31
REMARK   10  A    between atoms: C_35  and  C_36
REMARK   11  A    between atoms: C_39  and  C_40
REMARK                            x       y       z     vdW  Elec       q    Type
REMARK                         _______ _______ _______ _____ _____    ______ ____
ROOT
ATOM      1  C   UNL     1      -1.589   0.672   0.329  0.00  0.00    +0.000 C 
ATOM      2  N   UNL     1      -0.803   0.872   0.253  0.00  0.00    +0.000 NA
ATOM      3  C   UNL     1      -0.737   1.680   0.125  0.00  0.00    +0.000 C 
ATOM      4  C   UNL     1      -2.067   1.392   0.245  0.00  0.00    +0.000 C 
ATOM      5  C   UNL     1      -1.537   2.021   0.122  0.00  0.00    +0.000 C 
ATOM      6  C   UNL     1      -1.755   2.910  -0.001  0.00  0.00    +0.000 C 
ATOM      7  C   UNL     1      -0.004   2.114   0.015  0.00  0.00    +0.000 C 
ENDROOT
BRANCH   1  15
ATOM      8  O   UNL     1       0.496  -1.624   0.992  0.00  0.00    +0.000 OA
ATOM      9  C   UNL     1      -0.222  -1.456   0.870  0.00  0.00    +0.000 C 
ATOM     10  N   UNL     1      -0.523  -0.701   0.734  0.00  0.00    +0.000 N 
ATOM     11  C   UNL     1      -1.366  -0.764   0.624  0.00  0.00    +0.000 C 
ATOM     12  C   UNL     1      -0.875  -2.022   0.848  0.00  0.00    +0.000 C 
ATOM     13  C   UNL     1      -1.578  -1.600   0.701  0.00  0.00    +0.000 C 
ATOM     14  C   UNL     1      -0.807  -2.935   0.970  0.00  0.00    +0.000 C 
ATOM     15  C   UNL     1      -1.898  -0.127   0.470  0.00  0.00    +0.000 C 
ATOM     16  H   UNL     1      -0.207  -0.198   0.716  0.00  0.00    +0.000 HD
BRANCH  13  17
ATOM     17  C   UNL     1      -2.425  -1.959   0.628  0.00  0.00    +0.000 C 
ATOM     18  C   UNL     1      -2.831  -1.976   1.473  0.00  0.00    +0.000 C 
ENDBRANCH  13  17
ENDBRANCH   1  15
BRANCH   7  19
ATOM     19  C   UNL     1       0.738   1.691  -0.056  0.00  0.00    +0.000 A 
ATOM     20  N   UNL     1       0.828   0.854  -0.120  0.00  0.00    +0.000 N 
ATOM     21  C   UNL     1       1.647   0.679  -0.177  0.00  0.00    +0.000 A 
ATOM     22  C   UNL     1       1.519   2.043  -0.074  0.00  0.00    +0.000 A 
ATOM     23  C   UNL     1       2.081   1.414  -0.146  0.00  0.00    +0.000 A 
ATOM     24  C   UNL     1       1.713   2.945  -0.020  0.00  0.00    +0.000 C 
ATOM     25  H   UNL     1       0.386   0.456  -0.124  0.00  0.00    +0.000 HD
BRANCH  21  26
ATOM     26  C   UNL     1       1.992  -0.111  -0.252  0.00  0.00    +0.000 C 
ATOM     27  C   UNL     1       1.513  -0.759  -0.503  0.00  0.00    +0.000 C 
ATOM     28  N   UNL     1       0.711  -0.712  -0.784  0.00  0.00    +0.000 N 
ATOM     29  C   UNL     1       0.455  -1.474  -0.969  0.00  0.00    +0.000 C 
ATOM     30  C   UNL     1       1.751  -1.594  -0.525  0.00  0.00    +0.000 C 
ATOM     31  C   UNL     1       1.102  -2.030  -0.808  0.00  0.00    +0.000 C 
ATOM     32  C   UNL     1       1.075  -2.945  -0.929  0.00  0.00    +0.000 C 
ATOM     33  O   UNL     1      -0.220  -1.656  -1.229  0.00  0.00    +0.000 OA
ATOM     34  H   UNL     1       0.390  -0.215  -0.838  0.00  0.00    +0.000 HD
BRANCH  30  35
ATOM     35  C   UNL     1       2.572  -1.935  -0.277  0.00  0.00    +0.000 C 
ATOM     36  C   UNL     1       3.143  -1.949  -1.020  0.00  0.00    +0.000 C 
ENDBRANCH  30  35
ENDBRANCH  21  26
BRANCH  23  37
ATOM     37  C   UNL     1       2.999   1.507  -0.188  0.00  0.00    +0.000 C 
BRANCH  37  38
ATOM     38  C   UNL     1       3.356   1.478   0.678  0.00  0.00    +0.000 C 
BRANCH  38  39
ATOM     39  C   UNL     1       4.274   1.571   0.636  0.00  0.00    +0.000 C 
ATOM     40  O   UNL     1       4.720   1.564   1.327  0.00  0.00    +0.000 OA
ATOM     41  O   UNL     1       4.608   1.651  -0.020  0.00  0.00    +0.000 OA
ENDBRANCH  38  39
ENDBRANCH  37  38
ENDBRANCH  23  37
ENDBRANCH   7  19
BRANCH   4  42
ATOM     42  C   UNL     1      -2.987   1.450   0.289  0.00  0.00    +0.000 C 
BRANCH  42  43
ATOM     43  C   UNL     1      -3.349   1.335  -0.568  0.00  0.00    +0.000 C 
BRANCH  43  44
ATOM     44  C   UNL     1      -4.270   1.392  -0.524  0.00  0.00    +0.000 C 
ATOM     45  O   UNL     1      -4.720   1.309  -1.207  0.00  0.00    +0.000 OA
ATOM     46  O   UNL     1      -4.602   1.513   0.127  0.00  0.00    +0.000 OA
ENDBRANCH  43  44
ENDBRANCH  42  43
ENDBRANCH   4  42
TORSDOF 11
