REMARK  Name = 
REMARK  12 active torsions:
REMARK  status: ('A' for Active; 'I' for Inactive)
REMARK    1  A    between atoms: C_2  and  C_5
REMARK    2  A    between atoms: C_5  and  C_6
REMARK    3  A    between atoms: C_6  and  C_9
REMARK    4  A    between atoms: C_12  and  O_13
REMARK    5  A    between atoms: O_13  and  C_14
REMARK    6  A    between atoms: C_14  and  C_15
REMARK    7  A    between atoms: C_15  and  O_16
REMARK    8  A    between atoms: O_16  and  C_17
REMARK    9  A    between atoms: C_17  and  C_18
REMARK   10  A    between atoms: C_18  and  N_19
REMARK   11  A    between atoms: N_19  and  C_22
REMARK   12  A    between atoms: C_22  and  C_23
REMARK                            x       y       z     vdW  Elec       q    Type
REMARK                         _______ _______ _______ _____ _____    ______ ____
ROOT
ATOM      1  O   UNL     1       2.858  -4.125   0.000  0.00  0.00    +0.000 OA
ENDROOT
BRANCH   1   5
ATOM      2  C   UNL     1       0.715  -5.362   0.000  0.00  0.00    +0.000 A 
ATOM      3  C   UNL     1       0.715  -4.537   0.000  0.00  0.00    +0.000 A 
ATOM      4  C   UNL     1       1.429  -4.125   0.000  0.00  0.00    +0.000 A 
ATOM      5  C   UNL     1       2.143  -4.537   0.000  0.00  0.00    +0.000 A 
ATOM      6  C   UNL     1       2.143  -5.362   0.000  0.00  0.00    +0.000 A 
ATOM      7  C   UNL     1       1.429  -5.775   0.000  0.00  0.00    +0.000 A 
BRANCH   2   8
ATOM      8  C   UNL     1       0.000  -5.775   0.000  0.00  0.00    +0.000 C 
ATOM      9  C   UNL     1       0.412  -6.489   0.000  0.00  0.00    +0.000 C 
ATOM     10  C   UNL     1      -0.412  -5.061   0.000  0.00  0.00    +0.000 C 
BRANCH   8  11
ATOM     11  C   UNL     1      -0.715  -6.188   0.000  0.00  0.00    +0.000 C 
BRANCH  11  13
ATOM     12  C   UNL     1      -0.715  -7.838   0.000  0.00  0.00    +0.000 C 
ATOM     13  C   UNL     1      -0.715  -7.013   0.000  0.00  0.00    +0.000 C 
ATOM     14  C   UNL     1       0.111  -7.013   0.000  0.00  0.00    +0.000 C 
ATOM     15  C   UNL     1      -1.540  -7.013   0.000  0.00  0.00    +0.000 C 
ENDBRANCH  11  13
ENDBRANCH   8  11
ENDBRANCH   2   8
ENDBRANCH   1   5
BRANCH   1  16
ATOM     16  C   UNL     1       3.572  -4.537   0.000  0.00  0.00    +0.000 C 
BRANCH  16  17
ATOM     17  C   UNL     1       4.287  -4.125   0.000  0.00  0.00    +0.000 C 
BRANCH  17  18
ATOM     18  O   UNL     1       5.001  -4.537   0.000  0.00  0.00    +0.000 OA
BRANCH  18  19
ATOM     19  C   UNL     1       5.716  -4.125   0.000  0.00  0.00    +0.000 C 
BRANCH  19  20
ATOM     20  C   UNL     1       6.430  -4.537   0.000  0.00  0.00    +0.000 C 
BRANCH  20  21
ATOM     21  N   UNL     1       7.145  -4.125   0.000  0.00  0.00    +0.000 N 
ATOM     22  C   UNL     1       7.557  -4.840   0.000  0.00  0.00    +0.000 C 
ATOM     23  C   UNL     1       6.732  -3.410   0.000  0.00  0.00    +0.000 C 
BRANCH  21  24
ATOM     24  C   UNL     1       7.859  -3.712   0.000  0.00  0.00    +0.000 C 
BRANCH  24  25
ATOM     25  C   UNL     1       8.574  -4.125   0.000  0.00  0.00    +0.000 A 
ATOM     26  C   UNL     1       9.288  -3.712   0.000  0.00  0.00    +0.000 A 
ATOM     27  C   UNL     1      10.003  -4.125   0.000  0.00  0.00    +0.000 A 
ATOM     28  C   UNL     1      10.003  -4.950   0.000  0.00  0.00    +0.000 A 
ATOM     29  C   UNL     1       9.288  -5.362   0.000  0.00  0.00    +0.000 A 
ATOM     30  C   UNL     1       8.574  -4.950   0.000  0.00  0.00    +0.000 A 
ENDBRANCH  24  25
ENDBRANCH  21  24
ENDBRANCH  20  21
ENDBRANCH  19  20
ENDBRANCH  18  19
ENDBRANCH  17  18
ENDBRANCH  16  17
ENDBRANCH   1  16
TORSDOF 12
