REMARK  Name = 
REMARK  10 active torsions:
REMARK  status: ('A' for Active; 'I' for Inactive)
REMARK    1  A    between atoms: S_1  and  N_11
REMARK    2  A    between atoms: S_1  and  C_17
REMARK    3  A    between atoms: S_2  and  C_15
REMARK    4  A    between atoms: S_2  and  C_18
REMARK    5  A    between atoms: O_6  and  C_22
REMARK    6  A    between atoms: O_7  and  C_27
REMARK    7  A    between atoms: O_8  and  C_32
REMARK    8  A    between atoms: O_8  and  C_37
REMARK    9  A    between atoms: C_18  and  C_21
REMARK   10  A    between atoms: C_37  and  C_38
REMARK                            x       y       z     vdW  Elec       q    Type
REMARK                         _______ _______ _______ _____ _____    ______ ____
ROOT
ATOM      1  N   UNL     1      -0.690  -1.563   0.000  0.00  0.00    +0.000 N 
ATOM      2  N   UNL     1      -0.690  -2.891   0.000  0.00  0.00    +0.000 NA
ATOM      3  C   UNL     1      -1.471  -1.814   0.000  0.00  0.00    +0.000 A 
ATOM      4  C   UNL     1      -0.209  -2.227   0.000  0.00  0.00    +0.000 A 
ATOM      5  C   UNL     1      -1.471  -2.639   0.000  0.00  0.00    +0.000 A 
ATOM      6  C   UNL     1      -2.185  -1.402   0.000  0.00  0.00    +0.000 A 
ATOM      7  C   UNL     1      -2.185  -3.052   0.000  0.00  0.00    +0.000 A 
ATOM      8  C   UNL     1      -2.900  -2.639   0.000  0.00  0.00    +0.000 A 
ATOM      9  C   UNL     1      -2.900  -1.814   0.000  0.00  0.00    +0.000 A 
ENDROOT
BRANCH   1  10
ATOM     10  S   UNL     1      -0.434  -0.779   0.000  0.00  0.00    +0.000 S 
ATOM     11  O   UNL     1       0.350  -1.035   0.000  0.00  0.00    +0.000 OA
ATOM     12  O   UNL     1      -1.218  -0.522   0.000  0.00  0.00    +0.000 OA
BRANCH  10  13
ATOM     13  C   UNL     1      -0.178   0.005   0.000  0.00  0.00    +0.000 A 
ATOM     14  C   UNL     1       0.630   0.175   0.000  0.00  0.00    +0.000 A 
ATOM     15  C   UNL     1      -0.729   0.619   0.000  0.00  0.00    +0.000 A 
ATOM     16  C   UNL     1       0.886   0.960   0.000  0.00  0.00    +0.000 A 
ATOM     17  C   UNL     1      -0.472   1.404   0.000  0.00  0.00    +0.000 A 
ATOM     18  C   UNL     1       0.335   1.574   0.000  0.00  0.00    +0.000 A 
BRANCH  18  19
ATOM     19  O   UNL     1       0.591   2.358   0.000  0.00  0.00    +0.000 OA
BRANCH  19  20
ATOM     20  C   UNL     1       0.040   2.972   0.000  0.00  0.00    +0.000 C 
BRANCH  20  23
ATOM     21  O   UNL     1      -0.254   4.370   0.000  0.00  0.00    +0.000 OA
ATOM     22  O   UNL     1       1.104   3.926   0.000  0.00  0.00    +0.000 OA
ATOM     23  C   UNL     1       0.297   3.756   0.000  0.00  0.00    +0.000 C 
ENDBRANCH  20  23
ENDBRANCH  19  20
ENDBRANCH  18  19
ENDBRANCH  10  13
ENDBRANCH   1  10
BRANCH   4  24
ATOM     24  S   UNL     1       0.616  -2.227   0.000  0.00  0.00    +0.000 S 
ATOM     25  O   UNL     1       1.029  -1.512   0.000  0.00  0.00    +0.000 OA
BRANCH  24  26
ATOM     26  C   UNL     1       1.029  -2.941   0.000  0.00  0.00    +0.000 C 
BRANCH  26  28
ATOM     27  N   UNL     1       2.266  -2.227   0.000  0.00  0.00    +0.000 NA
ATOM     28  C   UNL     1       1.854  -2.941   0.000  0.00  0.00    +0.000 A 
ATOM     29  C   UNL     1       2.266  -3.656   0.000  0.00  0.00    +0.000 A 
ATOM     30  C   UNL     1       3.091  -3.656   0.000  0.00  0.00    +0.000 A 
ATOM     31  C   UNL     1       3.504  -2.941   0.000  0.00  0.00    +0.000 A 
ATOM     32  C   UNL     1       1.854  -4.370   0.000  0.00  0.00    +0.000 C 
ATOM     33  C   UNL     1       3.091  -2.227   0.000  0.00  0.00    +0.000 A 
ATOM     34  C   UNL     1       4.329  -2.941   0.000  0.00  0.00    +0.000 C 
BRANCH  30  35
ATOM     35  O   UNL     1       3.504  -4.370   0.000  0.00  0.00    +0.000 OA
ATOM     36  C   UNL     1       4.329  -4.370   0.000  0.00  0.00    +0.000 C 
ENDBRANCH  30  35
ENDBRANCH  26  28
ENDBRANCH  24  26
ENDBRANCH   4  24
BRANCH   8  37
ATOM     37  O   UNL     1      -3.614  -3.052   0.000  0.00  0.00    +0.000 OA
ATOM     38  C   UNL     1      -4.329  -2.639   0.000  0.00  0.00    +0.000 C 
ENDBRANCH   8  37
TORSDOF 10
