REMARK  Name = 
REMARK  14 active torsions:
REMARK  status: ('A' for Active; 'I' for Inactive)
REMARK    1  A    between atoms: P_1  and  O_6
REMARK    2  A    between atoms: P_1  and  O_9
REMARK    3  A    between atoms: P_2  and  O_9
REMARK    4  A    between atoms: P_2  and  O_10
REMARK    5  A    between atoms: O_6  and  C_32
REMARK    6  A    between atoms: O_10  and  C_47
REMARK    7  A    between atoms: N_19  and  C_30
REMARK    8  A    between atoms: N_20  and  C_35
REMARK    9  A    between atoms: C_31  and  C_32
REMARK   10  A    between atoms: C_35  and  C_36
REMARK   11  A    between atoms: C_36  and  C_39
REMARK   12  A    between atoms: C_39  and  C_43
REMARK   13  A    between atoms: C_43  and  C_47
REMARK   14  A    between atoms: C_49  and  C_51
REMARK                            x       y       z     vdW  Elec       q    Type
REMARK                         _______ _______ _______ _____ _____    ______ ____
ROOT
ATOM      1  O   UNL     1       0.477  -1.589   0.000  0.00  0.00    +0.000 OA
ATOM      2  C   UNL     1       1.192  -1.177   0.000  0.00  0.00    +0.000 C 
ENDROOT
BRANCH   2   4
ATOM      3  O   UNL     1       2.620  -1.177   0.000  0.00  0.00    +0.000 OA
ATOM      4  C   UNL     1       1.906  -1.589   0.000  0.00  0.00    +0.000 C 
BRANCH   4   6
ATOM      5  O   UNL     1       1.192  -2.826   0.000  0.00  0.00    +0.000 OA
ATOM      6  C   UNL     1       1.906  -2.414   0.000  0.00  0.00    +0.000 C 
BRANCH   6   7
ATOM      7  C   UNL     1       2.620  -2.826   0.000  0.00  0.00    +0.000 C 
BRANCH   7  11
ATOM      8  O   UNL     1       3.335  -6.539   0.000  0.00  0.00    +0.000 OA
ATOM      9  O   UNL     1       4.063  -6.155   0.000  0.00  0.00    +0.000 OA
ATOM     10  O   UNL     1       5.533  -3.631   0.000  0.00  0.00    +0.000 OA
ATOM     11  N   UNL     1       2.620  -3.651   0.000  0.00  0.00    +0.000 N 
ATOM     12  N   UNL     1       2.620  -5.301   0.000  0.00  0.00    +0.000 N 
ATOM     13  N   UNL     1       4.072  -3.623   0.000  0.00  0.00    +0.000 NA
ATOM     14  N   UNL     1       4.820  -4.906   0.000  0.00  0.00    +0.000 NA
ATOM     15  C   UNL     1       1.906  -4.064   0.000  0.00  0.00    +0.000 A 
ATOM     16  C   UNL     1       1.906  -4.889   0.000  0.00  0.00    +0.000 A 
ATOM     17  C   UNL     1       3.335  -4.064   0.000  0.00  0.00    +0.000 A 
ATOM     18  C   UNL     1       3.335  -4.889   0.000  0.00  0.00    +0.000 A 
ATOM     19  C   UNL     1       1.169  -3.623   0.000  0.00  0.00    +0.000 A 
ATOM     20  C   UNL     1       1.169  -5.330   0.000  0.00  0.00    +0.000 A 
ATOM     21  C   UNL     1       0.421  -4.047   0.000  0.00  0.00    +0.000 A 
ATOM     22  C   UNL     1       0.421  -4.906   0.000  0.00  0.00    +0.000 A 
ATOM     23  C   UNL     1       2.620  -6.126   0.000  0.00  0.00    +0.000 C 
ATOM     24  C   UNL     1       4.072  -5.330   0.000  0.00  0.00    +0.000 A 
ATOM     25  C   UNL     1      -0.292  -3.631   0.000  0.00  0.00    +0.000 C 
ATOM     26  C   UNL     1      -0.292  -5.321   0.000  0.00  0.00    +0.000 C 
ATOM     27  C   UNL     1       4.820  -4.047   0.000  0.00  0.00    +0.000 A 
BRANCH  23  28
ATOM     28  C   UNL     1       1.906  -6.539   0.000  0.00  0.00    +0.000 C 
ATOM     29  C   UNL     1       1.906  -7.364   0.000  0.00  0.00    +0.000 C 
ATOM     30  C   UNL     1       1.192  -6.126   0.000  0.00  0.00    +0.000 C 
ENDBRANCH  23  28
ENDBRANCH   7  11
ENDBRANCH   6   7
ENDBRANCH   4   6
ENDBRANCH   2   4
BRANCH   2  31
ATOM     31  C   UNL     1       1.192  -0.352   0.000  0.00  0.00    +0.000 C 
BRANCH  31  32
ATOM     32  O   UNL     1       0.477   0.061   0.000  0.00  0.00    +0.000 OA
BRANCH  32  33
ATOM     33  P   UNL     1       0.477   0.886   0.000  0.00  0.00    +0.000 P 
ATOM     34  O   UNL     1      -0.348   0.886   0.000  0.00  0.00    +0.000 OA
ATOM     35  O   UNL     1       1.302   0.886   0.000  0.00  0.00    +0.000 OA
BRANCH  33  36
ATOM     36  O   UNL     1       0.477   1.711   0.000  0.00  0.00    +0.000 OA
BRANCH  36  37
ATOM     37  P   UNL     1      -0.237   2.123   0.000  0.00  0.00    +0.000 P 
ATOM     38  O   UNL     1       0.175   2.837   0.000  0.00  0.00    +0.000 OA
ATOM     39  O   UNL     1      -0.650   1.409   0.000  0.00  0.00    +0.000 OA
BRANCH  37  40
ATOM     40  O   UNL     1      -0.952   2.535   0.000  0.00  0.00    +0.000 OA
BRANCH  40  41
ATOM     41  C   UNL     1      -0.952   3.361   0.000  0.00  0.00    +0.000 C 
BRANCH  41  48
ATOM     42  O   UNL     1      -1.752   4.593   0.000  0.00  0.00    +0.000 OA
ATOM     43  O   UNL     1      -3.792   3.964   0.000  0.00  0.00    +0.000 OA
ATOM     44  O   UNL     1      -2.591   2.631   0.000  0.00  0.00    +0.000 OA
ATOM     45  C   UNL     1      -2.972   4.051   0.000  0.00  0.00    +0.000 C 
ATOM     46  C   UNL     1      -2.420   3.437   0.000  0.00  0.00    +0.000 C 
ATOM     47  C   UNL     1      -2.559   4.765   0.000  0.00  0.00    +0.000 C 
ATOM     48  C   UNL     1      -1.666   3.773   0.000  0.00  0.00    +0.000 C 
BRANCH  47  49
ATOM     49  N   UNL     1      -2.895   5.519   0.000  0.00  0.00    +0.000 N 
ATOM     50  N   UNL     1      -3.031   6.839   0.000  0.00  0.00    +0.000 NA
ATOM     51  N   UNL     1      -4.365   5.205   0.000  0.00  0.00    +0.000 NA
ATOM     52  N   UNL     1      -5.203   6.362   0.000  0.00  0.00    +0.000 NA
ATOM     53  N   UNL     1      -4.620   7.666   0.000  0.00  0.00    +0.000 NA
ATOM     54  C   UNL     1      -3.697   5.688   0.000  0.00  0.00    +0.000 C 
ATOM     55  C   UNL     1      -2.484   6.228   0.000  0.00  0.00    +0.000 C 
ATOM     56  C   UNL     1      -3.782   6.509   0.000  0.00  0.00    +0.000 C 
ATOM     57  C   UNL     1      -4.535   6.846   0.000  0.00  0.00    +0.000 C 
ATOM     58  C   UNL     1      -5.118   5.541   0.000  0.00  0.00    +0.000 C 
ENDBRANCH  47  49
ENDBRANCH  41  48
ENDBRANCH  40  41
ENDBRANCH  37  40
ENDBRANCH  36  37
ENDBRANCH  33  36
ENDBRANCH  32  33
ENDBRANCH  31  32
ENDBRANCH   2  31
TORSDOF 14
