REMARK  Name = 
REMARK  131 active torsions:
REMARK  status: ('A' for Active; 'I' for Inactive)
REMARK    1  A    between atoms: C_20  and  C_91
REMARK    2  A    between atoms: C_21  and  C_29
REMARK    3  A    between atoms: C_21  and  C_65
REMARK    4  A    between atoms: C_22  and  C_30
REMARK    5  A    between atoms: C_22  and  C_66
REMARK    6  A    between atoms: C_23  and  C_31
REMARK    7  A    between atoms: C_23  and  C_67
REMARK    8  A    between atoms: C_24  and  C_32
REMARK    9  A    between atoms: C_24  and  C_68
REMARK   10  A    between atoms: C_29  and  C_107
REMARK   11  A    between atoms: C_30  and  C_108
REMARK   12  A    between atoms: C_31  and  C_109
REMARK   13  A    between atoms: C_32  and  C_110
REMARK   14  A    between atoms: C_53  and  C_58
REMARK   15  A    between atoms: C_53  and  C_111
REMARK   16  A    between atoms: C_54  and  C_59
REMARK   17  A    between atoms: C_54  and  C_112
REMARK   18  A    between atoms: C_55  and  C_60
REMARK   19  A    between atoms: C_55  and  C_113
REMARK   20  A    between atoms: C_56  and  C_61
REMARK   21  A    between atoms: C_56  and  C_114
REMARK   22  A    between atoms: C_57  and  C_62
REMARK   23  A    between atoms: C_57  and  C_117
REMARK   24  A    between atoms: C_58  and  C_133
REMARK   25  A    between atoms: C_59  and  C_134
REMARK   26  A    between atoms: C_60  and  C_135
REMARK   27  A    between atoms: C_61  and  C_139
REMARK   28  A    between atoms: C_62  and  C_140
REMARK   29  A    between atoms: C_63  and  C_73
REMARK   30  A    between atoms: C_63  and  C_115
REMARK   31  A    between atoms: C_64  and  C_74
REMARK   32  A    between atoms: C_64  and  C_116
REMARK   33  A    between atoms: C_65  and  N_201
REMARK   34  A    between atoms: C_66  and  N_202
REMARK   35  A    between atoms: C_67  and  N_203
REMARK   36  A    between atoms: C_68  and  N_204
REMARK   37  A    between atoms: C_73  and  S_295
REMARK   38  A    between atoms: C_74  and  S_296
REMARK   39  A    between atoms: C_75  and  C_87
REMARK   40  A    between atoms: C_75  and  C_119
REMARK   41  A    between atoms: C_76  and  C_88
REMARK   42  A    between atoms: C_76  and  C_120
REMARK   43  A    between atoms: C_77  and  C_89
REMARK   44  A    between atoms: C_77  and  C_121
REMARK   45  A    between atoms: C_78  and  C_99
REMARK   46  A    between atoms: C_78  and  C_118
REMARK   47  A    between atoms: C_79  and  C_100
REMARK   48  A    between atoms: C_79  and  C_122
REMARK   49  A    between atoms: C_80  and  C_101
REMARK   50  A    between atoms: C_80  and  C_123
REMARK   51  A    between atoms: C_81  and  C_102
REMARK   52  A    between atoms: C_81  and  C_128
REMARK   53  A    between atoms: C_82  and  C_124
REMARK   54  A    between atoms: C_82  and  C_136
REMARK   55  A    between atoms: C_83  and  C_125
REMARK   56  A    between atoms: C_83  and  C_137
REMARK   57  A    between atoms: C_84  and  C_126
REMARK   58  A    between atoms: C_84  and  C_141
REMARK   59  A    between atoms: C_85  and  C_127
REMARK   60  A    between atoms: C_85  and  C_142
REMARK   61  A    between atoms: C_86  and  C_138
REMARK   62  A    between atoms: C_86  and  N_205
REMARK   63  A    between atoms: C_90  and  C_143
REMARK   64  A    between atoms: C_91  and  C_144
REMARK   65  A    between atoms: C_92  and  C_178
REMARK   66  A    between atoms: C_93  and  C_148
REMARK   67  A    between atoms: C_93  and  N_208
REMARK   68  A    between atoms: C_94  and  C_150
REMARK   69  A    between atoms: C_94  and  N_206
REMARK   70  A    between atoms: C_95  and  C_149
REMARK   71  A    between atoms: C_95  and  N_207
REMARK   72  A    between atoms: C_96  and  C_151
REMARK   73  A    between atoms: C_96  and  N_209
REMARK   74  A    between atoms: C_97  and  C_145
REMARK   75  A    between atoms: C_98  and  C_146
REMARK   76  A    between atoms: C_107  and  C_153
REMARK   77  A    between atoms: C_107  and  N_214
REMARK   78  A    between atoms: C_108  and  C_155
REMARK   79  A    between atoms: C_108  and  N_213
REMARK   80  A    between atoms: C_109  and  C_156
REMARK   81  A    between atoms: C_109  and  N_212
REMARK   82  A    between atoms: C_110  and  C_154
REMARK   83  A    between atoms: C_110  and  N_220
REMARK   84  A    between atoms: C_111  and  C_160
REMARK   85  A    between atoms: C_111  and  N_211
REMARK   86  A    between atoms: C_112  and  C_157
REMARK   87  A    between atoms: C_112  and  N_215
REMARK   88  A    between atoms: C_113  and  C_158
REMARK   89  A    between atoms: C_113  and  N_216
REMARK   90  A    between atoms: C_114  and  C_159
REMARK   91  A    between atoms: C_114  and  N_219
REMARK   92  A    between atoms: C_115  and  C_152
REMARK   93  A    between atoms: C_115  and  N_217
REMARK   94  A    between atoms: C_116  and  C_161
REMARK   95  A    between atoms: C_116  and  N_218
REMARK   96  A    between atoms: C_117  and  C_179
REMARK   97  A    between atoms: C_117  and  N_221
REMARK   98  A    between atoms: C_118  and  C_147
REMARK   99  A    between atoms: C_118  and  N_222
REMARK  100  A    between atoms: C_119  and  C_164
REMARK  101  A    between atoms: C_119  and  N_225
REMARK  102  A    between atoms: C_120  and  C_165
REMARK  103  A    between atoms: C_120  and  N_229
REMARK  104  A    between atoms: C_121  and  C_169
REMARK  105  A    between atoms: C_121  and  N_224
REMARK  106  A    between atoms: C_122  and  C_162
REMARK  107  A    between atoms: C_122  and  N_226
REMARK  108  A    between atoms: C_123  and  C_170
REMARK  109  A    between atoms: C_123  and  N_227
REMARK  110  A    between atoms: C_124  and  C_163
REMARK  111  A    between atoms: C_124  and  N_228
REMARK  112  A    between atoms: C_125  and  C_166
REMARK  113  A    between atoms: C_125  and  N_230
REMARK  114  A    between atoms: C_126  and  C_167
REMARK  115  A    between atoms: C_126  and  N_210
REMARK  116  A    between atoms: C_127  and  C_168
REMARK  117  A    between atoms: C_127  and  N_223
REMARK  118  A    between atoms: C_128  and  C_180
REMARK  119  A    between atoms: C_128  and  N_231
REMARK  120  A    between atoms: C_129  and  C_171
REMARK  121  A    between atoms: C_130  and  C_173
REMARK  122  A    between atoms: C_131  and  C_172
REMARK  123  A    between atoms: C_132  and  C_174
REMARK  124  A    between atoms: C_143  and  C_175
REMARK  125  A    between atoms: C_143  and  N_232
REMARK  126  A    between atoms: C_144  and  C_176
REMARK  127  A    between atoms: C_144  and  N_233
REMARK  128  A    between atoms: C_145  and  C_177
REMARK  129  A    between atoms: C_145  and  N_234
REMARK  130  A    between atoms: C_146  and  C_181
REMARK  131  A    between atoms: C_146  and  N_235
REMARK                            x       y       z     vdW  Elec       q    Type
REMARK                         _______ _______ _______ _____ _____    ______ ____
ROOT
ATOM      1  C   UNL     1      -1.698  -1.137   0.000  0.00  0.00    +0.000 C 
ENDROOT
BRANCH   1   2
ATOM      2  C   UNL     1      -1.085  -1.689   0.000  0.00  0.00    +0.000 C 
ATOM      3  N   UNL     1      -0.300  -1.434   0.000  0.00  0.00    +0.000 NA
ATOM      4  O   UNL     1      -1.256  -2.496   0.000  0.00  0.00    +0.000 OA
BRANCH   3   6
ATOM      5  C   UNL     1       0.141  -2.793   0.000  0.00  0.00    +0.000 C 
ATOM      6  C   UNL     1       0.313  -1.986   0.000  0.00  0.00    +0.000 C 
BRANCH   6   7
ATOM      7  C   UNL     1       1.097  -1.731   0.000  0.00  0.00    +0.000 C 
ATOM      8  N   UNL     1       1.710  -2.283   0.000  0.00  0.00    +0.000 NA
ATOM      9  O   UNL     1       1.269  -0.924   0.000  0.00  0.00    +0.000 OA
BRANCH   8  11
ATOM     10  C   UNL     1       2.667  -1.221   0.000  0.00  0.00    +0.000 C 
ATOM     11  C   UNL     1       2.495  -2.028   0.000  0.00  0.00    +0.000 C 
BRANCH  11  12
ATOM     12  C   UNL     1       3.108  -2.580   0.000  0.00  0.00    +0.000 C 
ATOM     13  N   UNL     1       3.893  -2.325   0.000  0.00  0.00    +0.000 NA
ATOM     14  O   UNL     1       2.937  -3.387   0.000  0.00  0.00    +0.000 OA
BRANCH  13  15
ATOM     15  C   UNL     1       4.506  -2.877   0.000  0.00  0.00    +0.000 C 
BRANCH  15  16
ATOM     16  C   UNL     1       5.291  -2.623   0.000  0.00  0.00    +0.000 C 
ATOM     17  N   UNL     1       5.462  -1.816   0.000  0.00  0.00    +0.000 NA
ATOM     18  O   UNL     1       5.904  -3.175   0.000  0.00  0.00    +0.000 OA
BRANCH  17  19
ATOM     19  C   UNL     1       6.247  -1.561   0.000  0.00  0.00    +0.000 C 
BRANCH  19  20
ATOM     20  C   UNL     1       6.418  -0.754   0.000  0.00  0.00    +0.000 C 
ATOM     21  N   UNL     1       7.203  -0.499   0.000  0.00  0.00    +0.000 NA
ATOM     22  O   UNL     1       5.805  -0.202   0.000  0.00  0.00    +0.000 OA
BRANCH  21  23
ATOM     23  C   UNL     1       7.374   0.308   0.000  0.00  0.00    +0.000 C 
BRANCH  23  24
ATOM     24  C   UNL     1       8.159   0.563   0.000  0.00  0.00    +0.000 C 
ATOM     25  N   UNL     1       8.331   1.370   0.000  0.00  0.00    +0.000 NA
ATOM     26  O   UNL     1       8.772   0.011   0.000  0.00  0.00    +0.000 OA
BRANCH  25  27
ATOM     27  C   UNL     1       9.115   1.625   0.000  0.00  0.00    +0.000 C 
BRANCH  27  28
ATOM     28  C   UNL     1       9.728   1.073   0.000  0.00  0.00    +0.000 C 
ATOM     29  N   UNL     1      10.513   1.328   0.000  0.00  0.00    +0.000 NA
ATOM     30  O   UNL     1       9.557   0.266   0.000  0.00  0.00    +0.000 OA
BRANCH  29  31
ATOM     31  C   UNL     1      11.126   0.776   0.000  0.00  0.00    +0.000 C 
BRANCH  31  32
ATOM     32  C   UNL     1      11.911   1.031   0.000  0.00  0.00    +0.000 C 
ATOM     33  N   UNL     1      12.082   1.838   0.000  0.00  0.00    +0.000 NA
ATOM     34  O   UNL     1      12.524   0.479   0.000  0.00  0.00    +0.000 OA
BRANCH  33  35
ATOM     35  C   UNL     1      12.867   2.093   0.000  0.00  0.00    +0.000 C 
BRANCH  35  36
ATOM     36  C   UNL     1      13.480   1.541   0.000  0.00  0.00    +0.000 C 
ATOM     37  N   UNL     1      14.264   1.796   0.000  0.00  0.00    +0.000 NA
ATOM     38  O   UNL     1      13.308   0.734   0.000  0.00  0.00    +0.000 OA
BRANCH  37  39
ATOM     39  C   UNL     1      14.877   1.244   0.000  0.00  0.00    +0.000 C 
BRANCH  39  40
ATOM     40  C   UNL     1      15.662   1.498   0.000  0.00  0.00    +0.000 C 
ATOM     41  N   UNL     1      16.275   0.947   0.000  0.00  0.00    +0.000 NA
ATOM     42  O   UNL     1      15.834   2.305   0.000  0.00  0.00    +0.000 OA
BRANCH  41  43
ATOM     43  C   UNL     1      17.060   1.201   0.000  0.00  0.00    +0.000 C 
BRANCH  43  44
ATOM     44  C   UNL     1      17.673   0.649   0.000  0.00  0.00    +0.000 C 
ATOM     45  N   UNL     1      18.458   0.904   0.000  0.00  0.00    +0.000 NA
ATOM     46  O   UNL     1      17.502  -0.158   0.000  0.00  0.00    +0.000 OA
BRANCH  45  47
ATOM     47  C   UNL     1      19.071   0.352   0.000  0.00  0.00    +0.000 C 
BRANCH  47  48
ATOM     48  C   UNL     1      19.855   0.607   0.000  0.00  0.00    +0.000 C 
ATOM     49  N   UNL     1      20.468   0.055   0.000  0.00  0.00    +0.000 NA
ATOM     50  O   UNL     1      20.027   1.414   0.000  0.00  0.00    +0.000 OA
BRANCH  49  51
ATOM     51  C   UNL     1      21.253   0.310   0.000  0.00  0.00    +0.000 C 
BRANCH  51  53
ATOM     52  C   UNL     1      20.811   1.669   0.000  0.00  0.00    +0.000 C 
ATOM     53  C   UNL     1      21.425   1.117   0.000  0.00  0.00    +0.000 C 
ATOM     54  O   UNL     1      22.209   1.372   0.000  0.00  0.00    +0.000 OA
ENDBRANCH  51  53
BRANCH  51  55
ATOM     55  C   UNL     1      21.866  -0.242   0.000  0.00  0.00    +0.000 C 
ATOM     56  N   UNL     1      21.695  -1.049   0.000  0.00  0.00    +0.000 NA
ATOM     57  O   UNL     1      22.651   0.013   0.000  0.00  0.00    +0.000 OA
BRANCH  56  58
ATOM     58  C   UNL     1      22.308  -1.601   0.000  0.00  0.00    +0.000 C 
BRANCH  58  59
ATOM     59  C   UNL     1      23.092  -1.346   0.000  0.00  0.00    +0.000 C 
ATOM     60  N   UNL     1      23.705  -1.898   0.000  0.00  0.00    +0.000 NA
ATOM     61  O   UNL     1      23.264  -0.539   0.000  0.00  0.00    +0.000 OA
BRANCH  60  62
ATOM     62  C   UNL     1      24.490  -1.643   0.000  0.00  0.00    +0.000 C 
BRANCH  62  63
ATOM     63  C   UNL     1      24.662  -0.836   0.000  0.00  0.00    +0.000 C 
ATOM     64  N   UNL     1      25.446  -0.581   0.000  0.00  0.00    +0.000 NA
ATOM     65  O   UNL     1      24.049  -0.284   0.000  0.00  0.00    +0.000 OA
BRANCH  64  66
ATOM     66  C   UNL     1      25.618   0.226   0.000  0.00  0.00    +0.000 C 
BRANCH  66  67
ATOM     67  C   UNL     1      25.005   0.778   0.000  0.00  0.00    +0.000 C 
ATOM     68  N   UNL     1      25.176   1.585   0.000  0.00  0.00    +0.000 NA
ATOM     69  O   UNL     1      24.220   0.523   0.000  0.00  0.00    +0.000 OA
BRANCH  68  70
ATOM     70  C   UNL     1      24.563   2.137   0.000  0.00  0.00    +0.000 C 
BRANCH  70  71
ATOM     71  C   UNL     1      23.778   1.882   0.000  0.00  0.00    +0.000 C 
ATOM     72  N   UNL     1      23.607   1.075   0.000  0.00  0.00    +0.000 NA
ATOM     73  O   UNL     1      23.165   2.434   0.000  0.00  0.00    +0.000 OA
ENDBRANCH  70  71
BRANCH  70  74
ATOM     74  C   UNL     1      24.735   2.944   0.000  0.00  0.00    +0.000 C 
BRANCH  74  79
ATOM     75  C   UNL     1      26.132   2.647   0.000  0.00  0.00    +0.000 A 
ATOM     76  C   UNL     1      25.691   4.006   0.000  0.00  0.00    +0.000 A 
ATOM     77  C   UNL     1      26.917   2.902   0.000  0.00  0.00    +0.000 A 
ATOM     78  C   UNL     1      26.475   4.261   0.000  0.00  0.00    +0.000 A 
ATOM     79  C   UNL     1      25.519   3.199   0.000  0.00  0.00    +0.000 A 
ATOM     80  C   UNL     1      27.088   3.709   0.000  0.00  0.00    +0.000 A 
ATOM     81  O   UNL     1      27.873   3.964   0.000  0.00  0.00    +0.000 OA
ENDBRANCH  74  79
ENDBRANCH  70  74
ENDBRANCH  68  70
ENDBRANCH  66  67
BRANCH  66  82
ATOM     82  C   UNL     1      26.402   0.481   0.000  0.00  0.00    +0.000 C 
BRANCH  82  83
ATOM     83  C   UNL     1      27.015  -0.071   0.000  0.00  0.00    +0.000 C 
BRANCH  83  84
ATOM     84  C   UNL     1      27.800   0.184   0.000  0.00  0.00    +0.000 C 
BRANCH  84  88
ATOM     85  C   UNL     1      29.198  -0.113   0.000  0.00  0.00    +0.000 C 
ATOM     86  N   UNL     1      29.369   0.694   0.000  0.00  0.00    +0.000 NA
ATOM     87  N   UNL     1      29.811  -0.665   0.000  0.00  0.00    +0.000 NA
ATOM     88  N   UNL     1      28.413  -0.368   0.000  0.00  0.00    +0.000 NA
ENDBRANCH  84  88
ENDBRANCH  83  84
ENDBRANCH  82  83
ENDBRANCH  66  82
ENDBRANCH  64  66
ENDBRANCH  62  63
BRANCH  62  89
ATOM     89  C   UNL     1      25.103  -2.195   0.000  0.00  0.00    +0.000 C 
BRANCH  89  90
ATOM     90  C   UNL     1      24.932  -3.002   0.000  0.00  0.00    +0.000 C 
BRANCH  90  91
ATOM     91  C   UNL     1      25.545  -3.554   0.000  0.00  0.00    +0.000 C 
ATOM     92  N   UNL     1      26.329  -3.299   0.000  0.00  0.00    +0.000 NA
ATOM     93  O   UNL     1      25.373  -4.361   0.000  0.00  0.00    +0.000 OA
ENDBRANCH  90  91
ENDBRANCH  89  90
ENDBRANCH  62  89
ENDBRANCH  60  62
ENDBRANCH  58  59
BRANCH  58  94
ATOM     94  C   UNL     1      22.136  -2.408   0.000  0.00  0.00    +0.000 C 
BRANCH  94  95
ATOM     95  C   UNL     1      21.352  -2.663   0.000  0.00  0.00    +0.000 C 
BRANCH  95  96
ATOM     96  C   UNL     1      21.180  -3.470   0.000  0.00  0.00    +0.000 C 
BRANCH  96 100
ATOM     97  C   UNL     1      20.224  -4.532   0.000  0.00  0.00    +0.000 C 
ATOM     98  N   UNL     1      20.837  -5.084   0.000  0.00  0.00    +0.000 NA
ATOM     99  N   UNL     1      19.439  -4.787   0.000  0.00  0.00    +0.000 NA
ATOM    100  N   UNL     1      20.395  -3.725   0.000  0.00  0.00    +0.000 NA
ENDBRANCH  96 100
ENDBRANCH  95  96
ENDBRANCH  94  95
ENDBRANCH  58  94
ENDBRANCH  56  58
ENDBRANCH  51  55
ENDBRANCH  49  51
ENDBRANCH  47  48
BRANCH  47 101
ATOM    101  C   UNL     1      18.899  -0.455   0.000  0.00  0.00    +0.000 C 
BRANCH 101 104
ATOM    102  C   UNL     1      20.297  -0.752   0.000  0.00  0.00    +0.000 C 
ATOM    103  C   UNL     1      19.341  -1.814   0.000  0.00  0.00    +0.000 C 
ATOM    104  C   UNL     1      19.512  -1.007   0.000  0.00  0.00    +0.000 C 
ENDBRANCH 101 104
ENDBRANCH  47 101
ENDBRANCH  45  47
ENDBRANCH  43  44
BRANCH  43 105
ATOM    105  C   UNL     1      17.231   2.008   0.000  0.00  0.00    +0.000 C 
BRANCH 105 106
ATOM    106  C   UNL     1      18.016   2.263   0.000  0.00  0.00    +0.000 C 
BRANCH 106 108
ATOM    107  C   UNL     1      18.972   3.325   0.000  0.00  0.00    +0.000 C 
ATOM    108  S   UNL     1      18.188   3.070   0.000  0.00  0.00    +0.000 S 
ENDBRANCH 106 108
ENDBRANCH 105 106
ENDBRANCH  43 105
ENDBRANCH  41  43
ENDBRANCH  39  40
BRANCH  39 109
ATOM    109  C   UNL     1      14.706   0.437   0.000  0.00  0.00    +0.000 C 
BRANCH 109 110
ATOM    110  C   UNL     1      15.319  -0.115   0.000  0.00  0.00    +0.000 C 
ATOM    111  N   UNL     1      15.148  -0.922   0.000  0.00  0.00    +0.000 NA
ATOM    112  O   UNL     1      16.104   0.140   0.000  0.00  0.00    +0.000 OA
ENDBRANCH 109 110
ENDBRANCH  39 109
ENDBRANCH  37  39
ENDBRANCH  35  36
BRANCH  35 114
ATOM    113  C   UNL     1      12.425   3.452   0.000  0.00  0.00    +0.000 C 
ATOM    114  C   UNL     1      13.038   2.900   0.000  0.00  0.00    +0.000 C 
BRANCH 114 116
ATOM    115  C   UNL     1      13.994   3.962   0.000  0.00  0.00    +0.000 C 
ATOM    116  C   UNL     1      13.823   3.155   0.000  0.00  0.00    +0.000 C 
ENDBRANCH 114 116
ENDBRANCH  35 114
ENDBRANCH  33  35
ENDBRANCH  31  32
BRANCH  31 117
ATOM    117  C   UNL     1      10.954  -0.031   0.000  0.00  0.00    +0.000 C 
BRANCH 117 122
ATOM    118  C   UNL     1      11.396  -1.390   0.000  0.00  0.00    +0.000 A 
ATOM    119  C   UNL     1      12.352  -0.328   0.000  0.00  0.00    +0.000 A 
ATOM    120  C   UNL     1      12.009  -1.942   0.000  0.00  0.00    +0.000 A 
ATOM    121  C   UNL     1      12.965  -0.880   0.000  0.00  0.00    +0.000 A 
ATOM    122  C   UNL     1      11.568  -0.583   0.000  0.00  0.00    +0.000 A 
ATOM    123  C   UNL     1      12.794  -1.687   0.000  0.00  0.00    +0.000 A 
ATOM    124  O   UNL     1      13.407  -2.239   0.000  0.00  0.00    +0.000 OA
ENDBRANCH 117 122
ENDBRANCH  31 117
ENDBRANCH  29  31
ENDBRANCH  27  28
BRANCH  27 125
ATOM    125  C   UNL     1       9.287   2.432   0.000  0.00  0.00    +0.000 C 
BRANCH 125 126
ATOM    126  C   UNL     1      10.071   2.687   0.000  0.00  0.00    +0.000 C 
BRANCH 126 127
ATOM    127  C   UNL     1      10.243   3.494   0.000  0.00  0.00    +0.000 C 
BRANCH 127 131
ATOM    128  C   UNL     1      11.199   4.556   0.000  0.00  0.00    +0.000 C 
ATOM    129  N   UNL     1      10.586   5.108   0.000  0.00  0.00    +0.000 NA
ATOM    130  N   UNL     1      11.984   4.811   0.000  0.00  0.00    +0.000 NA
ATOM    131  N   UNL     1      11.027   3.749   0.000  0.00  0.00    +0.000 NA
ENDBRANCH 127 131
ENDBRANCH 126 127
ENDBRANCH 125 126
ENDBRANCH  27 125
ENDBRANCH  25  27
ENDBRANCH  23  24
BRANCH  23 132
ATOM    132  C   UNL     1       6.761   0.860   0.000  0.00  0.00    +0.000 C 
BRANCH 132 133
ATOM    133  C   UNL     1       6.933   1.667   0.000  0.00  0.00    +0.000 C 
BRANCH 133 134
ATOM    134  C   UNL     1       6.320   2.219   0.000  0.00  0.00    +0.000 C 
BRANCH 134 138
ATOM    135  C   UNL     1       5.878   3.578   0.000  0.00  0.00    +0.000 C 
ATOM    136  N   UNL     1       6.050   4.385   0.000  0.00  0.00    +0.000 NA
ATOM    137  N   UNL     1       5.093   3.323   0.000  0.00  0.00    +0.000 NA
ATOM    138  N   UNL     1       6.491   3.026   0.000  0.00  0.00    +0.000 NA
ENDBRANCH 134 138
ENDBRANCH 133 134
ENDBRANCH 132 133
ENDBRANCH  23 132
ENDBRANCH  21  23
ENDBRANCH  19  20
BRANCH  19 139
ATOM    139  C   UNL     1       6.860  -2.113   0.000  0.00  0.00    +0.000 C 
BRANCH 139 142
ATOM    140  C   UNL     1       7.816  -1.051   0.000  0.00  0.00    +0.000 C 
ATOM    141  C   UNL     1       8.258  -2.410   0.000  0.00  0.00    +0.000 C 
ATOM    142  C   UNL     1       7.644  -1.858   0.000  0.00  0.00    +0.000 C 
ENDBRANCH 139 142
ENDBRANCH  19 139
ENDBRANCH  17  19
ENDBRANCH  15  16
BRANCH  15 143
ATOM    143  C   UNL     1       4.334  -3.684   0.000  0.00  0.00    +0.000 C 
BRANCH 143 144
ATOM    144  C   UNL     1       4.947  -4.237   0.000  0.00  0.00    +0.000 C 
ATOM    145  O   UNL     1       5.732  -3.982   0.000  0.00  0.00    +0.000 OA
ATOM    146  O   UNL     1       4.776  -5.043   0.000  0.00  0.00    +0.000 OA
ENDBRANCH 143 144
ENDBRANCH  15 143
ENDBRANCH  13  15
ENDBRANCH  11  12
ENDBRANCH   8  11
ENDBRANCH   6   7
ENDBRANCH   3   6
ENDBRANCH   1   2
BRANCH   1 148
ATOM    147  C   UNL     1      -2.139   0.222   0.000  0.00  0.00    +0.000 C 
ATOM    148  N   UNL     1      -1.526  -0.330   0.000  0.00  0.00    +0.000 NA
ATOM    149  O   UNL     1      -2.924  -0.033   0.000  0.00  0.00    +0.000 OA
BRANCH 147 150
ATOM    150  C   UNL     1      -1.968   1.029   0.000  0.00  0.00    +0.000 C 
BRANCH 150 152
ATOM    151  C   UNL     1      -2.409   2.388   0.000  0.00  0.00    +0.000 C 
ATOM    152  N   UNL     1      -2.581   1.581   0.000  0.00  0.00    +0.000 NA
ATOM    153  O   UNL     1      -1.625   2.643   0.000  0.00  0.00    +0.000 OA
BRANCH 151 155
ATOM    154  C   UNL     1      -3.807   2.685   0.000  0.00  0.00    +0.000 C 
ATOM    155  C   UNL     1      -3.023   2.940   0.000  0.00  0.00    +0.000 C 
BRANCH 155 157
ATOM    156  C   UNL     1      -3.464   4.299   0.000  0.00  0.00    +0.000 C 
ATOM    157  N   UNL     1      -2.851   3.747   0.000  0.00  0.00    +0.000 NA
ATOM    158  O   UNL     1      -4.249   4.044   0.000  0.00  0.00    +0.000 OA
BRANCH 156 159
ATOM    159  C   UNL     1      -3.293   5.106   0.000  0.00  0.00    +0.000 C 
BRANCH 159 161
ATOM    160  C   UNL     1      -4.690   5.403   0.000  0.00  0.00    +0.000 C 
ATOM    161  N   UNL     1      -3.906   5.658   0.000  0.00  0.00    +0.000 NA
ATOM    162  O   UNL     1      -4.862   4.596   0.000  0.00  0.00    +0.000 OA
BRANCH 160 163
ATOM    163  C   UNL     1      -5.303   5.955   0.000  0.00  0.00    +0.000 C 
BRANCH 163 165
ATOM    164  C   UNL     1      -6.260   4.893   0.000  0.00  0.00    +0.000 C 
ATOM    165  N   UNL     1      -6.088   5.700   0.000  0.00  0.00    +0.000 NA
ATOM    166  O   UNL     1      -5.646   4.341   0.000  0.00  0.00    +0.000 OA
BRANCH 164 167
ATOM    167  C   UNL     1      -7.044   4.638   0.000  0.00  0.00    +0.000 C 
BRANCH 167 169
ATOM    168  C   UNL     1      -8.000   3.576   0.000  0.00  0.00    +0.000 C 
ATOM    169  N   UNL     1      -7.216   3.831   0.000  0.00  0.00    +0.000 NA
ATOM    170  O   UNL     1      -8.614   4.128   0.000  0.00  0.00    +0.000 OA
BRANCH 168 174
ATOM    171  C   UNL     1      -8.032   1.442   0.000  0.00  0.00    +0.000 C 
ATOM    172  C   UNL     1      -7.620   2.156   0.000  0.00  0.00    +0.000 C 
ATOM    173  C   UNL     1      -8.839   1.613   0.000  0.00  0.00    +0.000 C 
ATOM    174  C   UNL     1      -8.172   2.769   0.000  0.00  0.00    +0.000 C 
ATOM    175  C   UNL     1      -9.640   2.846   0.000  0.00  0.00    +0.000 C 
ATOM    176  N   UNL     1      -8.926   2.434   0.000  0.00  0.00    +0.000 N 
ATOM    177  O   UNL     1      -9.640   3.671   0.000  0.00  0.00    +0.000 OA
BRANCH 175 178
ATOM    178  C   UNL     1     -10.354   2.434   0.000  0.00  0.00    +0.000 C 
BRANCH 178 180
ATOM    179  C   UNL     1     -11.069   3.671   0.000  0.00  0.00    +0.000 C 
ATOM    180  C   UNL     1     -11.069   2.846   0.000  0.00  0.00    +0.000 C 
ATOM    181  O   UNL     1     -11.784   2.434   0.000  0.00  0.00    +0.000 OA
ENDBRANCH 178 180
BRANCH 178 183
ATOM    182  C   UNL     1     -11.069   1.196   0.000  0.00  0.00    +0.000 C 
ATOM    183  N   UNL     1     -10.354   1.609   0.000  0.00  0.00    +0.000 NA
ATOM    184  O   UNL     1     -11.784   1.609   0.000  0.00  0.00    +0.000 OA
BRANCH 182 186
ATOM    185  C   UNL     1     -10.354  -0.041   0.000  0.00  0.00    +0.000 C 
ATOM    186  C   UNL     1     -11.069   0.371   0.000  0.00  0.00    +0.000 C 
BRANCH 186 188
ATOM    187  C   UNL     1     -11.784  -0.866   0.000  0.00  0.00    +0.000 C 
ATOM    188  N   UNL     1     -11.784  -0.041   0.000  0.00  0.00    +0.000 NA
ATOM    189  O   UNL     1     -11.069  -1.279   0.000  0.00  0.00    +0.000 OA
BRANCH 187 190
ATOM    190  C   UNL     1     -12.498  -1.279   0.000  0.00  0.00    +0.000 C 
BRANCH 190 192
ATOM    191  C   UNL     1     -13.927  -1.279   0.000  0.00  0.00    +0.000 C 
ATOM    192  N   UNL     1     -13.212  -0.866   0.000  0.00  0.00    +0.000 NA
ATOM    193  O   UNL     1     -13.927  -2.104   0.000  0.00  0.00    +0.000 OA
BRANCH 191 194
ATOM    194  C   UNL     1     -14.641  -0.866   0.000  0.00  0.00    +0.000 C 
BRANCH 194 196
ATOM    195  C   UNL     1     -15.356  -2.104   0.000  0.00  0.00    +0.000 C 
ATOM    196  N   UNL     1     -15.356  -1.279   0.000  0.00  0.00    +0.000 NA
ATOM    197  O   UNL     1     -14.641  -2.516   0.000  0.00  0.00    +0.000 OA
BRANCH 195 198
ATOM    198  C   UNL     1     -16.070  -2.516   0.000  0.00  0.00    +0.000 C 
BRANCH 198 200
ATOM    199  C   UNL     1     -16.785  -3.754   0.000  0.00  0.00    +0.000 C 
ATOM    200  N   UNL     1     -16.070  -3.341   0.000  0.00  0.00    +0.000 NA
ATOM    201  O   UNL     1     -17.499  -3.341   0.000  0.00  0.00    +0.000 OA
BRANCH 199 205
ATOM    202  C   UNL     1     -16.372  -5.848   0.000  0.00  0.00    +0.000 C 
ATOM    203  C   UNL     1     -16.117  -5.064   0.000  0.00  0.00    +0.000 C 
ATOM    204  C   UNL     1     -17.197  -5.848   0.000  0.00  0.00    +0.000 C 
ATOM    205  C   UNL     1     -16.785  -4.579   0.000  0.00  0.00    +0.000 C 
ATOM    206  C   UNL     1     -18.237  -4.809   0.000  0.00  0.00    +0.000 C 
ATOM    207  N   UNL     1     -17.452  -5.064   0.000  0.00  0.00    +0.000 N 
ATOM    208  O   UNL     1     -18.408  -4.002   0.000  0.00  0.00    +0.000 OA
BRANCH 206 209
ATOM    209  C   UNL     1     -18.850  -5.361   0.000  0.00  0.00    +0.000 C 
BRANCH 209 211
ATOM    210  C   UNL     1     -19.806  -4.299   0.000  0.00  0.00    +0.000 C 
ATOM    211  N   UNL     1     -19.635  -5.106   0.000  0.00  0.00    +0.000 NA
ATOM    212  O   UNL     1     -19.193  -3.747   0.000  0.00  0.00    +0.000 OA
BRANCH 210 213
ATOM    213  C   UNL     1     -20.591  -4.044   0.000  0.00  0.00    +0.000 C 
BRANCH 213 215
ATOM    214  C   UNL     1     -21.988  -4.341   0.000  0.00  0.00    +0.000 C 
ATOM    215  N   UNL     1     -21.204  -4.596   0.000  0.00  0.00    +0.000 NA
ATOM    216  O   UNL     1     -22.160  -3.534   0.000  0.00  0.00    +0.000 OA
BRANCH 214 220
ATOM    217  C   UNL     1     -23.269  -6.049   0.000  0.00  0.00    +0.000 C 
ATOM    218  C   UNL     1     -22.515  -5.713   0.000  0.00  0.00    +0.000 C 
ATOM    219  C   UNL     1     -23.821  -5.436   0.000  0.00  0.00    +0.000 C 
ATOM    220  C   UNL     1     -22.602  -4.893   0.000  0.00  0.00    +0.000 C 
ATOM    221  C   UNL     1     -23.744  -3.968   0.000  0.00  0.00    +0.000 C 
ATOM    222  N   UNL     1     -23.409  -4.721   0.000  0.00  0.00    +0.000 N 
ATOM    223  O   UNL     1     -23.259  -3.300   0.000  0.00  0.00    +0.000 OA
BRANCH 221 224
ATOM    224  C   UNL     1     -24.564  -3.882   0.000  0.00  0.00    +0.000 C 
BRANCH 224 226
ATOM    225  C   UNL     1     -25.721  -3.042   0.000  0.00  0.00    +0.000 C 
ATOM    226  N   UNL     1     -24.900  -3.128   0.000  0.00  0.00    +0.000 NA
ATOM    227  O   UNL     1     -26.206  -3.709   0.000  0.00  0.00    +0.000 OA
BRANCH 225 228
ATOM    228  C   UNL     1     -26.056  -2.288   0.000  0.00  0.00    +0.000 C 
BRANCH 228 230
ATOM    229  C   UNL     1     -27.212  -1.448   0.000  0.00  0.00    +0.000 C 
ATOM    230  N   UNL     1     -26.877  -2.202   0.000  0.00  0.00    +0.000 NA
ATOM    231  O   UNL     1     -27.212  -0.623   0.000  0.00  0.00    +0.000 OA
BRANCH 229 235
ATOM    232  C   UNL     1     -29.252  -0.819   0.000  0.00  0.00    +0.000 C 
ATOM    233  C   UNL     1     -28.445  -0.647   0.000  0.00  0.00    +0.000 C 
ATOM    234  C   UNL     1     -29.338  -1.639   0.000  0.00  0.00    +0.000 C 
ATOM    235  C   UNL     1     -28.033  -1.362   0.000  0.00  0.00    +0.000 C 
ATOM    236  C   UNL     1     -28.413  -2.782   0.000  0.00  0.00    +0.000 C 
ATOM    237  N   UNL     1     -28.585  -1.975   0.000  0.00  0.00    +0.000 N 
ATOM    238  O   UNL     1     -27.628  -3.037   0.000  0.00  0.00    +0.000 OA
BRANCH 236 240
ATOM    239  C   UNL     1     -28.855  -4.141   0.000  0.00  0.00    +0.000 C 
ATOM    240  C   UNL     1     -29.026  -3.334   0.000  0.00  0.00    +0.000 C 
ATOM    241  N   UNL     1     -29.811  -3.079   0.000  0.00  0.00    +0.000 NA
ENDBRANCH 236 240
ENDBRANCH 229 235
ENDBRANCH 228 230
BRANCH 228 242
ATOM    242  C   UNL     1     -25.571  -1.621   0.000  0.00  0.00    +0.000 C 
BRANCH 242 245
ATOM    243  C   UNL     1     -26.727  -0.781   0.000  0.00  0.00    +0.000 C 
ATOM    244  C   UNL     1     -25.422  -0.200   0.000  0.00  0.00    +0.000 C 
ATOM    245  C   UNL     1     -25.907  -0.867   0.000  0.00  0.00    +0.000 C 
ENDBRANCH 242 245
ENDBRANCH 228 242
ENDBRANCH 225 228
ENDBRANCH 224 226
BRANCH 224 246
ATOM    246  C   UNL     1     -25.049  -4.549   0.000  0.00  0.00    +0.000 C 
BRANCH 246 247
ATOM    247  C   UNL     1     -25.870  -4.463   0.000  0.00  0.00    +0.000 C 
BRANCH 247 248
ATOM    248  C   UNL     1     -26.355  -5.130   0.000  0.00  0.00    +0.000 C 
ATOM    249  O   UNL     1     -26.019  -5.884   0.000  0.00  0.00    +0.000 OA
ATOM    250  O   UNL     1     -27.175  -5.044   0.000  0.00  0.00    +0.000 OA
ENDBRANCH 247 248
ENDBRANCH 246 247
ENDBRANCH 224 246
ENDBRANCH 221 224
ENDBRANCH 214 220
ENDBRANCH 213 215
BRANCH 213 253
ATOM    251  C   UNL     1     -21.547  -2.982   0.000  0.00  0.00    +0.000 C 
ATOM    252  C   UNL     1     -20.149  -2.685   0.000  0.00  0.00    +0.000 C 
ATOM    253  C   UNL     1     -20.762  -3.237   0.000  0.00  0.00    +0.000 C 
ENDBRANCH 213 253
ENDBRANCH 210 213
ENDBRANCH 209 211
BRANCH 209 254
ATOM    254  C   UNL     1     -18.678  -6.168   0.000  0.00  0.00    +0.000 C 
BRANCH 254 259
ATOM    255  C   UNL     1     -20.076  -6.465   0.000  0.00  0.00    +0.000 A 
ATOM    256  C   UNL     1     -19.120  -7.527   0.000  0.00  0.00    +0.000 A 
ATOM    257  C   UNL     1     -20.689  -7.017   0.000  0.00  0.00    +0.000 A 
ATOM    258  C   UNL     1     -19.733  -8.079   0.000  0.00  0.00    +0.000 A 
ATOM    259  C   UNL     1     -19.291  -6.720   0.000  0.00  0.00    +0.000 A 
ATOM    260  C   UNL     1     -20.518  -7.824   0.000  0.00  0.00    +0.000 A 
ATOM    261  O   UNL     1     -21.131  -8.376   0.000  0.00  0.00    +0.000 OA
ENDBRANCH 254 259
ENDBRANCH 209 254
ENDBRANCH 206 209
ENDBRANCH 199 205
ENDBRANCH 198 200
ENDBRANCH 195 198
ENDBRANCH 194 196
BRANCH 194 262
ATOM    262  C   UNL     1     -14.641  -0.041   0.000  0.00  0.00    +0.000 C 
BRANCH 262 263
ATOM    263  C   UNL     1     -15.356   0.371   0.000  0.00  0.00    +0.000 C 
ATOM    264  O   UNL     1     -16.070  -0.041   0.000  0.00  0.00    +0.000 OA
ATOM    265  O   UNL     1     -15.356   1.196   0.000  0.00  0.00    +0.000 OA
ENDBRANCH 262 263
ENDBRANCH 194 262
ENDBRANCH 191 194
ENDBRANCH 190 192
BRANCH 190 266
ATOM    266  C   UNL     1     -12.498  -2.104   0.000  0.00  0.00    +0.000 C 
BRANCH 266 267
ATOM    267  C   UNL     1     -11.784  -2.516   0.000  0.00  0.00    +0.000 C 
ATOM    268  N   UNL     1     -11.069  -2.104   0.000  0.00  0.00    +0.000 NA
ATOM    269  O   UNL     1     -11.784  -3.341   0.000  0.00  0.00    +0.000 OA
ENDBRANCH 266 267
ENDBRANCH 190 266
ENDBRANCH 187 190
ENDBRANCH 186 188
ENDBRANCH 182 186
ENDBRANCH 178 183
ENDBRANCH 175 178
ENDBRANCH 168 174
ENDBRANCH 167 169
BRANCH 167 270
ATOM    270  C   UNL     1      -7.657   5.190   0.000  0.00  0.00    +0.000 C 
BRANCH 270 271
ATOM    271  C   UNL     1      -7.486   5.997   0.000  0.00  0.00    +0.000 C 
BRANCH 271 272
ATOM    272  C   UNL     1      -8.099   6.549   0.000  0.00  0.00    +0.000 C 
ATOM    273  O   UNL     1      -8.883   6.294   0.000  0.00  0.00    +0.000 OA
ATOM    274  O   UNL     1      -7.927   7.356   0.000  0.00  0.00    +0.000 OA
ENDBRANCH 271 272
ENDBRANCH 270 271
ENDBRANCH 167 270
ENDBRANCH 164 167
ENDBRANCH 163 165
BRANCH 163 275
ATOM    275  C   UNL     1      -5.132   6.762   0.000  0.00  0.00    +0.000 C 
BRANCH 275 276
ATOM    276  C   UNL     1      -4.347   7.017   0.000  0.00  0.00    +0.000 C 
BRANCH 276 277
ATOM    277  C   UNL     1      -4.176   7.824   0.000  0.00  0.00    +0.000 C 
ATOM    278  N   UNL     1      -4.789   8.376   0.000  0.00  0.00    +0.000 NA
ATOM    279  O   UNL     1      -3.391   8.079   0.000  0.00  0.00    +0.000 OA
ENDBRANCH 276 277
ENDBRANCH 275 276
ENDBRANCH 163 275
ENDBRANCH 160 163
ENDBRANCH 159 161
BRANCH 159 280
ATOM    280  C   UNL     1      -2.508   5.361   0.000  0.00  0.00    +0.000 C 
BRANCH 280 281
ATOM    281  C   UNL     1      -1.895   4.809   0.000  0.00  0.00    +0.000 C 
BRANCH 281 283
ATOM    282  C   UNL     1      -0.497   4.512   0.000  0.00  0.00    +0.000 C 
ATOM    283  S   UNL     1      -1.110   5.064   0.000  0.00  0.00    +0.000 S 
ENDBRANCH 281 283
ENDBRANCH 280 281
ENDBRANCH 159 280
ENDBRANCH 156 159
ENDBRANCH 155 157
ENDBRANCH 151 155
ENDBRANCH 150 152
BRANCH 150 284
ATOM    284  C   UNL     1      -1.183   1.284   0.000  0.00  0.00    +0.000 C 
BRANCH 284 285
ATOM    285  C   UNL     1      -0.570   0.732   0.000  0.00  0.00    +0.000 C 
BRANCH 285 286
ATOM    286  C   UNL     1       0.214   0.987   0.000  0.00  0.00    +0.000 C 
ATOM    287  N   UNL     1       0.827   0.435   0.000  0.00  0.00    +0.000 NA
ATOM    288  O   UNL     1       0.386   1.794   0.000  0.00  0.00    +0.000 OA
ENDBRANCH 285 286
ENDBRANCH 284 285
ENDBRANCH 150 284
ENDBRANCH 147 150
ENDBRANCH   1 148
BRANCH   1 289
ATOM    289  C   UNL     1      -2.482  -1.392   0.000  0.00  0.00    +0.000 C 
BRANCH 289 294
ATOM    290  C   UNL     1      -3.439  -2.454   0.000  0.00  0.00    +0.000 A 
ATOM    291  C   UNL     1      -2.041  -2.751   0.000  0.00  0.00    +0.000 A 
ATOM    292  C   UNL     1      -3.610  -3.261   0.000  0.00  0.00    +0.000 A 
ATOM    293  C   UNL     1      -2.212  -3.558   0.000  0.00  0.00    +0.000 A 
ATOM    294  C   UNL     1      -2.654  -2.199   0.000  0.00  0.00    +0.000 A 
ATOM    295  C   UNL     1      -2.997  -3.813   0.000  0.00  0.00    +0.000 A 
ATOM    296  O   UNL     1      -3.169  -4.620   0.000  0.00  0.00    +0.000 OA
ENDBRANCH 289 294
ENDBRANCH   1 289
TORSDOF 131
