REMARK  Name = 
REMARK  7 active torsions:
REMARK  status: ('A' for Active; 'I' for Inactive)
REMARK    1  A    between atoms: N_9  and  C_16
REMARK    2  A    between atoms: N_12  and  C_14
REMARK    3  A    between atoms: C_18  and  C_32
REMARK    4  A    between atoms: C_22  and  C_24
REMARK    5  A    between atoms: C_25  and  C_26
REMARK    6  A    between atoms: C_32  and  O_33
REMARK    7  A    between atoms: O_33  and  P_36
REMARK                            x       y       z     vdW  Elec       q    Type
REMARK                         _______ _______ _______ _____ _____    ______ ____
ROOT
ATOM      1  C   UNL     1      -1.290  -0.674   0.000  0.00  0.00    +0.000 C 
ATOM      2  O   UNL     1      -1.961  -1.156   0.000  0.00  0.00    +0.000 OA
ATOM      3  C   UNL     1      -1.711  -1.939   0.000  0.00  0.00    +0.000 C 
ATOM      4  C   UNL     1      -0.631  -1.163   0.000  0.00  0.00    +0.000 C 
ATOM      5  C   UNL     1      -0.887  -1.949   0.000  0.00  0.00    +0.000 C 
ATOM      6  O   UNL     1      -0.220  -2.435   0.000  0.00  0.00    +0.000 OA
ATOM      7  C   UNL     1       0.449  -1.950   0.000  0.00  0.00    +0.000 C 
ATOM      8  O   UNL     1       0.195  -1.165   0.000  0.00  0.00    +0.000 OA
ENDROOT
BRANCH   1  17
ATOM      9  N   UNL     1       0.218  -0.010   0.000  0.00  0.00    +0.000 NA
ATOM     10  C   UNL     1       0.935   0.403   0.000  0.00  0.00    +0.000 A 
ATOM     11  N   UNL     1       0.932   1.234   0.000  0.00  0.00    +0.000 NA
ATOM     12  C   UNL     1       0.217   1.643   0.000  0.00  0.00    +0.000 A 
ATOM     13  C   UNL     1      -0.496   0.403   0.000  0.00  0.00    +0.000 A 
ATOM     14  C   UNL     1      -0.495   1.232   0.000  0.00  0.00    +0.000 A 
ATOM     15  N   UNL     1      -1.283   1.489   0.000  0.00  0.00    +0.000 NA
ATOM     16  C   UNL     1      -1.771   0.819   0.000  0.00  0.00    +0.000 A 
ATOM     17  N   UNL     1      -1.285   0.148   0.000  0.00  0.00    +0.000 N 
ATOM     18  N   UNL     1       0.215   2.468   0.000  0.00  0.00    +0.000 NA
ATOM     19  C   UNL     1       0.928   2.882   0.000  0.00  0.00    +0.000 C 
ATOM     20  N   UNL     1       0.927   3.707   0.000  0.00  0.00    +0.000 NA
ATOM     21  O   UNL     1       1.644   2.471   0.000  0.00  0.00    +0.000 OA
BRANCH  20  22
ATOM     22  C   UNL     1       1.640   4.121   0.000  0.00  0.00    +0.000 C 
ATOM     23  C   UNL     1       2.356   3.710   0.000  0.00  0.00    +0.000 C 
ENDBRANCH  20  22
ENDBRANCH   1  17
BRANCH   7  24
ATOM     24  C   UNL     1       1.234  -2.206   0.000  0.00  0.00    +0.000 C 
ATOM     25  C   UNL     1       1.944  -1.786   0.000  0.00  0.00    +0.000 C 
BRANCH  25  26
ATOM     26  C   UNL     1       2.662  -2.192   0.000  0.00  0.00    +0.000 A 
ATOM     27  C   UNL     1       2.666  -3.017   0.000  0.00  0.00    +0.000 A 
ATOM     28  C   UNL     1       3.384  -3.422   0.000  0.00  0.00    +0.000 A 
ATOM     29  C   UNL     1       4.095  -3.002   0.000  0.00  0.00    +0.000 A 
ATOM     30  C   UNL     1       4.084  -2.173   0.000  0.00  0.00    +0.000 A 
ATOM     31  C   UNL     1       3.366  -1.771   0.000  0.00  0.00    +0.000 A 
ENDBRANCH  25  26
ENDBRANCH   7  24
BRANCH   3  32
ATOM     32  C   UNL     1      -2.123  -2.653   0.000  0.00  0.00    +0.000 C 
BRANCH  32  33
ATOM     33  O   UNL     1      -2.948  -2.654   0.000  0.00  0.00    +0.000 OA
BRANCH  33  34
ATOM     34  P   UNL     1      -3.360  -3.369   0.000  0.00  0.00    +0.000 P 
ATOM     35  O   UNL     1      -3.696  -4.121   0.000  0.00  0.00    +0.000 OA
ATOM     36  O   UNL     1      -4.095  -2.994   0.000  0.00  0.00    +0.000 OA
ATOM     37  O   UNL     1      -2.626  -3.744   0.000  0.00  0.00    +0.000 OA
ENDBRANCH  33  34
ENDBRANCH  32  33
ENDBRANCH   3  32
TORSDOF 7
