REMARK  Name = 
REMARK  9 active torsions:
REMARK  status: ('A' for Active; 'I' for Inactive)
REMARK    1  A    between atoms: C_2  and  C_4
REMARK    2  A    between atoms: C_4  and  O_6
REMARK    3  A    between atoms: O_6  and  C_7
REMARK    4  A    between atoms: C_7  and  C_8
REMARK    5  A    between atoms: C_8  and  N_28
REMARK    6  A    between atoms: C_10  and  N_20
REMARK    7  A    between atoms: C_13  and  O_14
REMARK    8  A    between atoms: O_14  and  C_15
REMARK    9  A    between atoms: C_15  and  C_17
REMARK                            x       y       z     vdW  Elec       q    Type
REMARK                         _______ _______ _______ _____ _____    ______ ____
ROOT
ATOM      1  C   UNL     1       1.950  -4.220   0.000  0.00  0.00    +0.000 C 
ATOM      2  O   UNL     1       2.563  -3.668   0.000  0.00  0.00    +0.000 OA
ATOM      3  C   UNL     1       3.278  -4.081   0.000  0.00  0.00    +0.000 C 
ATOM      4  C   UNL     1       3.107  -4.888   0.000  0.00  0.00    +0.000 C 
ATOM      5  C   UNL     1       3.659  -5.501   0.000  0.00  0.00    +0.000 C 
ATOM      6  C   UNL     1       2.286  -4.974   0.000  0.00  0.00    +0.000 C 
ENDROOT
BRANCH   3   7
ATOM      7  N   UNL     1       4.032  -3.745   0.000  0.00  0.00    +0.000 N 
ATOM      8  C   UNL     1       4.118  -2.925   0.000  0.00  0.00    +0.000 A 
ATOM      9  C   UNL     1       4.872  -2.589   0.000  0.00  0.00    +0.000 A 
ATOM     10  C   UNL     1       5.539  -3.074   0.000  0.00  0.00    +0.000 A 
ATOM     11  N   UNL     1       6.293  -2.739   0.000  0.00  0.00    +0.000 NA
ATOM     12  N   UNL     1       5.453  -3.895   0.000  0.00  0.00    +0.000 NA
ATOM     13  C   UNL     1       4.699  -4.230   0.000  0.00  0.00    +0.000 A 
ATOM     14  O   UNL     1       4.613  -5.051   0.000  0.00  0.00    +0.000 OA
ENDBRANCH   3   7
BRANCH   1  15
ATOM     15  N   UNL     1       1.466  -3.553   0.000  0.00  0.00    +0.000 NA
ATOM     16  N   UNL     1       1.801  -2.799   0.000  0.00  0.00    +0.000 NA
ATOM     17  N   UNL     1       2.137  -2.046   0.000  0.00  0.00    +0.000 NA
ENDBRANCH   1  15
BRANCH   1  18
ATOM     18  C   UNL     1       1.236  -4.633   0.000  0.00  0.00    +0.000 C 
BRANCH  18  19
ATOM     19  O   UNL     1       0.521  -4.220   0.000  0.00  0.00    +0.000 OA
BRANCH  19  20
ATOM     20  C   UNL     1      -0.193  -4.633   0.000  0.00  0.00    +0.000 C 
ATOM     21  O   UNL     1      -0.193  -5.458   0.000  0.00  0.00    +0.000 OA
BRANCH  20  23
ATOM     22  C   UNL     1      -1.622  -4.633   0.000  0.00  0.00    +0.000 C 
ATOM     23  C   UNL     1      -0.907  -4.220   0.000  0.00  0.00    +0.000 C 
ATOM     24  C   UNL     1      -0.907  -3.395   0.000  0.00  0.00    +0.000 C 
ENDBRANCH  20  23
ENDBRANCH  19  20
ENDBRANCH  18  19
ENDBRANCH   1  18
BRANCH   6  25
ATOM     25  O   UNL     1       1.873  -5.689   0.000  0.00  0.00    +0.000 OA
BRANCH  25  26
ATOM     26  C   UNL     1       1.048  -5.689   0.000  0.00  0.00    +0.000 C 
ATOM     27  O   UNL     1       0.636  -4.974   0.000  0.00  0.00    +0.000 OA
BRANCH  26  28
ATOM     28  C   UNL     1       0.636  -6.403   0.000  0.00  0.00    +0.000 C 
ATOM     29  C   UNL     1       1.048  -7.117   0.000  0.00  0.00    +0.000 C 
ATOM     30  C   UNL     1      -0.189  -6.403   0.000  0.00  0.00    +0.000 C 
ENDBRANCH  26  28
ENDBRANCH  25  26
ENDBRANCH   6  25
TORSDOF 9
