REMARK  Name = 
REMARK  3 active torsions:
REMARK  status: ('A' for Active; 'I' for Inactive)
REMARK    1  A    between atoms: C_5  and  C_6
REMARK    2  A    between atoms: C_6  and  O_11
REMARK    3  A    between atoms: C_8  and  O_11
REMARK                            x       y       z     vdW  Elec       q    Type
REMARK                         _______ _______ _______ _____ _____    ______ ____
ROOT
ATOM      1  C   UNL     1       1.072  -1.238   0.000  0.00  0.00    +0.000 A 
ATOM      2  C   UNL     1      -0.357  -1.238   0.000  0.00  0.00    +0.000 A 
ATOM      3  C   UNL     1       1.072  -0.412   0.000  0.00  0.00    +0.000 A 
ATOM      4  C   UNL     1      -0.357  -0.412   0.000  0.00  0.00    +0.000 A 
ATOM      5  C   UNL     1       0.357  -1.650   0.000  0.00  0.00    +0.000 A 
ATOM      6  C   UNL     1       0.357   0.000   0.000  0.00  0.00    +0.000 A 
ATOM      7 CL   UNL     1       0.357  -2.475   0.000  0.00  0.00    +0.000 Cl
ENDROOT
BRANCH   6   8
ATOM      8  O   UNL     1       0.357   0.825   0.000  0.00  0.00    +0.000 OA
BRANCH   8   9
ATOM      9  C   UNL     1      -0.357   1.238   0.000  0.00  0.00    +0.000 C 
BRANCH   9  10
ATOM     10  C   UNL     1      -0.357   2.062   0.000  0.00  0.00    +0.000 C 
ATOM     11  O   UNL     1      -1.072   2.475   0.000  0.00  0.00    +0.000 OA
ENDBRANCH   9  10
ENDBRANCH   8   9
ENDBRANCH   6   8
TORSDOF 3
