REMARK  Name = 
REMARK  10 active torsions:
REMARK  status: ('A' for Active; 'I' for Inactive)
REMARK    1  A    between atoms: C_2  and  C_3
REMARK    2  A    between atoms: C_9  and  C_11
REMARK    3  A    between atoms: C_13  and  S_20
REMARK    4  A    between atoms: C_16  and  O_17
REMARK    5  A    between atoms: O_17  and  C_18
REMARK    6  A    between atoms: S_20  and  N_23
REMARK    7  A    between atoms: N_26  and  C_29
REMARK    8  A    between atoms: N_32  and  C_33
REMARK    9  A    between atoms: C_33  and  C_34
REMARK   10  A    between atoms: C_34  and  O_35
REMARK                            x       y       z     vdW  Elec       q    Type
REMARK                         _______ _______ _______ _____ _____    ______ ____
ROOT
ATOM      1  C   UNL     1       2.784  -1.523   0.000  0.00  0.00    +0.000 A 
ATOM      2  C   UNL     1       3.499  -1.110   0.000  0.00  0.00    +0.000 A 
ATOM      3  C   UNL     1       4.213  -1.523   0.000  0.00  0.00    +0.000 A 
ATOM      4  C   UNL     1       4.213  -2.348   0.000  0.00  0.00    +0.000 A 
ATOM      5  N   UNL     1       3.499  -2.760   0.000  0.00  0.00    +0.000 NA
ATOM      6  C   UNL     1       2.784  -2.348   0.000  0.00  0.00    +0.000 A 
ENDROOT
BRANCH   1  13
ATOM      7  C   UNL     1      -0.143  -1.365   0.000  0.00  0.00    +0.000 A 
ATOM      8  C   UNL     1       0.641  -1.110   0.000  0.00  0.00    +0.000 A 
ATOM      9  C   UNL     1       0.641  -0.285   0.000  0.00  0.00    +0.000 A 
ATOM     10  C   UNL     1       1.356   0.127   0.000  0.00  0.00    +0.000 A 
ATOM     11  O   UNL     1       1.356   0.952   0.000  0.00  0.00    +0.000 OA
ATOM     12  N   UNL     1       2.070  -0.285   0.000  0.00  0.00    +0.000 NA
ATOM     13  C   UNL     1       2.070  -1.110   0.000  0.00  0.00    +0.000 A 
ATOM     14  N   UNL     1       1.356  -1.523   0.000  0.00  0.00    +0.000 NA
ATOM     15  N   UNL     1      -0.143  -0.030   0.000  0.00  0.00    +0.000 NA
ATOM     16  N   UNL     1      -0.628  -0.698   0.000  0.00  0.00    +0.000 N 
BRANCH   7  18
ATOM     17  C   UNL     1      -1.205  -2.321   0.000  0.00  0.00    +0.000 C 
ATOM     18  C   UNL     1      -0.398  -2.150   0.000  0.00  0.00    +0.000 C 
ENDBRANCH   7  18
BRANCH  16  19
ATOM     19  C   UNL     1      -1.453  -0.698   0.000  0.00  0.00    +0.000 C 
BRANCH  19  20
ATOM     20  C   UNL     1      -1.866  -1.412   0.000  0.00  0.00    +0.000 C 
BRANCH  20  21
ATOM     21  O   UNL     1      -2.691  -1.412   0.000  0.00  0.00    +0.000 OA
ATOM     22  C   UNL     1      -3.103  -2.127   0.000  0.00  0.00    +0.000 C 
ENDBRANCH  20  21
ENDBRANCH  19  20
ENDBRANCH  16  19
ENDBRANCH   1  13
BRANCH   3  23
ATOM     23  S   UNL     1       4.928  -1.110   0.000  0.00  0.00    +0.000 S 
ATOM     24  O   UNL     1       4.515  -0.396   0.000  0.00  0.00    +0.000 OA
ATOM     25  O   UNL     1       5.340  -1.825   0.000  0.00  0.00    +0.000 OA
BRANCH  23  26
ATOM     26  N   UNL     1       5.642  -0.698   0.000  0.00  0.00    +0.000 NA
ATOM     27  C   UNL     1       5.642   0.127   0.000  0.00  0.00    +0.000 C 
ATOM     28  C   UNL     1       6.357   0.540   0.000  0.00  0.00    +0.000 C 
ATOM     29  N   UNL     1       7.071   0.127   0.000  0.00  0.00    +0.000 NA
ATOM     30  C   UNL     1       7.071  -0.698   0.000  0.00  0.00    +0.000 C 
ATOM     31  C   UNL     1       6.357  -1.110   0.000  0.00  0.00    +0.000 C 
BRANCH  29  32
ATOM     32  C   UNL     1       7.786   0.540   0.000  0.00  0.00    +0.000 C 
ATOM     33  C   UNL     1       8.500   0.127   0.000  0.00  0.00    +0.000 C 
ENDBRANCH  29  32
ENDBRANCH  23  26
ENDBRANCH   3  23
BRANCH   6  34
ATOM     34  O   UNL     1       2.070  -2.760   0.000  0.00  0.00    +0.000 OA
BRANCH  34  35
ATOM     35  C   UNL     1       2.070  -3.585   0.000  0.00  0.00    +0.000 C 
ATOM     36  C   UNL     1       1.356  -3.998   0.000  0.00  0.00    +0.000 C 
ENDBRANCH  34  35
ENDBRANCH   6  34
TORSDOF 10
