REMARK  Name = 
REMARK  3 active torsions:
REMARK  status: ('A' for Active; 'I' for Inactive)
REMARK    1  A    between atoms: C_2  and  C_11
REMARK    2  A    between atoms: C_7  and  C_8
REMARK    3  A    between atoms: C_16  and  C_17
REMARK                            x       y       z     vdW  Elec       q    Type
REMARK                         _______ _______ _______ _____ _____    ______ ____
ROOT
ATOM      1  C   UNL     1       3.352   1.935   0.000  0.00  0.00    +0.000 C 
ATOM      2  C   UNL     1       3.352   1.110   0.000  0.00  0.00    +0.000 C 
ATOM      3  C   UNL     1       2.638   0.698   0.000  0.00  0.00    +0.000 C 
ATOM      4  C   UNL     1       1.923   1.110   0.000  0.00  0.00    +0.000 C 
ATOM      5  C   UNL     1       1.923   1.935   0.000  0.00  0.00    +0.000 C 
ATOM      6  C   UNL     1       2.638   2.348   0.000  0.00  0.00    +0.000 C 
ATOM      7  C   UNL     1       1.139   2.190   0.000  0.00  0.00    +0.000 C 
ATOM      8  C   UNL     1       0.654   1.523   0.000  0.00  0.00    +0.000 C 
ATOM      9  C   UNL     1       1.139   0.856   0.000  0.00  0.00    +0.000 C 
ATOM     10  C   UNL     1       0.884   0.071   0.000  0.00  0.00    +0.000 C 
ATOM     11  C   UNL     1       1.837   0.290   0.000  0.00  0.00    +0.000 C 
ENDROOT
BRANCH   1  13
ATOM     12  C   UNL     1       4.349   1.573   0.000  0.00  0.00    +0.000 C 
ATOM     13  C   UNL     1       4.067   2.348   0.000  0.00  0.00    +0.000 C 
ATOM     14  C   UNL     1       3.537   2.980   0.000  0.00  0.00    +0.000 C 
ATOM     15  C   UNL     1       3.819   3.755   0.000  0.00  0.00    +0.000 C 
ATOM     16  C   UNL     1       4.631   3.898   0.000  0.00  0.00    +0.000 C 
ATOM     17  C   UNL     1       5.161   3.266   0.000  0.00  0.00    +0.000 C 
ATOM     18  C   UNL     1       4.879   2.491   0.000  0.00  0.00    +0.000 C 
ATOM     19  O   UNL     1       4.913   4.674   0.000  0.00  0.00    +0.000 OA
BRANCH  18  20
ATOM     20  C   UNL     1       5.410   1.859   0.000  0.00  0.00    +0.000 C 
ATOM     21  O   UNL     1       5.127   1.084   0.000  0.00  0.00    +0.000 OA
ENDBRANCH  18  20
ENDBRANCH   1  13
BRANCH   6  22
ATOM     22  C   UNL     1       2.638   3.173   0.000  0.00  0.00    +0.000 C 
ATOM     23  N   UNL     1       3.352   3.585   0.000  0.00  0.00    +0.000 NA
ENDBRANCH   6  22
TORSDOF 3
