REMARK  Name = 
REMARK  4 active torsions:
REMARK  status: ('A' for Active; 'I' for Inactive)
REMARK    1  A    between atoms: C_1  and  C_7
REMARK    2  A    between atoms: C_7  and  C_12
REMARK    3  A    between atoms: C_10  and  C_11
REMARK    4  A    between atoms: C_11  and  C_12
REMARK                            x       y       z     vdW  Elec       q    Type
REMARK                         _______ _______ _______ _____ _____    ______ ____
ROOT
ATOM      1  C   UNL     1       0.715  -0.422   0.000  0.00  0.00    +0.000 A 
ATOM      2  N   UNL     1       1.434  -0.821   0.000  0.00  0.00    +0.000 N 
ATOM      3  C   UNL     1       2.150  -0.422   0.000  0.00  0.00    +0.000 A 
ATOM      4  C   UNL     1       0.715   0.410   0.000  0.00  0.00    +0.000 A 
ATOM      5  C   UNL     1       2.150   0.410   0.000  0.00  0.00    +0.000 A 
ATOM      6  C   UNL     1       1.434   0.821   0.000  0.00  0.00    +0.000 A 
ATOM      7  O   UNL     1       2.872  -0.821   0.000  0.00  0.00    +0.000 OA
ATOM      8  O   UNL     1       1.434  -1.645   0.000  0.00  0.00    +0.000 OA
ATOM      9  C   UNL     1       1.434   1.645   0.000  0.00  0.00    +0.000 C 
ENDROOT
BRANCH   1  10
ATOM     10  C   UNL     1      -0.004  -0.827   0.000  0.00  0.00    +0.000 C 
BRANCH  10  11
ATOM     11  C   UNL     1      -0.723  -0.425   0.000  0.00  0.00    +0.000 C 
ATOM     12  C   UNL     1      -0.723   0.399   0.000  0.00  0.00    +0.000 C 
BRANCH  11  13
ATOM     13  C   UNL     1      -1.445  -0.824   0.000  0.00  0.00    +0.000 C 
BRANCH  13  14
ATOM     14  C   UNL     1      -2.165  -0.422   0.000  0.00  0.00    +0.000 C 
ATOM     15  C   UNL     1      -2.703   0.355   0.000  0.00  0.00    +0.000 C 
ATOM     16  C   UNL     1      -2.872  -0.844   0.000  0.00  0.00    +0.000 C 
ATOM     17  C   UNL     1      -1.852   0.375   0.000  0.00  0.00    +0.000 C 
ENDBRANCH  13  14
ENDBRANCH  11  13
ENDBRANCH  10  11
ENDBRANCH   1  10
TORSDOF 4
