REMARK  Name = 
REMARK  2 active torsions:
REMARK  status: ('A' for Active; 'I' for Inactive)
REMARK    1  A    between atoms: CA_1  and  C_2
REMARK    2  A    between atoms: CA_6  and  C_7
REMARK                            x       y       z     vdW  Elec       q    Type
REMARK                         _______ _______ _______ _____ _____    ______ ____
ROOT
ATOM      1  C   GLY A   1       0.000  -0.286   0.000  0.00  0.00    +0.000 C 
ATOM      2  O   GLY A   1       0.412  -1.000   0.000  0.00  0.00    +0.000 OA
ATOM      3  OXT GLY A   1      -0.825  -0.286   0.000  0.00  0.00    +0.000 OA
ENDROOT
BRANCH   1   4
ATOM      4  CA  GLY A   1       0.412   0.429   0.000  0.00  0.00    +0.000 C 
ATOM      5  N   GLY A   1       0.000   1.143   0.000  0.00  0.00    +0.000 NA
ENDBRANCH   1   4
TORSDOF 1
REMARK  Name = 
REMARK  2 active torsions:
REMARK  status: ('A' for Active; 'I' for Inactive)
REMARK    1  A    between atoms: CA_1  and  C_2
REMARK    2  A    between atoms: CA_6  and  C_7
REMARK                            x       y       z     vdW  Elec       q    Type
REMARK                         _______ _______ _______ _____ _____    ______ ____
ROOT
ATOM      1  C   GLY A   1       3.359  -0.286   0.000  0.00  0.00    +0.000 C 
ATOM      2  O   GLY A   1       3.771  -1.000   0.000  0.00  0.00    +0.000 OA
ATOM      3  OXT GLY A   1       2.534  -0.286   0.000  0.00  0.00    +0.000 OA
ENDROOT
BRANCH   1   4
ATOM      4  CA  GLY A   1       3.771   0.429   0.000  0.00  0.00    +0.000 C 
ATOM      5  N   GLY A   1       3.359   1.143   0.000  0.00  0.00    +0.000 NA
ENDBRANCH   1   4
TORSDOF 1
REMARK  Name = 
REMARK  2 active torsions:
REMARK  status: ('A' for Active; 'I' for Inactive)
REMARK    1  A    between atoms: CA_1  and  C_2
REMARK    2  A    between atoms: CA_6  and  C_7
REMARK                            x       y       z     vdW  Elec       q    Type
REMARK                         _______ _______ _______ _____ _____    ______ ____
ROOT
ATOM      1 FE   UNL     1       0.000  -3.475   0.000  0.00  0.00    +0.000 Fe
ENDROOT
TORSDOF 0
REMARK  Name = 
REMARK  2 active torsions:
REMARK  status: ('A' for Active; 'I' for Inactive)
REMARK    1  A    between atoms: CA_1  and  C_2
REMARK    2  A    between atoms: CA_6  and  C_7
REMARK                            x       y       z     vdW  Elec       q    Type
REMARK                         _______ _______ _______ _____ _____    ______ ____
ROOT
ATOM      1  O   UNL     1       2.829  -2.650   0.000  0.00  0.00    +0.000 OA
ATOM      2  O   UNL     1       2.829  -4.300   0.000  0.00  0.00    +0.000 OA
ATOM      3  O   UNL     1       2.004  -3.475   0.000  0.00  0.00    +0.000 OA
ATOM      4  O   UNL     1       3.654  -3.475   0.000  0.00  0.00    +0.000 OA
ATOM      5  S   UNL     1       2.829  -3.475   0.000  0.00  0.00    +0.000 S 
ENDROOT
TORSDOF 0
