REMARK  Name = 
REMARK  15 active torsions:
REMARK  status: ('A' for Active; 'I' for Inactive)
REMARK    1  A    between atoms: C_3  and  C_4
REMARK    2  A    between atoms: C_18  and  C_19
REMARK    3  A    between atoms: C_19  and  C_20
REMARK    4  A    between atoms: C_20  and  C_22
REMARK    5  A    between atoms: C_22  and  C_24
REMARK    6  A    between atoms: C_24  and  C_25
REMARK    7  A    between atoms: C_25  and  C_26
REMARK    8  A    between atoms: C_27  and  C_28
REMARK    9  A    between atoms: C_29  and  C_31
REMARK   10  A    between atoms: C_44  and  C_45
REMARK   11  A    between atoms: C_45  and  C_46
REMARK   12  A    between atoms: C_46  and  C_47
REMARK   13  A    between atoms: C_53  and  C_54
REMARK   14  A    between atoms: C_60  and  C_61
REMARK   15  A    between atoms: C_61  and  C_62
REMARK                            x       y       z     vdW  Elec       q    Type
REMARK                         _______ _______ _______ _____ _____    ______ ____
ROOT
ATOM      1  C   UNL     1      -1.387   1.487   0.000  0.00  0.00    +0.000 C 
ATOM      2  O   UNL     1      -2.180   1.258   0.000  0.00  0.00    +0.000 OA
ATOM      3  C   UNL     1      -0.793   0.915   0.000  0.00  0.00    +0.000 C 
ATOM      4  C   UNL     1       0.000   1.144   0.000  0.00  0.00    +0.000 C 
ATOM      5  C   UNL     1       0.198   1.945   0.000  0.00  0.00    +0.000 C 
ATOM      6  C   UNL     1       0.991   2.174   0.000  0.00  0.00    +0.000 C 
ATOM      7  C   UNL     1       1.189   2.974   0.000  0.00  0.00    +0.000 C 
ATOM      8  C   UNL     1       1.982   3.203   0.000  0.00  0.00    +0.000 C 
ATOM      9  O   UNL     1       2.576   2.631   0.000  0.00  0.00    +0.000 OA
ATOM     10  C   UNL     1       2.180   4.004   0.000  0.00  0.00    +0.000 C 
ATOM     11  C   UNL     1       1.585   4.576   0.000  0.00  0.00    +0.000 C 
ATOM     12  C   UNL     1       2.972   4.233   0.000  0.00  0.00    +0.000 C 
ATOM     13  O   UNL     1       3.567   3.661   0.000  0.00  0.00    +0.000 OA
ATOM     14  C   UNL     1       3.171   5.034   0.000  0.00  0.00    +0.000 C 
ATOM     15  C   UNL     1       2.576   5.606   0.000  0.00  0.00    +0.000 C 
ATOM     16  O   UNL     1       2.774   6.407   0.000  0.00  0.00    +0.000 OA
ATOM     17  N   UNL     1       1.783   5.377   0.000  0.00  0.00    +0.000 NA
ATOM     18  C   UNL     1       1.189   5.949   0.000  0.00  0.00    +0.000 C 
ATOM     19  C   UNL     1       0.396   5.720   0.000  0.00  0.00    +0.000 C 
ATOM     20  O   UNL     1       0.252   6.532   0.000  0.00  0.00    +0.000 OA
ATOM     21  N   UNL     1       0.198   4.920   0.000  0.00  0.00    +0.000 NA
ATOM     22  C   UNL     1      -0.594   4.691   0.000  0.00  0.00    +0.000 C 
ATOM     23  C   UNL     1      -0.793   3.890   0.000  0.00  0.00    +0.000 C 
ATOM     24  O   UNL     1      -0.198   3.318   0.000  0.00  0.00    +0.000 OA
ATOM     25  N   UNL     1      -1.585   3.661   0.000  0.00  0.00    +0.000 N 
ATOM     26  N   UNL     1      -1.783   2.860   0.000  0.00  0.00    +0.000 NA
ATOM     27  C   UNL     1      -2.180   4.233   0.000  0.00  0.00    +0.000 C 
ATOM     28  C   UNL     1      -2.972   4.004   0.000  0.00  0.00    +0.000 C 
ATOM     29  C   UNL     1      -3.171   3.203   0.000  0.00  0.00    +0.000 C 
ATOM     30  C   UNL     1      -2.576   2.631   0.000  0.00  0.00    +0.000 C 
ATOM     31  C   UNL     1      -2.774   1.831   0.000  0.00  0.00    +0.000 C 
ATOM     32  O   UNL     1      -3.567   1.602   0.000  0.00  0.00    +0.000 OA
ENDROOT
BRANCH   1  34
ATOM     33  C   UNL     1      -0.991   0.114   0.000  0.00  0.00    +0.000 C 
ATOM     34  C   UNL     1      -1.585   0.686   0.000  0.00  0.00    +0.000 C 
ATOM     35  C   UNL     1      -2.378   0.458   0.000  0.00  0.00    +0.000 C 
BRANCH  33  37
ATOM     36  C   UNL     1      -0.594  -1.258   0.000  0.00  0.00    +0.000 C 
ATOM     37  C   UNL     1      -1.189  -0.686   0.000  0.00  0.00    +0.000 C 
BRANCH  36  38
ATOM     38  C   UNL     1      -0.793  -2.059   0.000  0.00  0.00    +0.000 C 
BRANCH  38  39
ATOM     39  C   UNL     1      -1.585  -2.288   0.000  0.00  0.00    +0.000 C 
BRANCH  39  40
ATOM     40  C   UNL     1      -1.783  -3.089   0.000  0.00  0.00    +0.000 C 
ATOM     41  C   UNL     1      -1.189  -3.661   0.000  0.00  0.00    +0.000 C 
BRANCH  40  42
ATOM     42  C   UNL     1      -2.576  -3.318   0.000  0.00  0.00    +0.000 C 
ATOM     43  O   UNL     1      -3.171  -2.746   0.000  0.00  0.00    +0.000 OA
BRANCH  42  44
ATOM     44  C   UNL     1      -2.774  -4.119   0.000  0.00  0.00    +0.000 C 
BRANCH  44  60
ATOM     45  O   UNL     1      -3.567  -7.322   0.000  0.00  0.00    +0.000 OA
ATOM     46  C   UNL     1      -4.161  -6.750   0.000  0.00  0.00    +0.000 C 
ATOM     47  C   UNL     1      -4.954  -6.979   0.000  0.00  0.00    +0.000 C 
ATOM     48  C   UNL     1      -5.548  -6.407   0.000  0.00  0.00    +0.000 C 
ATOM     49  N   UNL     1      -3.963  -5.949   0.000  0.00  0.00    +0.000 NA
ATOM     50  C   UNL     1      -4.558  -5.377   0.000  0.00  0.00    +0.000 C 
ATOM     51  O   UNL     1      -3.765  -5.148   0.000  0.00  0.00    +0.000 OA
ATOM     52  C   UNL     1      -5.350  -5.606   0.000  0.00  0.00    +0.000 C 
ATOM     53  C   UNL     1      -5.945  -5.034   0.000  0.00  0.00    +0.000 C 
ATOM     54  C   UNL     1      -5.152  -4.805   0.000  0.00  0.00    +0.000 C 
ATOM     55  C   UNL     1      -5.928  -4.524   0.000  0.00  0.00    +0.000 C 
ATOM     56  C   UNL     1      -4.954  -4.004   0.000  0.00  0.00    +0.000 C 
ATOM     57  O   UNL     1      -5.548  -3.432   0.000  0.00  0.00    +0.000 OA
ATOM     58  C   UNL     1      -4.161  -3.775   0.000  0.00  0.00    +0.000 C 
ATOM     59  C   UNL     1      -3.963  -2.974   0.000  0.00  0.00    +0.000 C 
ATOM     60  C   UNL     1      -3.567  -4.347   0.000  0.00  0.00    +0.000 C 
BRANCH  47  61
ATOM     61  C   UNL     1      -5.152  -7.780   0.000  0.00  0.00    +0.000 C 
ATOM     62  C   UNL     1      -5.945  -8.008   0.000  0.00  0.00    +0.000 C 
ENDBRANCH  47  61
ENDBRANCH  44  60
ENDBRANCH  42  44
ENDBRANCH  40  42
ENDBRANCH  39  40
ENDBRANCH  38  39
ENDBRANCH  36  38
ENDBRANCH  33  37
ENDBRANCH   1  34
BRANCH  18  63
ATOM     63  C   UNL     1       1.387   6.750   0.000  0.00  0.00    +0.000 C 
ATOM     64  C   UNL     1       0.793   7.322   0.000  0.00  0.00    +0.000 C 
ATOM     65  C   UNL     1       2.180   6.979   0.000  0.00  0.00    +0.000 C 
ENDBRANCH  18  63
BRANCH  14  66
ATOM     66  C   UNL     1       3.963   5.263   0.000  0.00  0.00    +0.000 C 
BRANCH  66  67
ATOM     67  C   UNL     1       4.558   4.691   0.000  0.00  0.00    +0.000 C 
BRANCH  67  68
ATOM     68  C   UNL     1       5.350   4.920   0.000  0.00  0.00    +0.000 C 
ATOM     69  C   UNL     1       5.945   4.347   0.000  0.00  0.00    +0.000 C 
ATOM     70  O   UNL     1       5.548   5.720   0.000  0.00  0.00    +0.000 OA
ENDBRANCH  67  68
ENDBRANCH  66  67
ENDBRANCH  14  66
BRANCH  22  71
ATOM     71  C   UNL     1      -1.189   5.263   0.000  0.00  0.00    +0.000 C 
BRANCH  71  72
ATOM     72  C   UNL     1      -0.991   6.064   0.000  0.00  0.00    +0.000 A 
ATOM     73  C   UNL     1      -1.585   6.636   0.000  0.00  0.00    +0.000 A 
ATOM     74  C   UNL     1      -1.387   7.436   0.000  0.00  0.00    +0.000 A 
ATOM     75  O   UNL     1      -1.982   8.008   0.000  0.00  0.00    +0.000 OA
ATOM     76  C   UNL     1      -0.594   7.665   0.000  0.00  0.00    +0.000 A 
ATOM     77  C   UNL     1       0.000   7.093   0.000  0.00  0.00    +0.000 A 
ATOM     78  C   UNL     1      -0.198   6.292   0.000  0.00  0.00    +0.000 A 
ENDBRANCH  71  72
ENDBRANCH  22  71
TORSDOF 15
