REMARK  Name = 
REMARK  23 active torsions:
REMARK  status: ('A' for Active; 'I' for Inactive)
REMARK    1  A    between atoms: C_1  and  O_4
REMARK    2  A    between atoms: C_1  and  C_11
REMARK    3  A    between atoms: C_2  and  O_5
REMARK    4  A    between atoms: C_2  and  C_13
REMARK    5  A    between atoms: C_3  and  O_6
REMARK    6  A    between atoms: C_3  and  C_12
REMARK    7  A    between atoms: O_4  and  C_10
REMARK    8  A    between atoms: O_5  and  C_14
REMARK    9  A    between atoms: O_6  and  C_15
REMARK   10  A    between atoms: C_10  and  C_14
REMARK   11  A    between atoms: C_10  and  C_15
REMARK   12  A    between atoms: C_11  and  C_16
REMARK   13  A    between atoms: C_11  and  C_17
REMARK   14  A    between atoms: C_12  and  C_18
REMARK   15  A    between atoms: C_12  and  C_20
REMARK   16  A    between atoms: C_13  and  C_19
REMARK   17  A    between atoms: C_13  and  C_21
REMARK   18  A    between atoms: C_17  and  C_22
REMARK   19  A    between atoms: C_20  and  C_23
REMARK   20  A    between atoms: C_21  and  C_24
REMARK   21  A    between atoms: C_22  and  C_25
REMARK   22  A    between atoms: C_23  and  C_27
REMARK   23  A    between atoms: C_24  and  C_26
REMARK                            x       y       z     vdW  Elec       q    Type
REMARK                         _______ _______ _______ _____ _____    ______ ____
ROOT
ATOM      1  C   UNL     1       0.715   1.031   0.000  0.00  0.00    +0.000 C 
ENDROOT
BRANCH   1   2
ATOM      2  C   UNL     1       0.003   1.451   0.000  0.00  0.00    +0.000 C 
BRANCH   2   3
ATOM      3  O   UNL     1      -0.720   1.031   0.000  0.00  0.00    +0.000 OA
BRANCH   3   4
ATOM      4  C   UNL     1      -1.430   1.451   0.000  0.00  0.00    +0.000 C 
ATOM      5  O   UNL     1      -1.430   2.274   0.000  0.00  0.00    +0.000 OA
BRANCH   4   6
ATOM      6  C   UNL     1      -2.150   1.031   0.000  0.00  0.00    +0.000 C 
BRANCH   6   7
ATOM      7  C   UNL     1      -2.150   0.207   0.000  0.00  0.00    +0.000 C 
ATOM      8  C   UNL     1      -2.865  -0.205   0.000  0.00  0.00    +0.000 C 
ENDBRANCH   6   7
BRANCH   6   9
ATOM      9  C   UNL     1      -2.865   1.451   0.000  0.00  0.00    +0.000 C 
BRANCH   9  10
ATOM     10  C   UNL     1      -3.583   1.031   0.000  0.00  0.00    +0.000 C 
BRANCH  10  11
ATOM     11  C   UNL     1      -4.295   1.451   0.000  0.00  0.00    +0.000 C 
ATOM     12  C   UNL     1      -5.013   1.031   0.000  0.00  0.00    +0.000 C 
ENDBRANCH  10  11
ENDBRANCH   9  10
ENDBRANCH   6   9
ENDBRANCH   4   6
ENDBRANCH   3   4
ENDBRANCH   2   3
ENDBRANCH   1   2
BRANCH   1  13
ATOM     13  C   UNL     1       1.433   1.451   0.000  0.00  0.00    +0.000 C 
BRANCH  13  14
ATOM     14  O   UNL     1       2.147   1.031   0.000  0.00  0.00    +0.000 OA
BRANCH  14  15
ATOM     15  C   UNL     1       2.868   1.451   0.000  0.00  0.00    +0.000 C 
ATOM     16  O   UNL     1       2.868   2.274   0.000  0.00  0.00    +0.000 OA
BRANCH  15  17
ATOM     17  C   UNL     1       3.577   1.031   0.000  0.00  0.00    +0.000 C 
BRANCH  17  18
ATOM     18  C   UNL     1       3.577   0.207   0.000  0.00  0.00    +0.000 C 
ATOM     19  C   UNL     1       2.868  -0.205   0.000  0.00  0.00    +0.000 C 
ENDBRANCH  17  18
BRANCH  17  20
ATOM     20  C   UNL     1       4.300   1.451   0.000  0.00  0.00    +0.000 C 
BRANCH  20  21
ATOM     21  C   UNL     1       4.300   2.274   0.000  0.00  0.00    +0.000 C 
BRANCH  21  22
ATOM     22  C   UNL     1       5.013   2.686   0.000  0.00  0.00    +0.000 C 
ATOM     23  C   UNL     1       5.013   3.513   0.000  0.00  0.00    +0.000 C 
ENDBRANCH  21  22
ENDBRANCH  20  21
ENDBRANCH  17  20
ENDBRANCH  15  17
ENDBRANCH  14  15
ENDBRANCH  13  14
ENDBRANCH   1  13
BRANCH   1  24
ATOM     24  O   UNL     1       0.715   0.207   0.000  0.00  0.00    +0.000 OA
BRANCH  24  25
ATOM     25  C   UNL     1       0.003  -0.205   0.000  0.00  0.00    +0.000 C 
ATOM     26  O   UNL     1      -0.720   0.207   0.000  0.00  0.00    +0.000 OA
BRANCH  25  27
ATOM     27  C   UNL     1       0.003  -1.036   0.000  0.00  0.00    +0.000 C 
BRANCH  27  28
ATOM     28  C   UNL     1       0.715  -1.448   0.000  0.00  0.00    +0.000 C 
ATOM     29  C   UNL     1       0.715  -2.272   0.000  0.00  0.00    +0.000 C 
ENDBRANCH  27  28
BRANCH  27  30
ATOM     30  C   UNL     1      -0.720  -1.448   0.000  0.00  0.00    +0.000 C 
BRANCH  30  31
ATOM     31  C   UNL     1      -0.720  -2.272   0.000  0.00  0.00    +0.000 C 
BRANCH  31  32
ATOM     32  C   UNL     1      -1.430  -2.692   0.000  0.00  0.00    +0.000 C 
ATOM     33  C   UNL     1      -1.430  -3.513   0.000  0.00  0.00    +0.000 C 
ENDBRANCH  31  32
ENDBRANCH  30  31
ENDBRANCH  27  30
ENDBRANCH  25  27
ENDBRANCH  24  25
ENDBRANCH   1  24
TORSDOF 23
