REMARK  Name = 
REMARK  6 active torsions:
REMARK  status: ('A' for Active; 'I' for Inactive)
REMARK    1  A    between atoms: C_2  and  N_3
REMARK    2  A    between atoms: C_6  and  O_12
REMARK    3  A    between atoms: O_12  and  C_13
REMARK    4  A    between atoms: C_13  and  C_15
REMARK    5  A    between atoms: C_15  and  C_16
REMARK    6  A    between atoms: C_15  and  C_18
REMARK                            x       y       z     vdW  Elec       q    Type
REMARK                         _______ _______ _______ _____ _____    ______ ____
ROOT
ATOM      1  N   UNL     1       0.826   1.268   0.000  0.00  0.00    +0.000 N 
ATOM      2  C   UNL     1       1.057   0.342   0.000  0.00  0.00    +0.000 C 
ATOM      3  C   UNL     1       1.861   0.525   0.000  0.00  0.00    +0.000 C 
ATOM      4  C   UNL     1       2.220   1.268   0.000  0.00  0.00    +0.000 C 
ATOM      5  C   UNL     1       1.861   2.012   0.000  0.00  0.00    +0.000 C 
ATOM      6  C   UNL     1       1.057   2.195   0.000  0.00  0.00    +0.000 C 
ATOM      7  C   UNL     1       0.412   1.681   0.000  0.00  0.00    +0.000 C 
ATOM      8  C   UNL     1       0.412   0.856   0.000  0.00  0.00    +0.000 C 
ATOM      9  O   UNL     1      -0.302   1.268   0.000  0.00  0.00    +0.000 OA
ATOM     10  C   UNL     1       1.633   0.998   0.000  0.00  0.00    +0.000 C 
ENDROOT
BRANCH   1  12
ATOM     11  C   UNL     1       1.330   2.811   0.000  0.00  0.00    +0.000 C 
ATOM     12  C   UNL     1       1.435   1.874   0.000  0.00  0.00    +0.000 C 
ENDBRANCH   1  12
BRANCH   4  13
ATOM     13  O   UNL     1       3.131   1.266   0.000  0.00  0.00    +0.000 OA
BRANCH  13  14
ATOM     14  C   UNL     1       3.828   0.777   0.000  0.00  0.00    +0.000 C 
ATOM     15  O   UNL     1       3.127   0.342   0.000  0.00  0.00    +0.000 OA
BRANCH  14  16
ATOM     16  C   UNL     1       4.565   0.383   0.000  0.00  0.00    +0.000 C 
BRANCH  16  17
ATOM     17  C   UNL     1       4.965  -0.339   0.000  0.00  0.00    +0.000 A 
ATOM     18  C   UNL     1       5.790  -0.354   0.000  0.00  0.00    +0.000 A 
ATOM     19  C   UNL     1       6.189  -1.076   0.000  0.00  0.00    +0.000 A 
ATOM     20  C   UNL     1       5.764  -1.783   0.000  0.00  0.00    +0.000 A 
ATOM     21  C   UNL     1       4.939  -1.768   0.000  0.00  0.00    +0.000 A 
ATOM     22  C   UNL     1       4.540  -1.046   0.000  0.00  0.00    +0.000 A 
ENDBRANCH  16  17
BRANCH  16  23
ATOM     23  C   UNL     1       5.011   1.125   0.000  0.00  0.00    +0.000 C 
ATOM     24  O   UNL     1       5.836   1.110   0.000  0.00  0.00    +0.000 OA
ENDBRANCH  16  23
ENDBRANCH  14  16
ENDBRANCH  13  14
ENDBRANCH   4  13
TORSDOF 6
