REMARK  Name = 
REMARK  2 active torsions:
REMARK  status: ('A' for Active; 'I' for Inactive)
REMARK    1  A    between atoms: C_1  and  N_2
REMARK    2  A    between atoms: C_15  and  N_16
REMARK                            x       y       z     vdW  Elec       q    Type
REMARK                         _______ _______ _______ _____ _____    ______ ____
ROOT
ATOM      1  N   UNL     1      -3.572   0.415   0.000  0.00  0.00    +0.000 NA
ATOM      2  C   UNL     1      -2.857   0.827   0.000  0.00  0.00    +0.000 C 
ATOM      3  N   UNL     1      -2.143   0.414   0.000  0.00  0.00    +0.000 NA
ATOM      4  C   UNL     1      -1.428   0.826   0.000  0.00  0.00    +0.000 C 
ATOM      5  N   UNL     1      -2.856   1.652   0.000  0.00  0.00    +0.000 NA
ATOM      6  N   UNL     1      -1.427   1.651   0.000  0.00  0.00    +0.000 NA
ATOM      7  N   UNL     1      -0.714   0.413   0.000  0.00  0.00    +0.000 N 
ATOM      8  N   UNL     1       3.572  -0.415   0.000  0.00  0.00    +0.000 NA
ATOM      9  C   UNL     1       2.857  -0.827   0.000  0.00  0.00    +0.000 C 
ATOM     10  N   UNL     1       2.143  -0.414   0.000  0.00  0.00    +0.000 NA
ATOM     11  C   UNL     1       1.428  -0.826   0.000  0.00  0.00    +0.000 C 
ATOM     12  N   UNL     1       2.856  -1.652   0.000  0.00  0.00    +0.000 NA
ATOM     13  N   UNL     1       1.427  -1.651   0.000  0.00  0.00    +0.000 NA
ATOM     14  N   UNL     1       0.714  -0.413   0.000  0.00  0.00    +0.000 N 
ATOM     15  C   UNL     1      -0.001  -0.825   0.000  0.00  0.00    +0.000 C 
ATOM     16  C   UNL     1      -0.715  -0.412   0.000  0.00  0.00    +0.000 C 
ATOM     17  C   UNL     1       0.001   0.825   0.000  0.00  0.00    +0.000 C 
ATOM     18  C   UNL     1       0.715   0.412   0.000  0.00  0.00    +0.000 C 
ENDROOT
BRANCH   1  19
ATOM     19  C   UNL     1      -4.286   0.829   0.000  0.00  0.00    +0.000 A 
ATOM     20  C   UNL     1      -5.001   0.417   0.000  0.00  0.00    +0.000 A 
ATOM     21  C   UNL     1      -5.715   0.830   0.000  0.00  0.00    +0.000 A 
ATOM     22  C   UNL     1      -5.714   1.655   0.000  0.00  0.00    +0.000 A 
ATOM     23  C   UNL     1      -4.999   2.067   0.000  0.00  0.00    +0.000 A 
ATOM     24  C   UNL     1      -4.285   1.653   0.000  0.00  0.00    +0.000 A 
ATOM     25 CL   UNL     1      -6.428   2.068   0.000  0.00  0.00    +0.000 Cl
ENDBRANCH   1  19
BRANCH   8  26
ATOM     26  C   UNL     1       4.286  -0.829   0.000  0.00  0.00    +0.000 A 
ATOM     27  C   UNL     1       5.001  -0.417   0.000  0.00  0.00    +0.000 A 
ATOM     28  C   UNL     1       5.715  -0.830   0.000  0.00  0.00    +0.000 A 
ATOM     29  C   UNL     1       5.714  -1.655   0.000  0.00  0.00    +0.000 A 
ATOM     30  C   UNL     1       4.999  -2.067   0.000  0.00  0.00    +0.000 A 
ATOM     31  C   UNL     1       4.285  -1.653   0.000  0.00  0.00    +0.000 A 
ATOM     32 CL   UNL     1       6.428  -2.068   0.000  0.00  0.00    +0.000 Cl
ENDBRANCH   8  26
TORSDOF 2
