REMARK  Name = 
REMARK  4 active torsions:
REMARK  status: ('A' for Active; 'I' for Inactive)
REMARK    1  A    between atoms: C_8  and  C_10
REMARK    2  A    between atoms: C_8  and  C_11
REMARK    3  A    between atoms: C_9  and  N_14
REMARK    4  A    between atoms: C_10  and  N_14
REMARK                            x       y       z     vdW  Elec       q    Type
REMARK                         _______ _______ _______ _____ _____    ______ ____
ROOT
ATOM      1  C   UNL     1       0.000   0.825   0.000  0.00  0.00    +0.000 C 
ENDROOT
BRANCH   1   6
ATOM      2  C   UNL     1      -1.429   0.825   0.000  0.00  0.00    +0.000 A 
ATOM      3  C   UNL     1      -0.714  -0.412   0.000  0.00  0.00    +0.000 A 
ATOM      4  C   UNL     1      -2.143   0.412   0.000  0.00  0.00    +0.000 A 
ATOM      5  C   UNL     1      -1.429  -0.825   0.000  0.00  0.00    +0.000 A 
ATOM      6  C   UNL     1      -0.714   0.412   0.000  0.00  0.00    +0.000 A 
ATOM      7  C   UNL     1      -2.143  -0.412   0.000  0.00  0.00    +0.000 A 
ATOM      8  I   UNL     1      -2.858  -0.825   0.000  0.00  0.00    +0.000 I 
ENDBRANCH   1   6
BRANCH   1  10
ATOM      9  C   UNL     1       0.714  -0.412   0.000  0.00  0.00    +0.000 C 
ATOM     10  C   UNL     1       0.714   0.412   0.000  0.00  0.00    +0.000 C 
BRANCH  10  11
ATOM     11  N   UNL     1       1.429   0.825   0.000  0.00  0.00    +0.000 NA
BRANCH  11  14
ATOM     12  C   UNL     1       2.858   0.825   0.000  0.00  0.00    +0.000 C 
ATOM     13  C   UNL     1       2.143  -0.412   0.000  0.00  0.00    +0.000 C 
ATOM     14  C   UNL     1       2.143   0.412   0.000  0.00  0.00    +0.000 C 
ENDBRANCH  11  14
ENDBRANCH  10  11
ENDBRANCH   1  10
TORSDOF 4
