REMARK  Name = 
REMARK  10 active torsions:
REMARK  status: ('A' for Active; 'I' for Inactive)
REMARK    1  A    between atoms: C_2  and  O_3
REMARK    2  A    between atoms: O_3  and  C_4
REMARK    3  A    between atoms: C_9  and  C_10
REMARK    4  A    between atoms: N_12  and  C_13
REMARK    5  A    between atoms: C_13  and  C_14
REMARK    6  A    between atoms: C_17  and  C_19
REMARK    7  A    between atoms: C_22  and  O_23
REMARK    8  A    between atoms: O_23  and  C_24
REMARK    9  A    between atoms: C_27  and  O_28
REMARK   10  A    between atoms: O_28  and  C_29
REMARK                            x       y       z     vdW  Elec       q    Type
REMARK                         _______ _______ _______ _____ _____    ______ ____
ROOT
ATOM      1  C   UNL     1       0.715  -1.238   0.000  0.00  0.00    +0.000 A 
ATOM      2  C   UNL     1       0.047  -1.722   0.000  0.00  0.00    +0.000 A 
ATOM      3  O   UNL     1       0.302  -2.507   0.000  0.00  0.00    +0.000 OA
ATOM      4  C   UNL     1       1.127  -2.507   0.000  0.00  0.00    +0.000 A 
ATOM      5  N   UNL     1       1.382  -1.722   0.000  0.00  0.00    +0.000 NA
ENDROOT
BRANCH   4   6
ATOM      6  C   UNL     1       1.612  -3.175   0.000  0.00  0.00    +0.000 A 
ATOM      7  C   UNL     1       2.432  -3.088   0.000  0.00  0.00    +0.000 A 
ATOM      8  C   UNL     1       2.917  -3.756   0.000  0.00  0.00    +0.000 A 
ATOM      9  C   UNL     1       2.582  -4.509   0.000  0.00  0.00    +0.000 A 
ATOM     10  C   UNL     1       1.761  -4.596   0.000  0.00  0.00    +0.000 A 
ATOM     11  C   UNL     1       1.276  -3.928   0.000  0.00  0.00    +0.000 A 
BRANCH  10  12
ATOM     12  O   UNL     1       1.426  -5.349   0.000  0.00  0.00    +0.000 OA
BRANCH  12  13
ATOM     13  C   UNL     1       1.911  -6.017   0.000  0.00  0.00    +0.000 C 
ATOM     14  C   UNL     1       2.731  -5.931   0.000  0.00  0.00    +0.000 C 
ATOM     15  C   UNL     1       1.575  -6.770   0.000  0.00  0.00    +0.000 C 
ENDBRANCH  12  13
ENDBRANCH  10  12
BRANCH   9  16
ATOM     16  O   UNL     1       3.067  -5.177   0.000  0.00  0.00    +0.000 OA
BRANCH  16  17
ATOM     17  C   UNL     1       3.887  -5.091   0.000  0.00  0.00    +0.000 C 
ATOM     18  F   UNL     1       4.223  -4.337   0.000  0.00  0.00    +0.000 F 
ATOM     19  F   UNL     1       4.372  -5.758   0.000  0.00  0.00    +0.000 F 
ENDBRANCH  16  17
ENDBRANCH   9  16
ENDBRANCH   4   6
BRANCH   1  20
ATOM     20  C   UNL     1       0.715  -0.412   0.000  0.00  0.00    +0.000 C 
BRANCH  20  23
ATOM     21  C   UNL     1       1.429   0.825   0.000  0.00  0.00    +0.000 C 
ATOM     22  O   UNL     1       0.715   1.238   0.000  0.00  0.00    +0.000 OA
ATOM     23  N   UNL     1       1.429   0.000   0.000  0.00  0.00    +0.000 NA
BRANCH  21  29
ATOM     24  C   UNL     1       2.143   2.062   0.000  0.00  0.00    +0.000 A 
ATOM     25  C   UNL     1       2.858   2.475   0.000  0.00  0.00    +0.000 A 
ATOM     26  C   UNL     1       3.572   2.062   0.000  0.00  0.00    +0.000 A 
ATOM     27  C   UNL     1       3.572   1.238   0.000  0.00  0.00    +0.000 A 
ATOM     28  C   UNL     1       2.858   0.825   0.000  0.00  0.00    +0.000 A 
ATOM     29  C   UNL     1       2.143   1.238   0.000  0.00  0.00    +0.000 A 
BRANCH  24  30
ATOM     30  O   UNL     1       1.429   2.475   0.000  0.00  0.00    +0.000 OA
BRANCH  30  32
ATOM     31  C   UNL     1       0.715   3.712   0.000  0.00  0.00    +0.000 C 
ATOM     32  C   UNL     1       1.429   3.300   0.000  0.00  0.00    +0.000 C 
ENDBRANCH  30  32
ENDBRANCH  24  30
ENDBRANCH  21  29
ENDBRANCH  20  23
ENDBRANCH   1  20
TORSDOF 10
