REMARK  Name = 
REMARK  9 active torsions:
REMARK  status: ('A' for Active; 'I' for Inactive)
REMARK    1  A    between atoms: S_2  and  O_5
REMARK    2  A    between atoms: O_5  and  C_6
REMARK    3  A    between atoms: C_6  and  C_7
REMARK    4  A    between atoms: C_7  and  C_8
REMARK    5  A    between atoms: C_8  and  C_9
REMARK    6  A    between atoms: C_9  and  C_10
REMARK    7  A    between atoms: C_10  and  C_11
REMARK    8  A    between atoms: C_11  and  O_12
REMARK    9  A    between atoms: O_12  and  S_13
REMARK                            x       y       z     vdW  Elec       q    Type
REMARK                         _______ _______ _______ _____ _____    ______ ____
ROOT
ATOM      1  C   UNL     1       1.238   0.715   0.000  0.00  0.00    +0.000 C 
ATOM      2  O   UNL     1       1.238  -0.111   0.000  0.00  0.00    +0.000 OA
ENDROOT
BRANCH   1   3
ATOM      3  C   UNL     1       0.523   1.127   0.000  0.00  0.00    +0.000 C 
ATOM      4  O   UNL     1       0.523   1.952   0.000  0.00  0.00    +0.000 OA
BRANCH   3   5
ATOM      5  C   UNL     1      -0.191   0.715   0.000  0.00  0.00    +0.000 C 
BRANCH   5   6
ATOM      6  O   UNL     1      -0.906   1.127   0.000  0.00  0.00    +0.000 OA
BRANCH   6   8
ATOM      7  C   UNL     1      -2.335   0.302   0.000  0.00  0.00    +0.000 C 
ATOM      8  S   UNL     1      -1.620   0.715   0.000  0.00  0.00    +0.000 S 
ATOM      9  O   UNL     1      -1.208   0.000   0.000  0.00  0.00    +0.000 OA
ATOM     10  O   UNL     1      -2.033   1.429   0.000  0.00  0.00    +0.000 OA
ENDBRANCH   6   8
ENDBRANCH   5   6
ENDBRANCH   3   5
ENDBRANCH   1   3
BRANCH   1  11
ATOM     11  C   UNL     1       1.952   1.127   0.000  0.00  0.00    +0.000 C 
ATOM     12  O   UNL     1       1.952   1.952   0.000  0.00  0.00    +0.000 OA
BRANCH  11  13
ATOM     13  C   UNL     1       2.666   0.715   0.000  0.00  0.00    +0.000 C 
ATOM     14  O   UNL     1       2.666  -0.111   0.000  0.00  0.00    +0.000 OA
BRANCH  13  15
ATOM     15  C   UNL     1       3.381   1.127   0.000  0.00  0.00    +0.000 C 
BRANCH  15  16
ATOM     16  O   UNL     1       4.095   0.715   0.000  0.00  0.00    +0.000 OA
BRANCH  16  17
ATOM     17  S   UNL     1       4.810   1.127   0.000  0.00  0.00    +0.000 S 
ATOM     18  O   UNL     1       5.524   1.540   0.000  0.00  0.00    +0.000 OA
ATOM     19  O   UNL     1       5.222   0.412   0.000  0.00  0.00    +0.000 OA
ATOM     20  C   UNL     1       4.397   1.841   0.000  0.00  0.00    +0.000 C 
ENDBRANCH  16  17
ENDBRANCH  15  16
ENDBRANCH  13  15
ENDBRANCH  11  13
ENDBRANCH   1  11
TORSDOF 9
