REMARK  Name = 
REMARK  4 active torsions:
REMARK  status: ('A' for Active; 'I' for Inactive)
REMARK    1  A    between atoms: C_2  and  C_6
REMARK    2  A    between atoms: C_4  and  C_5
REMARK    3  A    between atoms: C_4  and  O_7
REMARK    4  A    between atoms: O_7  and  C_11
REMARK                            x       y       z     vdW  Elec       q    Type
REMARK                         _______ _______ _______ _____ _____    ______ ____
ROOT
ATOM      1  C   UNL     1      -2.858  -0.825   0.000  0.00  0.00    +0.000 A 
ATOM      2  C   UNL     1      -2.858   0.000   0.000  0.00  0.00    +0.000 A 
ATOM      3  C   UNL     1      -2.143  -1.237   0.000  0.00  0.00    +0.000 A 
ATOM      4  C   UNL     1      -1.429   0.000   0.000  0.00  0.00    +0.000 A 
ATOM      5  C   UNL     1      -1.429  -0.825   0.000  0.00  0.00    +0.000 A 
ATOM      6  C   UNL     1      -2.143   0.412   0.000  0.00  0.00    +0.000 A 
ENDROOT
BRANCH   1   8
ATOM      7  C   UNL     1      -4.397  -1.237   0.000  0.00  0.00    +0.000 C 
ATOM      8  C   UNL     1      -3.572  -1.237   0.000  0.00  0.00    +0.000 C 
ATOM      9  C   UNL     1      -3.985  -1.952   0.000  0.00  0.00    +0.000 C 
ATOM     10 CL   UNL     1      -4.397  -2.666   0.000  0.00  0.00    +0.000 Cl
ATOM     11 CL   UNL     1      -3.572  -2.666   0.000  0.00  0.00    +0.000 Cl
ENDBRANCH   1   8
BRANCH   4  12
ATOM     12  O   UNL     1      -0.714   0.412   0.000  0.00  0.00    +0.000 OA
BRANCH  12  13
ATOM     13  C   UNL     1       0.000   0.000   0.000  0.00  0.00    +0.000 C 
ATOM     14  C   UNL     1      -0.412  -0.714   0.000  0.00  0.00    +0.000 C 
ATOM     15  C   UNL     1       0.412  -0.714   0.000  0.00  0.00    +0.000 C 
BRANCH  13  16
ATOM     16  C   UNL     1       0.715   0.412   0.000  0.00  0.00    +0.000 C 
ATOM     17  O   UNL     1       1.429   0.000   0.000  0.00  0.00    +0.000 OA
ATOM     18  O   UNL     1       0.715   1.237   0.000  0.00  0.00    +0.000 OA
ENDBRANCH  13  16
ENDBRANCH  12  13
ENDBRANCH   4  12
TORSDOF 4
