REMARK  Name = 
REMARK  4 active torsions:
REMARK  status: ('A' for Active; 'I' for Inactive)
REMARK    1  A    between atoms: C_2  and  O_5
REMARK    2  A    between atoms: O_5  and  C_6
REMARK    3  A    between atoms: C_9  and  N_10
REMARK    4  A    between atoms: N_10  and  C_11
REMARK                            x       y       z     vdW  Elec       q    Type
REMARK                         _______ _______ _______ _____ _____    ______ ____
ROOT
ATOM      1  N   UNL     1       0.000  -1.650   0.000  0.00  0.00    +0.000 NA
ENDROOT
BRANCH   1   2
ATOM      2  C   UNL     1       0.715  -1.238   0.000  0.00  0.00    +0.000 A 
ATOM      3  C   UNL     1       0.715  -0.412   0.000  0.00  0.00    +0.000 A 
ATOM      4  C   UNL     1       1.429   0.000   0.000  0.00  0.00    +0.000 A 
ATOM      5  C   UNL     1       2.143  -0.412   0.000  0.00  0.00    +0.000 A 
ATOM      6  C   UNL     1       2.858   0.000   0.000  0.00  0.00    +0.000 A 
ATOM      7  C   UNL     1       3.572  -0.412   0.000  0.00  0.00    +0.000 A 
ATOM      8  C   UNL     1       3.572  -1.238   0.000  0.00  0.00    +0.000 A 
ATOM      9  C   UNL     1       2.858  -1.650   0.000  0.00  0.00    +0.000 A 
ATOM     10 CL   UNL     1       2.858  -2.475   0.000  0.00  0.00    +0.000 Cl
ATOM     11  C   UNL     1       2.143  -1.238   0.000  0.00  0.00    +0.000 A 
ATOM     12  N   UNL     1       1.429  -1.650   0.000  0.00  0.00    +0.000 NA
ENDBRANCH   1   2
BRANCH   1  16
ATOM     13  C   UNL     1       0.000  -4.125   0.000  0.00  0.00    +0.000 A 
ATOM     14  C   UNL     1      -0.715  -3.712   0.000  0.00  0.00    +0.000 A 
ATOM     15  C   UNL     1      -0.715  -2.888   0.000  0.00  0.00    +0.000 A 
ATOM     16  C   UNL     1       0.000  -2.475   0.000  0.00  0.00    +0.000 A 
ATOM     17  C   UNL     1       0.715  -2.888   0.000  0.00  0.00    +0.000 A 
ATOM     18  C   UNL     1       0.715  -3.712   0.000  0.00  0.00    +0.000 A 
BRANCH  13  19
ATOM     19  O   UNL     1       0.000  -4.950   0.000  0.00  0.00    +0.000 OA
BRANCH  19  21
ATOM     20  F   UNL     1       1.429  -5.775   0.000  0.00  0.00    +0.000 F 
ATOM     21  C   UNL     1       0.715  -5.362   0.000  0.00  0.00    +0.000 C 
ATOM     22  F   UNL     1       1.127  -4.648   0.000  0.00  0.00    +0.000 F 
ATOM     23  F   UNL     1       0.302  -6.077   0.000  0.00  0.00    +0.000 F 
ENDBRANCH  19  21
ENDBRANCH  13  19
ENDBRANCH   1  16
TORSDOF 4
