REMARK  Name = 
REMARK  5 active torsions:
REMARK  status: ('A' for Active; 'I' for Inactive)
REMARK    1  A    between atoms: C_3  and  N_4
REMARK    2  A    between atoms: N_4  and  C_5
REMARK    3  A    between atoms: C_5  and  C_6
REMARK    4  A    between atoms: C_9  and  C_12
REMARK    5  A    between atoms: N_14  and  C_15
REMARK                            x       y       z     vdW  Elec       q    Type
REMARK                         _______ _______ _______ _____ _____    ______ ____
ROOT
ATOM      1  C   UNL     1      -1.429  -2.475   0.000  0.00  0.00    +0.000 C 
ENDROOT
BRANCH   1   2
ATOM      2  C   UNL     1      -2.143  -2.888   0.000  0.00  0.00    +0.000 A 
ATOM      3  C   UNL     1      -2.143  -3.712   0.000  0.00  0.00    +0.000 A 
ATOM      4  C   UNL     1      -2.858  -4.125   0.000  0.00  0.00    +0.000 A 
ATOM      5  C   UNL     1      -3.572  -3.712   0.000  0.00  0.00    +0.000 A 
ATOM      6  C   UNL     1      -3.572  -2.888   0.000  0.00  0.00    +0.000 A 
ATOM      7  C   UNL     1      -2.858  -2.475   0.000  0.00  0.00    +0.000 A 
BRANCH   5   8
ATOM      8  C   UNL     1      -4.287  -4.125   0.000  0.00  0.00    +0.000 C 
ATOM      9  O   UNL     1      -4.287  -4.950   0.000  0.00  0.00    +0.000 OA
ATOM     10  N   UNL     1      -5.001  -3.712   0.000  0.00  0.00    +0.000 NA
BRANCH  10  11
ATOM     11  C   UNL     1      -5.716  -4.125   0.000  0.00  0.00    +0.000 A 
ATOM     12  C   UNL     1      -5.716  -4.950   0.000  0.00  0.00    +0.000 A 
ATOM     13  C   UNL     1      -6.430  -5.362   0.000  0.00  0.00    +0.000 A 
ATOM     14  C   UNL     1      -7.145  -4.950   0.000  0.00  0.00    +0.000 A 
ATOM     15  N   UNL     1      -7.145  -4.125   0.000  0.00  0.00    +0.000 NA
ATOM     16  C   UNL     1      -6.430  -3.712   0.000  0.00  0.00    +0.000 A 
ENDBRANCH  10  11
ENDBRANCH   5   8
ENDBRANCH   1   2
BRANCH   1  17
ATOM     17  N   UNL     1      -1.429  -1.650   0.000  0.00  0.00    +0.000 NA
BRANCH  17  20
ATOM     18 CL   UNL     1      -1.429   0.000   0.000  0.00  0.00    +0.000 Cl
ATOM     19  C   UNL     1      -0.715  -0.412   0.000  0.00  0.00    +0.000 C 
ATOM     20  C   UNL     1      -0.715  -1.238   0.000  0.00  0.00    +0.000 C 
ATOM     21  C   UNL     1       0.000  -1.650   0.000  0.00  0.00    +0.000 C 
ATOM     22  O   UNL     1       0.000  -2.475   0.000  0.00  0.00    +0.000 OA
ATOM     23  C   UNL     1       0.715  -1.238   0.000  0.00  0.00    +0.000 A 
ATOM     24  C   UNL     1       0.715  -0.412   0.000  0.00  0.00    +0.000 A 
ATOM     25  C   UNL     1       1.429   0.000   0.000  0.00  0.00    +0.000 A 
ATOM     26  C   UNL     1       2.143  -0.412   0.000  0.00  0.00    +0.000 A 
ATOM     27  C   UNL     1       2.143  -1.238   0.000  0.00  0.00    +0.000 A 
ATOM     28  C   UNL     1       1.429  -1.650   0.000  0.00  0.00    +0.000 A 
ATOM     29  C   UNL     1       0.000   0.000   0.000  0.00  0.00    +0.000 C 
ATOM     30  O   UNL     1       0.000   0.825   0.000  0.00  0.00    +0.000 OA
ENDBRANCH  17  20
ENDBRANCH   1  17
TORSDOF 5
