REMARK  Name = 
REMARK  15 active torsions:
REMARK  status: ('A' for Active; 'I' for Inactive)
REMARK    1  A    between atoms: C_4  and  O_57
REMARK    2  A    between atoms: C_12  and  O_53
REMARK    3  A    between atoms: C_14  and  O_42
REMARK    4  A    between atoms: C_20  and  O_21
REMARK    5  A    between atoms: O_21  and  C_22
REMARK    6  A    between atoms: C_22  and  C_24
REMARK    7  A    between atoms: C_24  and  C_25
REMARK    8  A    between atoms: C_25  and  C_26
REMARK    9  A    between atoms: C_25  and  N_32
REMARK   10  A    between atoms: C_33  and  O_35
REMARK   11  A    between atoms: O_35  and  C_36
REMARK   12  A    between atoms: O_42  and  C_43
REMARK   13  A    between atoms: C_43  and  C_45
REMARK   14  A    between atoms: O_53  and  C_54
REMARK   15  A    between atoms: O_57  and  C_58
REMARK                            x       y       z     vdW  Elec       q    Type
REMARK                         _______ _______ _______ _____ _____    ______ ____
ROOT
ATOM      1  C   UNL     1       6.504   0.443   0.000  0.00  0.00    +0.000 C 
ATOM      2  C   UNL     1       5.767   0.814   0.000  0.00  0.00    +0.000 C 
ATOM      3  C   UNL     1       5.066   0.287   0.000  0.00  0.00    +0.000 C 
ATOM      4  C   UNL     1       4.519  -0.395   0.000  0.00  0.00    +0.000 C 
ATOM      5  C   UNL     1       3.683  -0.540   0.000  0.00  0.00    +0.000 C 
ATOM      6  O   UNL     1       3.526  -1.350   0.000  0.00  0.00    +0.000 OA
ATOM      7  C   UNL     1       2.948  -0.083   0.000  0.00  0.00    +0.000 C 
ATOM      8  C   UNL     1       2.903  -0.938   0.000  0.00  0.00    +0.000 C 
ATOM      9  C   UNL     1       2.215  -0.522   0.000  0.00  0.00    +0.000 C 
ATOM     10  C   UNL     1       1.460  -0.190   0.000  0.00  0.00    +0.000 C 
ATOM     11  C   UNL     1       1.405   0.636   0.000  0.00  0.00    +0.000 C 
ATOM     12  C   UNL     1       2.077   1.114   0.000  0.00  0.00    +0.000 C 
ATOM     13  C   UNL     1       2.866   0.783   0.000  0.00  0.00    +0.000 C 
ATOM     14  C   UNL     1       3.428   1.442   0.000  0.00  0.00    +0.000 C 
ATOM     15  C   UNL     1       4.278   1.573   0.000  0.00  0.00    +0.000 C 
ATOM     16  C   UNL     1       4.631   0.885   0.000  0.00  0.00    +0.000 C 
ATOM     17  C   UNL     1       3.817   0.748   0.000  0.00  0.00    +0.000 C 
ATOM     18  C   UNL     1       4.142   0.221   0.000  0.00  0.00    +0.000 C 
ATOM     19  C   UNL     1       5.003   2.033   0.000  0.00  0.00    +0.000 C 
ATOM     20  C   UNL     1       5.772   1.676   0.000  0.00  0.00    +0.000 C 
ATOM     21  O   UNL     1       3.988   2.346   0.000  0.00  0.00    +0.000 OA
ATOM     22  C   UNL     1       1.599   1.786   0.000  0.00  0.00    +0.000 C 
ATOM     23  O   UNL     1       0.926   1.308   0.000  0.00  0.00    +0.000 OA
ENDROOT
BRANCH  20  24
ATOM     24  O   UNL     1       6.469   2.118   0.000  0.00  0.00    +0.000 OA
BRANCH  24  25
ATOM     25  C   UNL     1       7.200   1.736   0.000  0.00  0.00    +0.000 C 
ATOM     26  O   UNL     1       7.234   0.911   0.000  0.00  0.00    +0.000 OA
BRANCH  25  27
ATOM     27  C   UNL     1       7.897   2.178   0.000  0.00  0.00    +0.000 C 
ATOM     28  O   UNL     1       7.862   3.002   0.000  0.00  0.00    +0.000 OA
BRANCH  27  29
ATOM     29  C   UNL     1       8.628   1.795   0.000  0.00  0.00    +0.000 C 
BRANCH  29  30
ATOM     30  C   UNL     1       8.662   0.971   0.000  0.00  0.00    +0.000 A 
ATOM     31  C   UNL     1       9.393   0.588   0.000  0.00  0.00    +0.000 A 
ATOM     32  C   UNL     1       9.427  -0.236   0.000  0.00  0.00    +0.000 A 
ATOM     33  C   UNL     1       8.731  -0.678   0.000  0.00  0.00    +0.000 A 
ATOM     34  C   UNL     1       8.000  -0.295   0.000  0.00  0.00    +0.000 A 
ATOM     35  C   UNL     1       7.965   0.529   0.000  0.00  0.00    +0.000 A 
ENDBRANCH  29  30
BRANCH  29  36
ATOM     36  N   UNL     1       9.324   2.237   0.000  0.00  0.00    +0.000 NA
ATOM     37  C   UNL     1      10.055   1.855   0.000  0.00  0.00    +0.000 C 
ATOM     38  O   UNL     1      10.090   1.030   0.000  0.00  0.00    +0.000 OA
BRANCH  37  39
ATOM     39  O   UNL     1      10.752   2.296   0.000  0.00  0.00    +0.000 OA
BRANCH  39  40
ATOM     40  C   UNL     1      11.483   1.914   0.000  0.00  0.00    +0.000 C 
ATOM     41  C   UNL     1      12.214   1.532   0.000  0.00  0.00    +0.000 C 
ATOM     42  C   UNL     1      11.865   2.645   0.000  0.00  0.00    +0.000 C 
ATOM     43  C   UNL     1      11.101   1.183   0.000  0.00  0.00    +0.000 C 
ENDBRANCH  39  40
ENDBRANCH  37  39
ENDBRANCH  29  36
ENDBRANCH  27  29
ENDBRANCH  25  27
ENDBRANCH  24  25
ENDBRANCH  20  24
BRANCH  12  44
ATOM     44  O   UNL     1       2.592   1.758   0.000  0.00  0.00    +0.000 OA
BRANCH  44  45
ATOM     45  C   UNL     1       2.292   2.527   0.000  0.00  0.00    +0.000 C 
ATOM     46  O   UNL     1       1.477   2.651   0.000  0.00  0.00    +0.000 OA
ATOM     47  C   UNL     1       2.808   3.171   0.000  0.00  0.00    +0.000 C 
ENDBRANCH  44  45
ENDBRANCH  12  44
BRANCH  14  48
ATOM     48  O   UNL     1       3.026   2.163   0.000  0.00  0.00    +0.000 OA
BRANCH  48  49
ATOM     49  C   UNL     1       3.449   2.871   0.000  0.00  0.00    +0.000 C 
ATOM     50  O   UNL     1       4.274   2.859   0.000  0.00  0.00    +0.000 OA
BRANCH  49  51
ATOM     51  C   UNL     1       3.047   3.591   0.000  0.00  0.00    +0.000 A 
ATOM     52  C   UNL     1       2.222   3.604   0.000  0.00  0.00    +0.000 A 
ATOM     53  C   UNL     1       1.820   4.324   0.000  0.00  0.00    +0.000 A 
ATOM     54  C   UNL     1       2.243   5.032   0.000  0.00  0.00    +0.000 A 
ATOM     55  C   UNL     1       3.068   5.020   0.000  0.00  0.00    +0.000 A 
ATOM     56  C   UNL     1       3.470   4.300   0.000  0.00  0.00    +0.000 A 
ENDBRANCH  49  51
ENDBRANCH  48  49
ENDBRANCH  14  48
BRANCH   4  57
ATOM     57  O   UNL     1       4.939  -1.105   0.000  0.00  0.00    +0.000 OA
BRANCH  57  58
ATOM     58  C   UNL     1       5.763  -1.097   0.000  0.00  0.00    +0.000 C 
ATOM     59  O   UNL     1       6.169  -0.379   0.000  0.00  0.00    +0.000 OA
ATOM     60  C   UNL     1       6.183  -1.808   0.000  0.00  0.00    +0.000 C 
ENDBRANCH  57  58
ENDBRANCH   4  57
TORSDOF 15
