REMARK  Name = 
REMARK  5 active torsions:
REMARK  status: ('A' for Active; 'I' for Inactive)
REMARK    1  A    between atoms: C_6  and  C_12
REMARK    2  A    between atoms: C_15  and  O_17
REMARK    3  A    between atoms: O_17  and  C_18
REMARK    4  A    between atoms: C_18  and  C_19
REMARK    5  A    between atoms: C_22  and  C_25
REMARK                            x       y       z     vdW  Elec       q    Type
REMARK                         _______ _______ _______ _____ _____    ______ ____
ROOT
ATOM      1  C   UNL     1       0.334   2.658   0.000  0.00  0.00    +0.000 C 
ATOM      2  O   UNL     1       0.334   3.483   0.000  0.00  0.00    +0.000 OA
ATOM      3  N   UNL     1       1.048   2.245   0.000  0.00  0.00    +0.000 NA
ATOM      4  C   UNL     1       1.763   2.658   0.000  0.00  0.00    +0.000 C 
ATOM      5  O   UNL     1       1.763   3.483   0.000  0.00  0.00    +0.000 OA
ENDROOT
BRANCH   1  11
ATOM      6  C   UNL     1      -3.555   3.095   0.000  0.00  0.00    +0.000 C 
ATOM      7  N   UNL     1      -2.748   2.924   0.000  0.00  0.00    +0.000 N 
ATOM      8  N   UNL     1      -2.196   3.537   0.000  0.00  0.00    +0.000 NA
ATOM      9  N   UNL     1      -1.389   3.365   0.000  0.00  0.00    +0.000 NA
ATOM     10  C   UNL     1      -1.134   2.581   0.000  0.00  0.00    +0.000 A 
ATOM     11  C   UNL     1      -0.381   2.245   0.000  0.00  0.00    +0.000 A 
ATOM     12  N   UNL     1      -0.467   1.425   0.000  0.00  0.00    +0.000 NA
ATOM     13  C   UNL     1      -1.274   1.253   0.000  0.00  0.00    +0.000 A 
ATOM     14  N   UNL     1      -1.686   1.968   0.000  0.00  0.00    +0.000 N 
ATOM     15  C   UNL     1      -2.493   2.139   0.000  0.00  0.00    +0.000 A 
ATOM     16  O   UNL     1      -3.045   1.526   0.000  0.00  0.00    +0.000 OA
ENDBRANCH   1  11
BRANCH   4  17
ATOM     17  O   UNL     1       2.477   2.245   0.000  0.00  0.00    +0.000 OA
BRANCH  17  18
ATOM     18  C   UNL     1       3.192   2.658   0.000  0.00  0.00    +0.000 C 
BRANCH  18  19
ATOM     19  C   UNL     1       3.906   2.245   0.000  0.00  0.00    +0.000 C 
ATOM     20  C   UNL     1       4.621   2.658   0.000  0.00  0.00    +0.000 C 
ATOM     21  C   UNL     1       5.335   2.245   0.000  0.00  0.00    +0.000 C 
ATOM     22  C   UNL     1       5.335   1.420   0.000  0.00  0.00    +0.000 C 
ATOM     23  C   UNL     1       4.621   1.008   0.000  0.00  0.00    +0.000 C 
ATOM     24  C   UNL     1       3.906   1.420   0.000  0.00  0.00    +0.000 C 
BRANCH  22  25
ATOM     25  C   UNL     1       6.050   1.008   0.000  0.00  0.00    +0.000 C 
ATOM     26  C   UNL     1       6.764   1.420   0.000  0.00  0.00    +0.000 C 
ATOM     27  C   UNL     1       6.050   0.183   0.000  0.00  0.00    +0.000 C 
ENDBRANCH  22  25
ENDBRANCH  18  19
ENDBRANCH  17  18
ENDBRANCH   4  17
TORSDOF 5
