REMARK  Name = 
REMARK  10 active torsions:
REMARK  status: ('A' for Active; 'I' for Inactive)
REMARK    1  A    between atoms: C_2  and  C_3
REMARK    2  A    between atoms: C_4  and  C_5
REMARK    3  A    between atoms: C_6  and  C_8
REMARK    4  A    between atoms: C_9  and  C_10
REMARK    5  A    between atoms: C_13  and  C_14
REMARK    6  A    between atoms: C_15  and  C_16
REMARK    7  A    between atoms: C_17  and  C_19
REMARK    8  A    between atoms: C_20  and  C_21
REMARK    9  A    between atoms: C_22  and  C_24
REMARK   10  A    between atoms: C_25  and  C_26
REMARK                            x       y       z     vdW  Elec       q    Type
REMARK                         _______ _______ _______ _____ _____    ______ ____
ROOT
ATOM      1  C   UNL     1       5.775   2.858   0.000  0.00  0.00    +0.000 C 
ATOM      2  C   UNL     1       4.950   2.858   0.000  0.00  0.00    +0.000 C 
ENDROOT
BRANCH   1   5
ATOM      3  C   UNL     1       7.425   2.858   0.000  0.00  0.00    +0.000 C 
ATOM      4  C   UNL     1       7.013   3.572   0.000  0.00  0.00    +0.000 C 
ATOM      5  C   UNL     1       6.188   3.572   0.000  0.00  0.00    +0.000 C 
BRANCH   4   6
ATOM      6  C   UNL     1       7.425   4.287   0.000  0.00  0.00    +0.000 C 
ATOM      7  C   UNL     1       8.250   4.287   0.000  0.00  0.00    +0.000 C 
BRANCH   7   8
ATOM      8  C   UNL     1       8.662   5.001   0.000  0.00  0.00    +0.000 C 
ATOM      9  C   UNL     1       9.488   5.001   0.000  0.00  0.00    +0.000 C 
ATOM     10  C   UNL     1       9.900   4.287   0.000  0.00  0.00    +0.000 C 
BRANCH   9  11
ATOM     11  C   UNL     1       9.900   5.716   0.000  0.00  0.00    +0.000 C 
ATOM     12  C   UNL     1      10.725   5.716   0.000  0.00  0.00    +0.000 C 
BRANCH  12  13
ATOM     13  C   UNL     1      11.137   6.430   0.000  0.00  0.00    +0.000 C 
ATOM     14  O   UNL     1      11.963   6.430   0.000  0.00  0.00    +0.000 OA
ATOM     15  O   UNL     1      10.725   7.145   0.000  0.00  0.00    +0.000 OA
ENDBRANCH  12  13
ENDBRANCH   9  11
ENDBRANCH   7   8
ENDBRANCH   4   6
ENDBRANCH   1   5
BRANCH   2  16
ATOM     16  C   UNL     1       4.537   2.143   0.000  0.00  0.00    +0.000 C 
ATOM     17  C   UNL     1       3.712   2.143   0.000  0.00  0.00    +0.000 C 
ATOM     18  C   UNL     1       3.300   2.858   0.000  0.00  0.00    +0.000 C 
BRANCH  17  19
ATOM     19  C   UNL     1       3.300   1.429   0.000  0.00  0.00    +0.000 C 
ATOM     20  C   UNL     1       2.475   1.429   0.000  0.00  0.00    +0.000 C 
BRANCH  20  21
ATOM     21  C   UNL     1       2.062   0.715   0.000  0.00  0.00    +0.000 C 
ATOM     22  C   UNL     1       1.238   0.715   0.000  0.00  0.00    +0.000 C 
ATOM     23  C   UNL     1       0.825   1.429   0.000  0.00  0.00    +0.000 C 
BRANCH  22  24
ATOM     24  C   UNL     1       0.825   0.000   0.000  0.00  0.00    +0.000 C 
ATOM     25  C   UNL     1       0.000   0.000   0.000  0.00  0.00    +0.000 C 
BRANCH  25  26
ATOM     26  C   UNL     1      -0.412  -0.715   0.000  0.00  0.00    +0.000 C 
ATOM     27  O   UNL     1       0.000  -1.429   0.000  0.00  0.00    +0.000 OA
ATOM     28  O   UNL     1      -1.238  -0.715   0.000  0.00  0.00    +0.000 OA
ENDBRANCH  25  26
ENDBRANCH  22  24
ENDBRANCH  20  21
ENDBRANCH  17  19
ENDBRANCH   2  16
TORSDOF 10
