REMARK  Name = 
REMARK  6 active torsions:
REMARK  status: ('A' for Active; 'I' for Inactive)
REMARK    1  A    between atoms: C_1  and  C_2
REMARK    2  A    between atoms: C_4  and  O_10
REMARK    3  A    between atoms: O_10  and  C_11
REMARK    4  A    between atoms: C_15  and  O_18
REMARK    5  A    between atoms: O_18  and  C_19
REMARK    6  A    between atoms: C_19  and  C_28
REMARK                            x       y       z     vdW  Elec       q    Type
REMARK                         _______ _______ _______ _____ _____    ______ ____
ROOT
ATOM      1  C   UNL     1       0.784  -0.611   0.000  0.00  0.00    +0.000 A 
ATOM      2  C   UNL     1       0.233  -1.224   0.000  0.00  0.00    +0.000 A 
ATOM      3  C   UNL     1      -0.575  -1.053   0.000  0.00  0.00    +0.000 A 
ATOM      4  C   UNL     1      -0.829  -0.268   0.000  0.00  0.00    +0.000 A 
ATOM      5  C   UNL     1      -0.277   0.345   0.000  0.00  0.00    +0.000 A 
ATOM      6  C   UNL     1       0.530   0.173   0.000  0.00  0.00    +0.000 A 
ATOM      7 CL   UNL     1       0.487  -2.009   0.000  0.00  0.00    +0.000 Cl
ENDROOT
BRANCH   1   8
ATOM      8  O   UNL     1       1.591  -0.783   0.000  0.00  0.00    +0.000 OA
BRANCH   8  11
ATOM      9  C   UNL     1       2.908  -2.523   0.000  0.00  0.00    +0.000 A 
ATOM     10  C   UNL     1       2.653  -1.739   0.000  0.00  0.00    +0.000 A 
ATOM     11  C   UNL     1       1.846  -1.567   0.000  0.00  0.00    +0.000 A 
ATOM     12  C   UNL     1       1.294  -2.180   0.000  0.00  0.00    +0.000 A 
ATOM     13  C   UNL     1       1.549  -2.965   0.000  0.00  0.00    +0.000 A 
ATOM     14  C   UNL     1       2.356  -3.137   0.000  0.00  0.00    +0.000 A 
ATOM     15 CL   UNL     1       0.997  -3.578   0.000  0.00  0.00    +0.000 Cl
BRANCH   9  16
ATOM     16  C   UNL     1       3.715  -2.695   0.000  0.00  0.00    +0.000 C 
ATOM     17  N   UNL     1       4.522  -2.867   0.000  0.00  0.00    +0.000 NA
ENDBRANCH   9  16
ENDBRANCH   8  11
ENDBRANCH   1   8
BRANCH   5  18
ATOM     18  O   UNL     1      -0.532   1.130   0.000  0.00  0.00    +0.000 OA
BRANCH  18  19
ATOM     19  C   UNL     1      -1.339   1.301   0.000  0.00  0.00    +0.000 C 
BRANCH  19  28
ATOM     20  C   UNL     1      -2.379   3.166   0.000  0.00  0.00    +0.000 A 
ATOM     21  C   UNL     1      -2.379   2.341   0.000  0.00  0.00    +0.000 A 
ATOM     22  C   UNL     1      -3.093   1.928   0.000  0.00  0.00    +0.000 A 
ATOM     23  C   UNL     1      -3.808   2.341   0.000  0.00  0.00    +0.000 A 
ATOM     24  C   UNL     1      -3.808   3.166   0.000  0.00  0.00    +0.000 A 
ATOM     25  N   UNL     1      -3.093   3.578   0.000  0.00  0.00    +0.000 NA
ATOM     26  N   UNL     1      -1.109   2.753   0.000  0.00  0.00    +0.000 NA
ATOM     27  N   UNL     1      -1.594   3.421   0.000  0.00  0.00    +0.000 NA
ATOM     28  C   UNL     1      -1.594   2.086   0.000  0.00  0.00    +0.000 A 
ATOM     29  N   UNL     1      -4.522   3.578   0.000  0.00  0.00    +0.000 NA
ENDBRANCH  19  28
ENDBRANCH  18  19
ENDBRANCH   5  18
TORSDOF 6
