REMARK  Name = 
REMARK  7 active torsions:
REMARK  status: ('A' for Active; 'I' for Inactive)
REMARK    1  A    between atoms: N_8  and  C_15
REMARK    2  A    between atoms: N_8  and  C_17
REMARK    3  A    between atoms: N_11  and  C_18
REMARK    4  A    between atoms: C_12  and  C_13
REMARK    5  A    between atoms: C_12  and  C_14
REMARK    6  A    between atoms: C_13  and  C_15
REMARK    7  A    between atoms: C_14  and  C_16
REMARK                            x       y       z     vdW  Elec       q    Type
REMARK                         _______ _______ _______ _____ _____    ______ ____
ROOT
ATOM      1  O   UNL     1       1.072   3.094   0.000  0.00  0.00    +0.000 OA
ATOM      2  O   UNL     1       2.501   0.619   0.000  0.00  0.00    +0.000 OA
ATOM      3  N   UNL     1       1.072   0.619   0.000  0.00  0.00    +0.000 N 
ATOM      4  N   UNL     1       1.786   1.856   0.000  0.00  0.00    +0.000 N 
ATOM      5  C   UNL     1       0.357   1.031   0.000  0.00  0.00    +0.000 A 
ATOM      6  C   UNL     1       0.357   1.856   0.000  0.00  0.00    +0.000 A 
ATOM      7  C   UNL     1       1.072   2.269   0.000  0.00  0.00    +0.000 A 
ATOM      8  C   UNL     1       1.786   1.031   0.000  0.00  0.00    +0.000 A 
ATOM      9  H   UNL     1       1.072   0.107   0.000  0.00  0.00    +0.000 HD
ATOM     10  H   UNL     1       2.229   2.112   0.000  0.00  0.00    +0.000 HD
ENDROOT
BRANCH   6  12
ATOM     11  O   UNL     1      -0.357   3.094   0.000  0.00  0.00    +0.000 OA
ATOM     12  N   UNL     1      -0.357   2.269   0.000  0.00  0.00    +0.000 NA
ENDBRANCH   6  12
BRANCH   5  13
ATOM     13  N   UNL     1      -0.357   0.619   0.000  0.00  0.00    +0.000 N 
ATOM     14  H   UNL     1      -0.800   0.875   0.000  0.00  0.00    +0.000 HD
BRANCH  13  15
ATOM     15  C   UNL     1      -0.357  -0.206   0.000  0.00  0.00    +0.000 C 
BRANCH  15  17
ATOM     16  O   UNL     1      -1.786  -0.206   0.000  0.00  0.00    +0.000 OA
ATOM     17  C   UNL     1      -1.072  -0.619   0.000  0.00  0.00    +0.000 C 
BRANCH  17  19
ATOM     18  O   UNL     1      -0.357  -1.856   0.000  0.00  0.00    +0.000 OA
ATOM     19  C   UNL     1      -1.072  -1.444   0.000  0.00  0.00    +0.000 C 
BRANCH  19  21
ATOM     20  O   UNL     1      -2.501  -1.444   0.000  0.00  0.00    +0.000 OA
ATOM     21  C   UNL     1      -1.786  -1.856   0.000  0.00  0.00    +0.000 C 
BRANCH  21  23
ATOM     22  O   UNL     1      -2.501  -3.094   0.000  0.00  0.00    +0.000 OA
ATOM     23  C   UNL     1      -1.786  -2.681   0.000  0.00  0.00    +0.000 C 
ENDBRANCH  21  23
ENDBRANCH  19  21
ENDBRANCH  17  19
ENDBRANCH  15  17
ENDBRANCH  13  15
ENDBRANCH   5  13
TORSDOF 7
