REMARK  Name = 
REMARK  7 active torsions:
REMARK  status: ('A' for Active; 'I' for Inactive)
REMARK    1  A    between atoms: C_6  and  C_9
REMARK    2  A    between atoms: C_6  and  C_10
REMARK    3  A    between atoms: C_9  and  N_21
REMARK    4  A    between atoms: C_10  and  N_24
REMARK    5  A    between atoms: C_16  and  N_25
REMARK    6  A    between atoms: C_17  and  O_28
REMARK    7  A    between atoms: C_18  and  N_21
REMARK                            x       y       z     vdW  Elec       q    Type
REMARK                         _______ _______ _______ _____ _____    ______ ____
ROOT
ATOM      1  C   UNL     1       1.429  -1.650   0.000  0.00  0.00    +0.000 C 
ENDROOT
BRANCH   1   6
ATOM      2  C   UNL     1       2.858  -1.650   0.000  0.00  0.00    +0.000 C 
ATOM      3  C   UNL     1       2.143  -0.412   0.000  0.00  0.00    +0.000 C 
ATOM      4  C   UNL     1       3.572  -1.238   0.000  0.00  0.00    +0.000 C 
ATOM      5  C   UNL     1       2.858   0.000   0.000  0.00  0.00    +0.000 C 
ATOM      6  N   UNL     1       2.143  -1.238   0.000  0.00  0.00    +0.000 NA
ATOM      7  N   UNL     1       3.572  -0.412   0.000  0.00  0.00    +0.000 N 
BRANCH   7  12
ATOM      8  C   UNL     1       5.716   0.000   0.000  0.00  0.00    +0.000 A 
ATOM      9  C   UNL     1       5.716   0.825   0.000  0.00  0.00    +0.000 A 
ATOM     10  C   UNL     1       5.001  -0.412   0.000  0.00  0.00    +0.000 A 
ATOM     11  C   UNL     1       5.001   1.238   0.000  0.00  0.00    +0.000 A 
ATOM     12  C   UNL     1       4.287   0.000   0.000  0.00  0.00    +0.000 A 
ATOM     13  C   UNL     1       4.287   0.825   0.000  0.00  0.00    +0.000 A 
BRANCH  13  15
ATOM     14  C   UNL     1       2.858   0.825   0.000  0.00  0.00    +0.000 C 
ATOM     15  O   UNL     1       3.572   1.238   0.000  0.00  0.00    +0.000 OA
ENDBRANCH  13  15
ENDBRANCH   7  12
ENDBRANCH   1   6
BRANCH   1  16
ATOM     16  C   UNL     1       0.715  -1.238   0.000  0.00  0.00    +0.000 C 
BRANCH  16  17
ATOM     17  C   UNL     1       0.000  -1.650   0.000  0.00  0.00    +0.000 C 
BRANCH  17  18
ATOM     18  N   UNL     1      -0.715  -1.238   0.000  0.00  0.00    +0.000 NA
BRANCH  18  22
ATOM     19  C   UNL     1      -2.143  -0.412   0.000  0.00  0.00    +0.000 C 
ATOM     20  C   UNL     1      -3.572  -2.888   0.000  0.00  0.00    +0.000 C 
ATOM     21  C   UNL     1      -1.429  -2.475   0.000  0.00  0.00    +0.000 A 
ATOM     22  C   UNL     1      -1.429  -1.650   0.000  0.00  0.00    +0.000 A 
ATOM     23  C   UNL     1      -2.143  -2.888   0.000  0.00  0.00    +0.000 A 
ATOM     24  C   UNL     1      -2.858  -1.650   0.000  0.00  0.00    +0.000 A 
ATOM     25  N   UNL     1      -2.143  -1.238   0.000  0.00  0.00    +0.000 N 
ATOM     26  N   UNL     1      -2.858  -2.475   0.000  0.00  0.00    +0.000 N 
ATOM     27  O   UNL     1      -2.143  -3.712   0.000  0.00  0.00    +0.000 OA
ATOM     28  O   UNL     1      -3.572  -1.238   0.000  0.00  0.00    +0.000 OA
ENDBRANCH  18  22
ENDBRANCH  17  18
ENDBRANCH  16  17
ENDBRANCH   1  16
TORSDOF 7
