REMARK  Name = 
REMARK  5 active torsions:
REMARK  status: ('A' for Active; 'I' for Inactive)
REMARK    1  A    between atoms: C_2  and  C_3
REMARK    2  A    between atoms: C_2  and  N_10
REMARK    3  A    between atoms: C_3  and  C_4
REMARK    4  A    between atoms: N_10  and  C_11
REMARK    5  A    between atoms: C_11  and  C_12
REMARK                            x       y       z     vdW  Elec       q    Type
REMARK                         _______ _______ _______ _____ _____    ______ ____
ROOT
ATOM      1  C   UNL     1       1.429  -1.650   0.000  0.00  0.00    +0.000 C 
ATOM      2  C   UNL     1       1.429  -2.475   0.000  0.00  0.00    +0.000 C 
ENDROOT
BRANCH   2   3
ATOM      3  C   UNL     1       0.715  -2.888   0.000  0.00  0.00    +0.000 C 
BRANCH   3   4
ATOM      4  C   UNL     1       0.000  -2.475   0.000  0.00  0.00    +0.000 A 
ATOM      5  C   UNL     1      -0.715  -2.888   0.000  0.00  0.00    +0.000 A 
ATOM      6  C   UNL     1      -1.429  -2.475   0.000  0.00  0.00    +0.000 A 
ATOM      7  C   UNL     1      -1.429  -1.650   0.000  0.00  0.00    +0.000 A 
ATOM      8  C   UNL     1      -0.715  -1.238   0.000  0.00  0.00    +0.000 A 
ATOM      9  C   UNL     1       0.000  -1.650   0.000  0.00  0.00    +0.000 A 
ENDBRANCH   3   4
ENDBRANCH   2   3
BRANCH   2  10
ATOM     10  N   UNL     1       2.143  -2.888   0.000  0.00  0.00    +0.000 NA
BRANCH  10  11
ATOM     11  C   UNL     1       2.858  -2.475   0.000  0.00  0.00    +0.000 C 
BRANCH  11  12
ATOM     12  C   UNL     1       3.572  -2.888   0.000  0.00  0.00    +0.000 A 
ATOM     13  C   UNL     1       4.287  -2.475   0.000  0.00  0.00    +0.000 A 
ATOM     14  C   UNL     1       5.001  -2.888   0.000  0.00  0.00    +0.000 A 
ATOM     15  C   UNL     1       5.001  -3.712   0.000  0.00  0.00    +0.000 A 
ATOM     16  C   UNL     1       4.287  -4.125   0.000  0.00  0.00    +0.000 A 
ATOM     17  C   UNL     1       3.572  -3.712   0.000  0.00  0.00    +0.000 A 
ATOM     18 CL   UNL     1       2.858  -4.125   0.000  0.00  0.00    +0.000 Cl
ENDBRANCH  11  12
ENDBRANCH  10  11
ENDBRANCH   2  10
TORSDOF 5
