REMARK  Name = 
REMARK  4 active torsions:
REMARK  status: ('A' for Active; 'I' for Inactive)
REMARK    1  A    between atoms: N_14  and  C_15
REMARK    2  A    between atoms: C_15  and  C_16
REMARK    3  A    between atoms: N_19  and  C_22
REMARK    4  A    between atoms: C_22  and  C_23
REMARK                            x       y       z     vdW  Elec       q    Type
REMARK                         _______ _______ _______ _____ _____    ______ ____
ROOT
ATOM      1  C   UNL     1       0.424   0.382   0.000  0.00  0.00    +0.000 C 
ATOM      2  C   UNL     1       1.139  -0.030   0.000  0.00  0.00    +0.000 C 
ATOM      3  C   UNL     1       1.923  -0.285   0.000  0.00  0.00    +0.000 A 
ATOM      4  C   UNL     1       2.638   0.127   0.000  0.00  0.00    +0.000 A 
ATOM      5  C   UNL     1       3.352  -0.285   0.000  0.00  0.00    +0.000 A 
ATOM      6  C   UNL     1       3.352  -1.110   0.000  0.00  0.00    +0.000 A 
ATOM      7  C   UNL     1       2.638  -1.523   0.000  0.00  0.00    +0.000 A 
ATOM      8  C   UNL     1       1.923  -1.110   0.000  0.00  0.00    +0.000 A 
ATOM      9  N   UNL     1       1.139  -1.365   0.000  0.00  0.00    +0.000 N 
ATOM     10  C   UNL     1       0.654  -0.698   0.000  0.00  0.00    +0.000 C 
ATOM     11  O   UNL     1      -0.171  -0.698   0.000  0.00  0.00    +0.000 OA
ATOM     12  C   UNL     1       0.884  -2.150   0.000  0.00  0.00    +0.000 C 
ATOM     13  O   UNL     1       1.436  -2.763   0.000  0.00  0.00    +0.000 OA
ATOM     14  N   UNL     1       0.077  -2.321   0.000  0.00  0.00    +0.000 NA
ATOM     15  F   UNL     1       4.067  -1.523   0.000  0.00  0.00    +0.000 F 
ATOM     16  C   UNL     1       1.474   0.723   0.000  0.00  0.00    +0.000 C 
ENDROOT
BRANCH  14  17
ATOM     17  C   UNL     1      -0.178  -3.106   0.000  0.00  0.00    +0.000 C 
BRANCH  17  18
ATOM     18  C   UNL     1      -0.985  -3.278   0.000  0.00  0.00    +0.000 C 
ATOM     19  C   UNL     1      -1.240  -4.062   0.000  0.00  0.00    +0.000 C 
ATOM     20  C   UNL     1      -2.047  -4.234   0.000  0.00  0.00    +0.000 C 
ATOM     21  N   UNL     1      -2.599  -3.621   0.000  0.00  0.00    +0.000 NA
ATOM     22  C   UNL     1      -2.344  -2.836   0.000  0.00  0.00    +0.000 C 
ATOM     23  C   UNL     1      -1.537  -2.665   0.000  0.00  0.00    +0.000 C 
BRANCH  21  24
ATOM     24  C   UNL     1      -3.406  -3.792   0.000  0.00  0.00    +0.000 C 
BRANCH  24  25
ATOM     25  C   UNL     1      -3.661  -4.577   0.000  0.00  0.00    +0.000 C 
ATOM     26  C   UNL     1      -3.632  -5.401   0.000  0.00  0.00    +0.000 C 
ATOM     27  C   UNL     1      -4.332  -5.839   0.000  0.00  0.00    +0.000 C 
ATOM     28  O   UNL     1      -5.060  -5.451   0.000  0.00  0.00    +0.000 OA
ATOM     29  C   UNL     1      -5.089  -4.627   0.000  0.00  0.00    +0.000 C 
ATOM     30  C   UNL     1      -4.389  -4.190   0.000  0.00  0.00    +0.000 C 
ATOM     31  O   UNL     1      -2.844  -4.692   0.000  0.00  0.00    +0.000 OA
ENDBRANCH  24  25
ENDBRANCH  21  24
ENDBRANCH  17  18
ENDBRANCH  14  17
TORSDOF 4
