REMARK  Name = 
REMARK  4 active torsions:
REMARK  status: ('A' for Active; 'I' for Inactive)
REMARK    1  A    between atoms: C_3  and  C_13
REMARK    2  A    between atoms: C_5  and  C_6
REMARK    3  A    between atoms: C_6  and  C_7
REMARK    4  A    between atoms: N_15  and  C_16
REMARK                            x       y       z     vdW  Elec       q    Type
REMARK                         _______ _______ _______ _____ _____    ______ ____
ROOT
ATOM      1  C   UNL     1      -0.275   0.699   0.000  0.00  0.00    +0.000 C 
ATOM      2  O   UNL     1      -0.687   1.414   0.000  0.00  0.00    +0.000 OA
ATOM      3  N   UNL     1      -0.687  -0.015   0.000  0.00  0.00    +0.000 NA
ENDROOT
BRANCH   3   4
ATOM      4  C   UNL     1      -1.512  -0.015   0.000  0.00  0.00    +0.000 C 
ATOM      5  C   UNL     1      -1.870  -0.758   0.000  0.00  0.00    +0.000 C 
ATOM      6  N   UNL     1      -2.674  -0.942   0.000  0.00  0.00    +0.000 N 
ATOM      7  C   UNL     1      -3.319  -0.427   0.000  0.00  0.00    +0.000 A 
ATOM      8  C   UNL     1      -3.319   0.397   0.000  0.00  0.00    +0.000 A 
ATOM      9  O   UNL     1      -2.674   0.912   0.000  0.00  0.00    +0.000 OA
ATOM     10  C   UNL     1      -1.870   0.728   0.000  0.00  0.00    +0.000 C 
ATOM     11  C   UNL     1      -4.034   0.810   0.000  0.00  0.00    +0.000 A 
ATOM     12  C   UNL     1      -4.748   0.397   0.000  0.00  0.00    +0.000 A 
ATOM     13  C   UNL     1      -4.748  -0.427   0.000  0.00  0.00    +0.000 A 
ATOM     14  C   UNL     1      -4.034  -0.840   0.000  0.00  0.00    +0.000 A 
ATOM     15  C   UNL     1      -2.858  -1.746   0.000  0.00  0.00    +0.000 C 
ATOM     16  O   UNL     1      -1.356  -1.403   0.000  0.00  0.00    +0.000 OA
ENDBRANCH   3   4
BRANCH   1  19
ATOM     17  N   UNL     1       1.820   0.287   0.000  0.00  0.00    +0.000 NA
ATOM     18  N   UNL     1       1.035   0.032   0.000  0.00  0.00    +0.000 NA
ATOM     19  C   UNL     1       0.550   0.699   0.000  0.00  0.00    +0.000 A 
ATOM     20  N   UNL     1       1.035   1.367   0.000  0.00  0.00    +0.000 NA
ATOM     21  C   UNL     1       1.820   1.112   0.000  0.00  0.00    +0.000 A 
BRANCH  21  22
ATOM     22  C   UNL     1       2.487   1.597   0.000  0.00  0.00    +0.000 C 
BRANCH  22  23
ATOM     23  C   UNL     1       3.241   1.261   0.000  0.00  0.00    +0.000 A 
ATOM     24  C   UNL     1       3.908   1.746   0.000  0.00  0.00    +0.000 A 
ATOM     25  C   UNL     1       4.662   1.411   0.000  0.00  0.00    +0.000 A 
ATOM     26  C   UNL     1       4.748   0.590   0.000  0.00  0.00    +0.000 A 
ATOM     27  C   UNL     1       4.081   0.105   0.000  0.00  0.00    +0.000 A 
ATOM     28  C   UNL     1       3.327   0.441   0.000  0.00  0.00    +0.000 A 
ENDBRANCH  22  23
ENDBRANCH  21  22
ENDBRANCH   1  19
TORSDOF 4
