REMARK  Name = 
REMARK  5 active torsions:
REMARK  status: ('A' for Active; 'I' for Inactive)
REMARK    1  A    between atoms: C_5  and  C_8
REMARK    2  A    between atoms: C_8  and  N_9
REMARK    3  A    between atoms: C_16  and  C_19
REMARK    4  A    between atoms: C_23  and  O_25
REMARK    5  A    between atoms: O_25  and  C_26
REMARK                            x       y       z     vdW  Elec       q    Type
REMARK                         _______ _______ _______ _____ _____    ______ ____
ROOT
ATOM      1  N   UNL     1       4.067   2.348   0.000  0.00  0.00    +0.000 NA
ATOM      2  C   UNL     1       3.352   1.935   0.000  0.00  0.00    +0.000 A 
ATOM      3  C   UNL     1       3.352   1.110   0.000  0.00  0.00    +0.000 A 
ATOM      4  C   UNL     1       2.638   0.698   0.000  0.00  0.00    +0.000 A 
ATOM      5  C   UNL     1       1.923   1.110   0.000  0.00  0.00    +0.000 A 
ATOM      6  N   UNL     1       1.139   0.856   0.000  0.00  0.00    +0.000 NA
ATOM      7  C   UNL     1       0.654   1.523   0.000  0.00  0.00    +0.000 A 
ATOM      8  C   UNL     1       1.139   2.190   0.000  0.00  0.00    +0.000 A 
ATOM      9  N   UNL     1       1.923   1.935   0.000  0.00  0.00    +0.000 N 
ATOM     10  N   UNL     1       2.638   2.348   0.000  0.00  0.00    +0.000 NA
ENDROOT
BRANCH   8  11
ATOM     11  C   UNL     1       0.884   2.975   0.000  0.00  0.00    +0.000 A 
ATOM     12  C   UNL     1       0.077   3.147   0.000  0.00  0.00    +0.000 A 
ATOM     13  C   UNL     1      -0.178   3.931   0.000  0.00  0.00    +0.000 A 
ATOM     14  C   UNL     1       0.374   4.544   0.000  0.00  0.00    +0.000 A 
ATOM     15  C   UNL     1       1.181   4.373   0.000  0.00  0.00    +0.000 A 
ATOM     16  C   UNL     1       1.436   3.588   0.000  0.00  0.00    +0.000 A 
BRANCH  15  17
ATOM     17  O   UNL     1       1.733   4.986   0.000  0.00  0.00    +0.000 OA
BRANCH  17  18
ATOM     18  C   UNL     1       1.478   5.770   0.000  0.00  0.00    +0.000 C 
ATOM     19  F   UNL     1       1.223   6.555   0.000  0.00  0.00    +0.000 F 
ATOM     20  F   UNL     1       2.263   6.025   0.000  0.00  0.00    +0.000 F 
ATOM     21  F   UNL     1       0.693   5.516   0.000  0.00  0.00    +0.000 F 
ENDBRANCH  17  18
ENDBRANCH  15  17
ENDBRANCH   8  11
BRANCH   1  22
ATOM     22  C   UNL     1       4.781   1.935   0.000  0.00  0.00    +0.000 C 
BRANCH  22  27
ATOM     23  C   UNL     1       7.639   3.585   0.000  0.00  0.00    +0.000 C 
ATOM     24  N   UNL     1       6.925   3.173   0.000  0.00  0.00    +0.000 NA
ATOM     25  C   UNL     1       6.925   2.348   0.000  0.00  0.00    +0.000 C 
ATOM     26  C   UNL     1       6.210   1.935   0.000  0.00  0.00    +0.000 C 
ATOM     27  C   UNL     1       5.496   2.348   0.000  0.00  0.00    +0.000 C 
ATOM     28  C   UNL     1       5.496   3.173   0.000  0.00  0.00    +0.000 C 
ATOM     29  C   UNL     1       6.210   3.585   0.000  0.00  0.00    +0.000 C 
ENDBRANCH  22  27
ENDBRANCH   1  22
TORSDOF 5
