REMARK  Name = 
REMARK  1 active torsions:
REMARK  status: ('A' for Active; 'I' for Inactive)
REMARK    1  A    between atoms: C_12  and  C_17
REMARK                            x       y       z     vdW  Elec       q    Type
REMARK                         _______ _______ _______ _____ _____    ______ ____
ROOT
ATOM      1  F   UNL     1      -2.528  -0.417   0.000  0.00  0.00    +0.000 F 
ATOM      2  O   UNL     1       0.384   1.253   0.000  0.00  0.00    +0.000 OA
ATOM      3  O   UNL     1      -0.896  -1.434   0.000  0.00  0.00    +0.000 OA
ATOM      4  O   UNL     1       1.282  -2.334   0.000  0.00  0.00    +0.000 OA
ATOM      5  N   UNL     1       1.052  -0.882   0.000  0.00  0.00    +0.000 N 
ATOM      6  N   UNL     1      -0.028  -1.666   0.000  0.00  0.00    +0.000 N 
ATOM      7  C   UNL     1       0.384  -0.397   0.000  0.00  0.00    +0.000 C 
ATOM      8  C   UNL     1       1.099   0.015   0.000  0.00  0.00    +0.000 C 
ATOM      9  C   UNL     1      -0.330   0.015   0.000  0.00  0.00    +0.000 A 
ATOM     10  C   UNL     1       1.099   0.841   0.000  0.00  0.00    +0.000 C 
ATOM     11  C   UNL     1      -0.283  -0.882   0.000  0.00  0.00    +0.000 C 
ATOM     12  C   UNL     1      -0.330   0.841   0.000  0.00  0.00    +0.000 A 
ATOM     13  C   UNL     1       0.797  -1.666   0.000  0.00  0.00    +0.000 C 
ATOM     14  C   UNL     1      -1.067  -0.425   0.000  0.00  0.00    +0.000 A 
ATOM     15  C   UNL     1      -1.067   1.282   0.000  0.00  0.00    +0.000 A 
ATOM     16  C   UNL     1      -1.815  -0.002   0.000  0.00  0.00    +0.000 A 
ATOM     17  C   UNL     1      -1.815   0.858   0.000  0.00  0.00    +0.000 A 
ATOM     18  H   UNL     1       1.538  -0.724   0.000  0.00  0.00    +0.000 HD
ATOM     19  H   UNL     1      -0.329  -2.080   0.000  0.00  0.00    +0.000 HD
ENDROOT
BRANCH  10  22
ATOM     20  O   UNL     1       2.528   0.841   0.000  0.00  0.00    +0.000 OA
ATOM     21  N   UNL     1       1.813   2.078   0.000  0.00  0.00    +0.000 N 
ATOM     22  C   UNL     1       1.813   1.253   0.000  0.00  0.00    +0.000 C 
ATOM     23  H   UNL     1       2.256   2.334   0.000  0.00  0.00    +0.000 HD
ATOM     24  H   UNL     1       1.370   2.334   0.000  0.00  0.00    +0.000 HD
ENDBRANCH  10  22
TORSDOF 1
