REMARK  Name = 
REMARK  1 active torsions:
REMARK  status: ('A' for Active; 'I' for Inactive)
REMARK    1  A    between atoms: N_5  and  C_8
REMARK                            x       y       z     vdW  Elec       q    Type
REMARK                         _______ _______ _______ _____ _____    ______ ____
ROOT
ATOM      1  C   UNL     1       3.279   1.238   0.000  0.00  0.00    +0.000 A 
ATOM      2  C   UNL     1       3.993   0.825   0.000  0.00  0.00    +0.000 A 
ATOM      3  C   UNL     1       3.993   0.000   0.000  0.00  0.00    +0.000 A 
ATOM      4  C   UNL     1       3.279  -0.412   0.000  0.00  0.00    +0.000 A 
ATOM      5  C   UNL     1       2.564   0.000   0.000  0.00  0.00    +0.000 A 
ATOM      6  C   UNL     1       2.564   0.825   0.000  0.00  0.00    +0.000 A 
ATOM      7  O   UNL     1       1.780   1.080   0.000  0.00  0.00    +0.000 OA
ATOM      8  C   UNL     1       1.295   0.412   0.000  0.00  0.00    +0.000 A 
ATOM      9  O   UNL     1       0.470   0.412   0.000  0.00  0.00    +0.000 OA
ATOM     10  N   UNL     1       1.780  -0.255   0.000  0.00  0.00    +0.000 NA
ENDROOT
BRANCH   1  15
ATOM     11  C   UNL     1       3.279   4.537   0.000  0.00  0.00    +0.000 C 
ATOM     12  N   UNL     1       3.279   3.712   0.000  0.00  0.00    +0.000 NA
ATOM     13  C   UNL     1       3.993   3.300   0.000  0.00  0.00    +0.000 C 
ATOM     14  C   UNL     1       3.993   2.475   0.000  0.00  0.00    +0.000 C 
ATOM     15  N   UNL     1       3.279   2.062   0.000  0.00  0.00    +0.000 N 
ATOM     16  C   UNL     1       2.564   2.475   0.000  0.00  0.00    +0.000 C 
ATOM     17  C   UNL     1       2.564   3.300   0.000  0.00  0.00    +0.000 C 
ENDBRANCH   1  15
TORSDOF 1
