REMARK  Name = 
REMARK  5 active torsions:
REMARK  status: ('A' for Active; 'I' for Inactive)
REMARK    1  A    between atoms: C_6  and  N_7
REMARK    2  A    between atoms: C_12  and  C_14
REMARK    3  A    between atoms: N_18  and  C_21
REMARK    4  A    between atoms: C_21  and  C_22
REMARK    5  A    between atoms: C_21  and  C_24
REMARK                            x       y       z     vdW  Elec       q    Type
REMARK                         _______ _______ _______ _____ _____    ______ ____
ROOT
ATOM      1  C   UNL     1       2.791  -3.361   0.000  0.00  0.00    +0.000 A 
ATOM      2  C   UNL     1       2.177  -3.913   0.000  0.00  0.00    +0.000 A 
ATOM      3  C   UNL     1       1.393  -3.658   0.000  0.00  0.00    +0.000 A 
ATOM      4  O   UNL     1       0.780  -4.210   0.000  0.00  0.00    +0.000 OA
ATOM      5  N   UNL     1       1.221  -2.851   0.000  0.00  0.00    +0.000 N 
ATOM      6  C   UNL     1       1.834  -2.299   0.000  0.00  0.00    +0.000 A 
ATOM      7  C   UNL     1       2.619  -2.554   0.000  0.00  0.00    +0.000 A 
ENDROOT
BRANCH   1  13
ATOM      8  N   UNL     1       5.586  -2.767   0.000  0.00  0.00    +0.000 NA
ATOM      9  C   UNL     1       4.973  -3.319   0.000  0.00  0.00    +0.000 A 
ATOM     10  N   UNL     1       5.144  -4.126   0.000  0.00  0.00    +0.000 NA
ATOM     11  C   UNL     1       4.531  -4.678   0.000  0.00  0.00    +0.000 A 
ATOM     12  C   UNL     1       3.747  -4.423   0.000  0.00  0.00    +0.000 A 
ATOM     13  C   UNL     1       3.575  -3.616   0.000  0.00  0.00    +0.000 A 
ATOM     14  N   UNL     1       4.188  -3.064   0.000  0.00  0.00    +0.000 NA
BRANCH   8  20
ATOM     15  C   UNL     1       7.038  -1.712   0.000  0.00  0.00    +0.000 C 
ATOM     16  N   UNL     1       7.038  -2.537   0.000  0.00  0.00    +0.000 N 
ATOM     17  N   UNL     1       7.705  -3.022   0.000  0.00  0.00    +0.000 NA
ATOM     18  C   UNL     1       7.450  -3.806   0.000  0.00  0.00    +0.000 A 
ATOM     19  C   UNL     1       6.625  -3.806   0.000  0.00  0.00    +0.000 A 
ATOM     20  C   UNL     1       6.371  -3.022   0.000  0.00  0.00    +0.000 A 
ENDBRANCH   8  20
ENDBRANCH   1  13
BRANCH   5  21
ATOM     21  C   UNL     1       0.437  -2.596   0.000  0.00  0.00    +0.000 C 
BRANCH  21  22
ATOM     22  C   UNL     1       0.265  -1.789   0.000  0.00  0.00    +0.000 A 
ATOM     23  C   UNL     1      -0.519  -1.534   0.000  0.00  0.00    +0.000 A 
ATOM     24  C   UNL     1      -0.691  -0.727   0.000  0.00  0.00    +0.000 A 
ATOM     25  F   UNL     1      -1.476  -0.472   0.000  0.00  0.00    +0.000 F 
ATOM     26  C   UNL     1      -0.078  -0.175   0.000  0.00  0.00    +0.000 A 
ATOM     27 CL   UNL     1      -0.249   0.632   0.000  0.00  0.00    +0.000 Cl
ATOM     28  C   UNL     1       0.707  -0.430   0.000  0.00  0.00    +0.000 A 
ATOM     29  C   UNL     1       0.878  -1.237   0.000  0.00  0.00    +0.000 A 
ENDBRANCH  21  22
BRANCH  21  30
ATOM     30  C   UNL     1      -0.176  -3.148   0.000  0.00  0.00    +0.000 C 
ATOM     31  O   UNL     1      -0.961  -2.893   0.000  0.00  0.00    +0.000 OA
ENDBRANCH  21  30
ENDBRANCH   5  21
TORSDOF 5
