REMARK  Name = 
REMARK  9 active torsions:
REMARK  status: ('A' for Active; 'I' for Inactive)
REMARK    1  A    between atoms: C_2  and  C_4
REMARK    2  A    between atoms: C_2  and  O_7
REMARK    3  A    between atoms: O_7  and  C_8
REMARK    4  A    between atoms: C_10  and  O_19
REMARK    5  A    between atoms: C_11  and  C_15
REMARK    6  A    between atoms: O_19  and  C_20
REMARK    7  A    between atoms: C_20  and  C_21
REMARK    8  A    between atoms: C_21  and  C_22
REMARK    9  A    between atoms: C_22  and  N_23
REMARK                            x       y       z     vdW  Elec       q    Type
REMARK                         _______ _______ _______ _____ _____    ______ ____
ROOT
ATOM      1  O   UNL     1       6.824   1.841   0.000  0.00  0.00    +0.000 OA
ENDROOT
BRANCH   1   4
ATOM      2  C   UNL     1       8.886   1.127   0.000  0.00  0.00    +0.000 A 
ATOM      3  C   UNL     1       8.061   1.127   0.000  0.00  0.00    +0.000 A 
ATOM      4  C   UNL     1       7.649   1.841   0.000  0.00  0.00    +0.000 A 
ATOM      5  C   UNL     1       8.061   2.556   0.000  0.00  0.00    +0.000 A 
ATOM      6  C   UNL     1       8.886   2.556   0.000  0.00  0.00    +0.000 A 
ATOM      7  C   UNL     1       9.299   1.841   0.000  0.00  0.00    +0.000 A 
ATOM      8 CL   UNL     1      10.123   1.841   0.000  0.00  0.00    +0.000 Cl
BRANCH   5   9
ATOM      9  C   UNL     1       7.649   3.270   0.000  0.00  0.00    +0.000 C 
ATOM     10  O   UNL     1       8.061   3.985   0.000  0.00  0.00    +0.000 OA
ATOM     11  N   UNL     1       6.824   3.270   0.000  0.00  0.00    +0.000 NA
ATOM     12  C   UNL     1       6.411   3.985   0.000  0.00  0.00    +0.000 C 
ENDBRANCH   5   9
BRANCH   2  13
ATOM     13  O   UNL     1       9.299   0.412   0.000  0.00  0.00    +0.000 OA
BRANCH  13  15
ATOM     14  C   UNL     1      10.123   1.238   0.000  0.00  0.00    +0.000 C 
ATOM     15  C   UNL     1      10.123   0.412   0.000  0.00  0.00    +0.000 C 
ATOM     16  C   UNL     1      10.123  -0.412   0.000  0.00  0.00    +0.000 C 
BRANCH  15  17
ATOM     17  C   UNL     1      10.948   0.412   0.000  0.00  0.00    +0.000 C 
ATOM     18  O   UNL     1      11.361  -0.302   0.000  0.00  0.00    +0.000 OA
ATOM     19  O   UNL     1      11.361   1.127   0.000  0.00  0.00    +0.000 OA
ENDBRANCH  15  17
ENDBRANCH  13  15
ENDBRANCH   2  13
ENDBRANCH   1   4
BRANCH   1  20
ATOM     20  C   UNL     1       6.411   1.127   0.000  0.00  0.00    +0.000 C 
BRANCH  20  21
ATOM     21  C   UNL     1       5.586   1.127   0.000  0.00  0.00    +0.000 C 
ATOM     22  O   UNL     1       5.173   1.841   0.000  0.00  0.00    +0.000 OA
BRANCH  21  23
ATOM     23  C   UNL     1       5.173   0.412   0.000  0.00  0.00    +0.000 C 
BRANCH  23  24
ATOM     24  N   UNL     1       4.348   0.412   0.000  0.00  0.00    +0.000 NA
ATOM     25  C   UNL     1       3.936  -0.302   0.000  0.00  0.00    +0.000 C 
ATOM     26  C   UNL     1       3.111  -0.302   0.000  0.00  0.00    +0.000 C 
ATOM     27  C   UNL     1       2.699   0.412   0.000  0.00  0.00    +0.000 C 
ATOM     28  C   UNL     1       3.111   1.127   0.000  0.00  0.00    +0.000 C 
ATOM     29  C   UNL     1       3.936   1.127   0.000  0.00  0.00    +0.000 C 
ATOM     30  C   UNL     1       2.214  -0.255   0.000  0.00  0.00    +0.000 C 
ATOM     31  C   UNL     1       1.429   0.000   0.000  0.00  0.00    +0.000 A 
ATOM     32  C   UNL     1       0.715  -0.412   0.000  0.00  0.00    +0.000 A 
ATOM     33  C   UNL     1       0.000   0.000   0.000  0.00  0.00    +0.000 A 
ATOM     34  C   UNL     1       0.000   0.825   0.000  0.00  0.00    +0.000 A 
ATOM     35  C   UNL     1       0.715   1.238   0.000  0.00  0.00    +0.000 A 
ATOM     36  C   UNL     1       1.429   0.825   0.000  0.00  0.00    +0.000 A 
ATOM     37  O   UNL     1       2.214   1.080   0.000  0.00  0.00    +0.000 OA
ATOM     38 CL   UNL     1      -0.715  -0.412   0.000  0.00  0.00    +0.000 Cl
ENDBRANCH  23  24
ENDBRANCH  21  23
ENDBRANCH  20  21
ENDBRANCH   1  20
TORSDOF 9
