REMARK  Name = 
REMARK  9 active torsions:
REMARK  status: ('A' for Active; 'I' for Inactive)
REMARK    1  A    between atoms: O_2  and  N_3
REMARK    2  A    between atoms: C_4  and  C_5
REMARK    3  A    between atoms: C_8  and  C_11
REMARK    4  A    between atoms: C_11  and  N_12
REMARK    5  A    between atoms: C_13  and  C_15
REMARK    6  A    between atoms: C_19  and  C_21
REMARK    7  A    between atoms: C_21  and  C_22
REMARK    8  A    between atoms: C_24  and  O_29
REMARK    9  A    between atoms: O_29  and  C_30
REMARK                            x       y       z     vdW  Elec       q    Type
REMARK                         _______ _______ _______ _____ _____    ______ ____
ROOT
ATOM      1  C   UNL     1       1.429  -2.475   0.000  0.00  0.00    +0.000 C 
ATOM      2  C   UNL     1       2.012  -3.058   0.000  0.00  0.00    +0.000 C 
ATOM      3  C   UNL     1       1.429  -3.642   0.000  0.00  0.00    +0.000 C 
ATOM      4  N   UNL     1       0.846  -3.058   0.000  0.00  0.00    +0.000 N 
ATOM      5  C   UNL     1       0.021  -3.058   0.000  0.00  0.00    +0.000 C 
ATOM      6  O   UNL     1      -0.392  -2.344   0.000  0.00  0.00    +0.000 OA
ENDROOT
BRANCH   1   8
ATOM      7  N   UNL     1       2.143  -1.238   0.000  0.00  0.00    +0.000 NA
ATOM      8  C   UNL     1       1.429  -1.650   0.000  0.00  0.00    +0.000 C 
ATOM      9  O   UNL     1       0.715  -1.238   0.000  0.00  0.00    +0.000 OA
BRANCH   7  10
ATOM     10  C   UNL     1       2.143  -0.412   0.000  0.00  0.00    +0.000 C 
BRANCH  10  14
ATOM     11  C   UNL     1       4.287   0.825   0.000  0.00  0.00    +0.000 A 
ATOM     12  C   UNL     1       4.287   0.000   0.000  0.00  0.00    +0.000 A 
ATOM     13  C   UNL     1       3.572  -0.412   0.000  0.00  0.00    +0.000 A 
ATOM     14  C   UNL     1       2.858   0.000   0.000  0.00  0.00    +0.000 A 
ATOM     15  C   UNL     1       2.858   0.825   0.000  0.00  0.00    +0.000 A 
ATOM     16  C   UNL     1       3.572   1.238   0.000  0.00  0.00    +0.000 A 
BRANCH  11  18
ATOM     17  N   UNL     1       5.001   2.062   0.000  0.00  0.00    +0.000 NA
ATOM     18  C   UNL     1       5.001   1.238   0.000  0.00  0.00    +0.000 C 
ATOM     19  N   UNL     1       5.716   0.825   0.000  0.00  0.00    +0.000 NA
BRANCH  17  21
ATOM     20  C   UNL     1       5.716   3.300   0.000  0.00  0.00    +0.000 C 
ATOM     21  O   UNL     1       5.716   2.475   0.000  0.00  0.00    +0.000 OA
ENDBRANCH  17  21
ENDBRANCH  11  18
ENDBRANCH  10  14
ENDBRANCH   7  10
ENDBRANCH   1   8
BRANCH   5  22
ATOM     22  C   UNL     1      -0.392  -3.773   0.000  0.00  0.00    +0.000 C 
ATOM     23  O   UNL     1       0.021  -4.487   0.000  0.00  0.00    +0.000 OA
BRANCH  22  24
ATOM     24  C   UNL     1      -1.217  -3.773   0.000  0.00  0.00    +0.000 A 
ATOM     25  C   UNL     1      -1.629  -4.487   0.000  0.00  0.00    +0.000 A 
ATOM     26  C   UNL     1      -2.454  -4.487   0.000  0.00  0.00    +0.000 A 
ATOM     27  C   UNL     1      -2.867  -3.773   0.000  0.00  0.00    +0.000 A 
ATOM     28  C   UNL     1      -2.454  -3.058   0.000  0.00  0.00    +0.000 A 
ATOM     29  C   UNL     1      -1.629  -3.058   0.000  0.00  0.00    +0.000 A 
ATOM     30 CL   UNL     1      -2.867  -2.344   0.000  0.00  0.00    +0.000 Cl
BRANCH  26  31
ATOM     31  O   UNL     1      -2.867  -5.202   0.000  0.00  0.00    +0.000 OA
BRANCH  31  32
ATOM     32  C   UNL     1      -3.692  -5.202   0.000  0.00  0.00    +0.000 C 
ATOM     33  F   UNL     1      -4.104  -5.916   0.000  0.00  0.00    +0.000 F 
ATOM     34  F   UNL     1      -4.104  -4.487   0.000  0.00  0.00    +0.000 F 
ENDBRANCH  31  32
ENDBRANCH  26  31
ENDBRANCH  22  24
ENDBRANCH   5  22
TORSDOF 9
