REMARK  Name = 
REMARK  1 active torsions:
REMARK  status: ('A' for Active; 'I' for Inactive)
REMARK    1  A    between atoms: C_6  and  C_7
REMARK                            x       y       z     vdW  Elec       q    Type
REMARK                         _______ _______ _______ _____ _____    ______ ____
ROOT
ATOM      1  C   UNL     1      -0.398   0.858   0.000  0.00  0.00    +0.000 C 
ATOM      2  C   UNL     1       0.353   0.520   0.000  0.00  0.00    +0.000 C 
ATOM      3  S   UNL     1       1.069   0.933   0.000  0.00  0.00    +0.000 S 
ATOM      4  C   UNL     1       0.527  -0.286   0.000  0.00  0.00    +0.000 C 
ATOM      5  O   UNL     1      -0.025  -0.898   0.000  0.00  0.00    +0.000 OA
ATOM      6  N   UNL     1       1.343  -0.370   0.000  0.00  0.00    +0.000 NA
ATOM      7  C   UNL     1       1.681   0.381   0.000  0.00  0.00    +0.000 C 
ATOM      8  N   UNL     1       2.487   0.555   0.000  0.00  0.00    +0.000 NA
ENDROOT
BRANCH   1  14
ATOM      9  C   UNL     1      -0.980  -0.450   0.000  0.00  0.00    +0.000 A 
ATOM     10  C   UNL     1      -1.647  -0.933   0.000  0.00  0.00    +0.000 A 
ATOM     11  C   UNL     1      -2.402  -0.599   0.000  0.00  0.00    +0.000 A 
ATOM     12  C   UNL     1      -2.487   0.221   0.000  0.00  0.00    +0.000 A 
ATOM     13  N   UNL     1      -1.821   0.709   0.000  0.00  0.00    +0.000 NA
ATOM     14  C   UNL     1      -1.064   0.370   0.000  0.00  0.00    +0.000 A 
ENDBRANCH   1  14
TORSDOF 1
