REMARK  Name = 
REMARK  5 active torsions:
REMARK  status: ('A' for Active; 'I' for Inactive)
REMARK    1  A    between atoms: C_4  and  C_15
REMARK    2  A    between atoms: C_7  and  C_8
REMARK    3  A    between atoms: C_15  and  C_16
REMARK    4  A    between atoms: N_18  and  C_19
REMARK    5  A    between atoms: C_22  and  C_25
REMARK                            x       y       z     vdW  Elec       q    Type
REMARK                         _______ _______ _______ _____ _____    ______ ____
ROOT
ATOM      1  C   UNL     1       4.287  -6.600   0.000  0.00  0.00    +0.000 C 
ENDROOT
BRANCH   1   5
ATOM      2  C   UNL     1       2.858  -4.125   0.000  0.00  0.00    +0.000 C 
ATOM      3  C   UNL     1       2.858  -4.950   0.000  0.00  0.00    +0.000 A 
ATOM      4  C   UNL     1       3.572  -5.362   0.000  0.00  0.00    +0.000 A 
ATOM      5  C   UNL     1       3.572  -6.188   0.000  0.00  0.00    +0.000 A 
ATOM      6  C   UNL     1       2.858  -6.600   0.000  0.00  0.00    +0.000 A 
ATOM      7  N   UNL     1       2.143  -6.188   0.000  0.00  0.00    +0.000 NA
ATOM      8  C   UNL     1       2.143  -5.362   0.000  0.00  0.00    +0.000 A 
BRANCH   8   9
ATOM      9  C   UNL     1       1.429  -4.950   0.000  0.00  0.00    +0.000 A 
ATOM     10  C   UNL     1       0.715  -5.362   0.000  0.00  0.00    +0.000 A 
ATOM     11  C   UNL     1       0.000  -4.950   0.000  0.00  0.00    +0.000 A 
ATOM     12  N   UNL     1       0.000  -4.125   0.000  0.00  0.00    +0.000 NA
ATOM     13  C   UNL     1       0.715  -3.712   0.000  0.00  0.00    +0.000 A 
ATOM     14  C   UNL     1       1.429  -4.125   0.000  0.00  0.00    +0.000 A 
ATOM     15  C   UNL     1       0.715  -2.888   0.000  0.00  0.00    +0.000 C 
ENDBRANCH   8   9
ENDBRANCH   1   5
BRANCH   1  16
ATOM     16  C   UNL     1       4.287  -7.425   0.000  0.00  0.00    +0.000 C 
ATOM     17  O   UNL     1       3.572  -7.838   0.000  0.00  0.00    +0.000 OA
ATOM     18  N   UNL     1       5.001  -7.838   0.000  0.00  0.00    +0.000 NA
BRANCH  18  19
ATOM     19  C   UNL     1       5.001  -8.662   0.000  0.00  0.00    +0.000 A 
ATOM     20  C   UNL     1       5.716  -9.075   0.000  0.00  0.00    +0.000 A 
ATOM     21  C   UNL     1       5.716  -9.900   0.000  0.00  0.00    +0.000 A 
ATOM     22  C   UNL     1       5.001 -10.312   0.000  0.00  0.00    +0.000 A 
ATOM     23  C   UNL     1       4.287  -9.900   0.000  0.00  0.00    +0.000 A 
ATOM     24  N   UNL     1       4.287  -9.075   0.000  0.00  0.00    +0.000 NA
BRANCH  22  25
ATOM     25  C   UNL     1       5.001 -11.137   0.000  0.00  0.00    +0.000 A 
ATOM     26  C   UNL     1       5.716 -11.550   0.000  0.00  0.00    +0.000 A 
ATOM     27  N   UNL     1       5.716 -12.375   0.000  0.00  0.00    +0.000 NA
ATOM     28  C   UNL     1       5.001 -12.787   0.000  0.00  0.00    +0.000 A 
ATOM     29  C   UNL     1       4.287 -12.375   0.000  0.00  0.00    +0.000 A 
ATOM     30  N   UNL     1       4.287 -11.550   0.000  0.00  0.00    +0.000 NA
ENDBRANCH  22  25
ENDBRANCH  18  19
ENDBRANCH   1  16
TORSDOF 5
