REMARK  Name = 
REMARK  3 active torsions:
REMARK  status: ('A' for Active; 'I' for Inactive)
REMARK    1  A    between atoms: N_3  and  C_21
REMARK    2  A    between atoms: N_13  and  C_20
REMARK    3  A    between atoms: C_20  and  C_21
REMARK                            x       y       z     vdW  Elec       q    Type
REMARK                         _______ _______ _______ _____ _____    ______ ____
ROOT
ATOM      1  C   UNL     1      -2.143   1.253   0.000  0.00  0.00    +0.000 A 
ATOM      2  C   UNL     1      -2.143   2.078   0.000  0.00  0.00    +0.000 A 
ATOM      3  C   UNL     1      -1.429   2.491   0.000  0.00  0.00    +0.000 A 
ATOM      4  C   UNL     1      -1.429   0.841   0.000  0.00  0.00    +0.000 A 
ATOM      5  C   UNL     1      -0.714   1.254   0.000  0.00  0.00    +0.000 A 
ATOM      6  C   UNL     1      -0.714   2.078   0.000  0.00  0.00    +0.000 A 
ATOM      7  S   UNL     1       0.000   2.491   0.000  0.00  0.00    +0.000 S 
ATOM      8  N   UNL     1       0.000   0.841   0.000  0.00  0.00    +0.000 N 
ATOM      9  C   UNL     1       0.714   1.254   0.000  0.00  0.00    +0.000 A 
ATOM     10  C   UNL     1       0.714   2.078   0.000  0.00  0.00    +0.000 A 
ATOM     11  C   UNL     1       1.429   2.491   0.000  0.00  0.00    +0.000 A 
ATOM     12  C   UNL     1       2.143   2.078   0.000  0.00  0.00    +0.000 A 
ATOM     13  C   UNL     1       2.143   1.254   0.000  0.00  0.00    +0.000 A 
ATOM     14  C   UNL     1       1.429   0.841   0.000  0.00  0.00    +0.000 A 
ENDROOT
BRANCH   8  15
ATOM     15  C   UNL     1       0.000   0.016   0.000  0.00  0.00    +0.000 C 
BRANCH  15  16
ATOM     16  C   UNL     1       0.714  -0.396   0.000  0.00  0.00    +0.000 C 
BRANCH  16  19
ATOM     17  C   UNL     1       1.127  -2.491   0.000  0.00  0.00    +0.000 C 
ATOM     18  C   UNL     1       1.382  -1.706   0.000  0.00  0.00    +0.000 C 
ATOM     19  N   UNL     1       0.714  -1.221   0.000  0.00  0.00    +0.000 NA
ATOM     20  C   UNL     1       0.047  -1.706   0.000  0.00  0.00    +0.000 C 
ATOM     21  C   UNL     1       0.302  -2.491   0.000  0.00  0.00    +0.000 C 
ENDBRANCH  16  19
ENDBRANCH  15  16
ENDBRANCH   8  15
TORSDOF 3
