REMARK  Name = 
REMARK  7 active torsions:
REMARK  status: ('A' for Active; 'I' for Inactive)
REMARK    1  A    between atoms: N_4  and  C_9
REMARK    2  A    between atoms: C_6  and  CA_7
REMARK    3  A    between atoms: C_6  and  C_8
REMARK    4  A    between atoms: CA_7  and  C_10
REMARK    5  A    between atoms: C_8  and  C_9
REMARK    6  A    between atoms: C_11  and  C_12
REMARK    7  A    between atoms: C_11  and  C_13
REMARK                            x       y       z     vdW  Elec       q    Type
REMARK                         _______ _______ _______ _____ _____    ______ ____
ROOT
ATOM      1  C   UNL     1       0.000   0.840   0.000  0.00  0.00    +0.000 C 
ENDROOT
BRANCH   1   2
ATOM      2  C   UNL     1      -0.715   1.253   0.000  0.00  0.00    +0.000 C 
BRANCH   2   4
ATOM      3  N   UNL     1      -1.429   2.490   0.000  0.00  0.00    +0.000 NA
ATOM      4  CA  UNL     1      -0.715   2.078   0.000  0.00  0.00    +0.000 C 
BRANCH   4   7
ATOM      5  O   UNL     1       0.715   2.078   0.000  0.00  0.00    +0.000 OA
ATOM      6  OXT UNL     1       0.000   3.315   0.000  0.00  0.00    +0.000 OA
ATOM      7  C   UNL     1       0.000   2.490   0.000  0.00  0.00    +0.000 C 
ENDBRANCH   4   7
ENDBRANCH   2   4
ENDBRANCH   1   2
BRANCH   1   8
ATOM      8  C   UNL     1       0.000   0.015   0.000  0.00  0.00    +0.000 C 
BRANCH   8   9
ATOM      9  N   UNL     1       0.715  -0.397   0.000  0.00  0.00    +0.000 NA
ATOM     10  N   UNL     1       1.429  -1.635   0.000  0.00  0.00    +0.000 NA
ATOM     11  C   UNL     1       0.715  -1.222   0.000  0.00  0.00    +0.000 C 
BRANCH  11  12
ATOM     12  C   UNL     1       0.000  -1.635   0.000  0.00  0.00    +0.000 C 
BRANCH  12  13
ATOM     13  C   UNL     1       0.000  -2.460   0.000  0.00  0.00    +0.000 C 
ATOM     14  C   UNL     1      -0.715  -2.872   0.000  0.00  0.00    +0.000 C 
ENDBRANCH  12  13
ENDBRANCH  11  12
ENDBRANCH   8   9
ENDBRANCH   1   8
TORSDOF 7
