REMARK  Name = 
REMARK  5 active torsions:
REMARK  status: ('A' for Active; 'I' for Inactive)
REMARK    1  A    between atoms: C_5  and  C_7
REMARK    2  A    between atoms: C_7  and  C_8
REMARK    3  A    between atoms: C_8  and  C_23
REMARK    4  A    between atoms: C_11  and  O_14
REMARK    5  A    between atoms: O_14  and  C_15
REMARK                            x       y       z     vdW  Elec       q    Type
REMARK                         _______ _______ _______ _____ _____    ______ ____
ROOT
ATOM      1  C   UNL     1       3.269   0.275   0.000  0.00  0.00    +0.000 C 
ATOM      2  C   UNL     1       2.456   0.418   0.000  0.00  0.00    +0.000 C 
ATOM      3  C   UNL     1       2.174   1.194   0.000  0.00  0.00    +0.000 C 
ATOM      4  C   UNL     1       2.704   1.825   0.000  0.00  0.00    +0.000 C 
ATOM      5  C   UNL     1       3.517   1.682   0.000  0.00  0.00    +0.000 C 
ATOM      6  C   UNL     1       3.799   0.907   0.000  0.00  0.00    +0.000 C 
ENDROOT
BRANCH   1   7
ATOM      7  C   UNL     1       2.986  -0.500   0.000  0.00  0.00    +0.000 C 
ATOM      8  O   UNL     1       2.174  -0.643   0.000  0.00  0.00    +0.000 OA
ATOM      9  O   UNL     1       3.517  -1.132   0.000  0.00  0.00    +0.000 OA
ENDBRANCH   1   7
BRANCH   1  10
ATOM     10  C   UNL     1       3.983  -0.138   0.000  0.00  0.00    +0.000 C 
BRANCH  10  15
ATOM     11  C   UNL     1       5.412   1.512   0.000  0.00  0.00    +0.000 A 
ATOM     12  C   UNL     1       6.127   1.100   0.000  0.00  0.00    +0.000 A 
ATOM     13  C   UNL     1       6.127   0.275   0.000  0.00  0.00    +0.000 A 
ATOM     14  N   UNL     1       5.412  -0.138   0.000  0.00  0.00    +0.000 NA
ATOM     15  C   UNL     1       4.698   0.275   0.000  0.00  0.00    +0.000 A 
ATOM     16  C   UNL     1       4.698   1.100   0.000  0.00  0.00    +0.000 A 
ATOM     17  N   UNL     1       6.841  -0.138   0.000  0.00  0.00    +0.000 NA
ATOM     18  C   UNL     1       6.841  -0.963   0.000  0.00  0.00    +0.000 A 
ATOM     19  S   UNL     1       7.508  -1.448   0.000  0.00  0.00    +0.000 S 
ATOM     20  C   UNL     1       7.253  -2.232   0.000  0.00  0.00    +0.000 A 
ATOM     21  C   UNL     1       6.428  -2.232   0.000  0.00  0.00    +0.000 A 
ATOM     22  N   UNL     1       6.174  -1.448   0.000  0.00  0.00    +0.000 NA
ENDBRANCH  10  15
ENDBRANCH   1  10
BRANCH   4  23
ATOM     23  O   UNL     1       2.422   2.601   0.000  0.00  0.00    +0.000 OA
BRANCH  23  24
ATOM     24  C   UNL     1       2.953   3.233   0.000  0.00  0.00    +0.000 A 
ATOM     25  C   UNL     1       2.670   4.008   0.000  0.00  0.00    +0.000 A 
ATOM     26  C   UNL     1       3.201   4.640   0.000  0.00  0.00    +0.000 A 
ATOM     27  C   UNL     1       4.013   4.497   0.000  0.00  0.00    +0.000 A 
ATOM     28  C   UNL     1       4.295   3.721   0.000  0.00  0.00    +0.000 A 
ATOM     29  C   UNL     1       3.765   3.089   0.000  0.00  0.00    +0.000 A 
ATOM     30 CL   UNL     1       2.918   5.415   0.000  0.00  0.00    +0.000 Cl
ATOM     31  F   UNL     1       1.858   4.151   0.000  0.00  0.00    +0.000 F 
ENDBRANCH  23  24
ENDBRANCH   4  23
TORSDOF 5
