REMARK  Name = 
REMARK  5 active torsions:
REMARK  status: ('A' for Active; 'I' for Inactive)
REMARK    1  A    between atoms: C_2  and  N_4
REMARK    2  A    between atoms: N_10  and  C_11
REMARK    3  A    between atoms: C_14  and  N_15
REMARK    4  A    between atoms: C_19  and  C_25
REMARK    5  A    between atoms: C_28  and  C_30
REMARK                            x       y       z     vdW  Elec       q    Type
REMARK                         _______ _______ _______ _____ _____    ______ ____
ROOT
ATOM      1  N   UNL     1       3.279   2.062   0.000  0.00  0.00    +0.000 NA
ATOM      2  C   UNL     1       3.279   1.238   0.000  0.00  0.00    +0.000 A 
ATOM      3  N   UNL     1       3.993   0.825   0.000  0.00  0.00    +0.000 NA
ATOM      4  C   UNL     1       3.993   0.000   0.000  0.00  0.00    +0.000 A 
ATOM      5  C   UNL     1       3.279  -0.412   0.000  0.00  0.00    +0.000 A 
ATOM      6  N   UNL     1       2.564   0.000   0.000  0.00  0.00    +0.000 N 
ATOM      7  N   UNL     1       1.780  -0.255   0.000  0.00  0.00    +0.000 NA
ATOM      8  C   UNL     1       1.295   0.412   0.000  0.00  0.00    +0.000 A 
ATOM      9  N   UNL     1       1.780   1.080   0.000  0.00  0.00    +0.000 NA
ATOM     10  C   UNL     1       2.564   0.825   0.000  0.00  0.00    +0.000 A 
ENDROOT
BRANCH   1  14
ATOM     11  C   UNL     1       1.135   3.300   0.000  0.00  0.00    +0.000 A 
ATOM     12  C   UNL     1       1.850   3.712   0.000  0.00  0.00    +0.000 A 
ATOM     13  C   UNL     1       2.564   3.300   0.000  0.00  0.00    +0.000 A 
ATOM     14  C   UNL     1       2.564   2.475   0.000  0.00  0.00    +0.000 A 
ATOM     15  C   UNL     1       1.850   2.062   0.000  0.00  0.00    +0.000 A 
ATOM     16  C   UNL     1       1.135   2.475   0.000  0.00  0.00    +0.000 A 
BRANCH  11  23
ATOM     17  N   UNL     1      -1.008   4.537   0.000  0.00  0.00    +0.000 NA
ATOM     18  C   UNL     1      -1.008   3.712   0.000  0.00  0.00    +0.000 C 
ATOM     19  C   UNL     1      -0.293   3.300   0.000  0.00  0.00    +0.000 C 
ATOM     20  C   UNL     1      -0.500   4.125   0.000  0.00  0.00    +0.000 C 
ATOM     21  C   UNL     1      -0.293   4.950   0.000  0.00  0.00    +0.000 C 
ATOM     22  C   UNL     1       0.421   4.537   0.000  0.00  0.00    +0.000 C 
ATOM     23  N   UNL     1       0.421   3.712   0.000  0.00  0.00    +0.000 N 
BRANCH  17  25
ATOM     24  C   UNL     1      -1.722   5.775   0.000  0.00  0.00    +0.000 C 
ATOM     25  C   UNL     1      -1.722   4.950   0.000  0.00  0.00    +0.000 C 
ATOM     26  C   UNL     1      -2.437   4.537   0.000  0.00  0.00    +0.000 C 
ENDBRANCH  17  25
ENDBRANCH  11  23
ENDBRANCH   1  14
BRANCH   5  27
ATOM     27  C   UNL     1       3.279  -1.238   0.000  0.00  0.00    +0.000 A 
ATOM     28  C   UNL     1       3.946  -1.722   0.000  0.00  0.00    +0.000 A 
ATOM     29  O   UNL     1       3.691  -2.507   0.000  0.00  0.00    +0.000 OA
ATOM     30  C   UNL     1       2.866  -2.507   0.000  0.00  0.00    +0.000 A 
ATOM     31  C   UNL     1       2.611  -1.722   0.000  0.00  0.00    +0.000 A 
BRANCH  30  32
ATOM     32  C   UNL     1       2.381  -3.175   0.000  0.00  0.00    +0.000 C 
ATOM     33  N   UNL     1       2.717  -3.928   0.000  0.00  0.00    +0.000 NA
ATOM     34  O   UNL     1       1.561  -3.088   0.000  0.00  0.00    +0.000 OA
ENDBRANCH  30  32
ENDBRANCH   5  27
TORSDOF 5
