REMARK  Name = 
REMARK  3 active torsions:
REMARK  status: ('A' for Active; 'I' for Inactive)
REMARK    1  A    between atoms: C_17  and  C_20
REMARK    2  A    between atoms: C_19  and  O_38
REMARK    3  A    between atoms: C_27  and  O_38
REMARK                            x       y       z     vdW  Elec       q    Type
REMARK                         _______ _______ _______ _____ _____    ______ ____
ROOT
ATOM      1  C   UNL     1       4.547   1.334   0.000  0.00  0.00    +0.000 C 
ATOM      2  C   UNL     1       2.031   1.736   0.000  0.00  0.00    +0.000 C 
ATOM      3  C   UNL     1       4.575  -0.849   0.000  0.00  0.00    +0.000 C 
ATOM      4  C   UNL     1       3.763  -0.704   0.000  0.00  0.00    +0.000 C 
ATOM      5  C   UNL     1       6.171   1.043   0.000  0.00  0.00    +0.000 C 
ATOM      6  C   UNL     1       3.735   1.479   0.000  0.00  0.00    +0.000 C 
ATOM      7  C   UNL     1       1.337   0.174   0.000  0.00  0.00    +0.000 C 
ATOM      8  C   UNL     1       5.359   1.188   0.000  0.00  0.00    +0.000 C 
ATOM      9  C   UNL     1       2.922   1.624   0.000  0.00  0.00    +0.000 C 
ATOM     10  C   UNL     1       2.019  -0.289   0.000  0.00  0.00    +0.000 C 
ATOM     11  C   UNL     1       5.919  -0.363   0.000  0.00  0.00    +0.000 C 
ATOM     12  C   UNL     1       5.107  -0.218   0.000  0.00  0.00    +0.000 C 
ATOM     13  C   UNL     1       6.451   0.267   0.000  0.00  0.00    +0.000 C 
ATOM     14  C   UNL     1       1.566   0.967   0.000  0.00  0.00    +0.000 C 
ATOM     15  C   UNL     1       4.015   0.703   0.000  0.00  0.00    +0.000 C 
ATOM     16  C   UNL     1       3.483   0.072   0.000  0.00  0.00    +0.000 C 
ATOM     17  C   UNL     1       4.827   0.558   0.000  0.00  0.00    +0.000 C 
ATOM     18  C   UNL     1       2.390   0.993   0.000  0.00  0.00    +0.000 C 
ATOM     19  C   UNL     1       2.671   0.217   0.000  0.00  0.00    +0.000 C 
ATOM     20  O   UNL     1       2.869  -0.584   0.000  0.00  0.00    +0.000 OA
ENDROOT
BRANCH  14  24
ATOM     21  C   UNL     1       1.371   2.382   0.000  0.00  0.00    +0.000 A 
ATOM     22  C   UNL     1       0.864   3.033   0.000  0.00  0.00    +0.000 A 
ATOM     23  C   UNL     1       0.242   1.505   0.000  0.00  0.00    +0.000 A 
ATOM     24  C   UNL     1       1.060   1.618   0.000  0.00  0.00    +0.000 A 
ATOM     25  C   UNL     1       0.047   2.921   0.000  0.00  0.00    +0.000 A 
ATOM     26  O   UNL     1      -0.459   3.572   0.000  0.00  0.00    +0.000 OA
ATOM     27  O   UNL     1      -0.264   2.156   0.000  0.00  0.00    +0.000 OA
ENDBRANCH  14  24
BRANCH  13  28
ATOM     28  O   UNL     1       7.263   0.122   0.000  0.00  0.00    +0.000 OA
BRANCH  28  34
ATOM     29  C   UNL     1       6.760  -2.691   0.000  0.00  0.00    +0.000 C 
ATOM     30  C   UNL     1       7.292  -2.061   0.000  0.00  0.00    +0.000 C 
ATOM     31  C   UNL     1       8.104  -2.206   0.000  0.00  0.00    +0.000 C 
ATOM     32  C   UNL     1       8.636  -1.575   0.000  0.00  0.00    +0.000 C 
ATOM     33  C   UNL     1       8.356  -0.799   0.000  0.00  0.00    +0.000 C 
ATOM     34  C   UNL     1       7.543  -0.654   0.000  0.00  0.00    +0.000 C 
ATOM     35  O   UNL     1       8.384  -2.982   0.000  0.00  0.00    +0.000 OA
ATOM     36  O   UNL     1       9.448  -1.720   0.000  0.00  0.00    +0.000 OA
ATOM     37  O   UNL     1       8.887  -0.168   0.000  0.00  0.00    +0.000 OA
ATOM     38  O   UNL     1       7.012  -1.285   0.000  0.00  0.00    +0.000 OA
ENDBRANCH  28  34
ENDBRANCH  13  28
TORSDOF 3
