REMARK  Name = 
REMARK  6 active torsions:
REMARK  status: ('A' for Active; 'I' for Inactive)
REMARK    1  A    between atoms: N_2  and  C_6
REMARK    2  A    between atoms: C_3  and  C_4
REMARK    3  A    between atoms: C_3  and  C_5
REMARK    4  A    between atoms: C_4  and  C_6
REMARK    5  A    between atoms: C_5  and  C_7
REMARK    6  A    between atoms: C_7  and  C_8
REMARK                            x       y       z     vdW  Elec       q    Type
REMARK                         _______ _______ _______ _____ _____    ______ ____
ROOT
ATOM      1  C   UNL     1      -0.714  -0.363   0.000  0.00  0.00    +0.000 C 
ENDROOT
BRANCH   1   2
ATOM      2  C   UNL     1      -1.429   0.050   0.000  0.00  0.00    +0.000 C 
ATOM      3  C   UNL     1      -1.429   0.875   0.000  0.00  0.00    +0.000 C 
BRANCH   2   5
ATOM      4  O   UNL     1      -2.858   0.875   0.000  0.00  0.00    +0.000 OA
ATOM      5  N   UNL     1      -2.143  -0.363   0.000  0.00  0.00    +0.000 N 
ATOM      6  C   UNL     1      -2.858   0.050   0.000  0.00  0.00    +0.000 C 
ATOM      7  H   UNL     1      -2.143  -0.875   0.000  0.00  0.00    +0.000 HD
ENDBRANCH   2   5
ENDBRANCH   1   2
BRANCH   1   8
ATOM      8  C   UNL     1       0.000   0.050   0.000  0.00  0.00    +0.000 C 
BRANCH   8   9
ATOM      9  C   UNL     1       0.715  -0.363   0.000  0.00  0.00    +0.000 C 
BRANCH   9  10
ATOM     10  C   UNL     1       1.429   0.050   0.000  0.00  0.00    +0.000 C 
BRANCH  10  11
ATOM     11  C   UNL     1       2.143  -0.363   0.000  0.00  0.00    +0.000 C 
ATOM     12  C   UNL     1       2.858   0.050   0.000  0.00  0.00    +0.000 C 
ENDBRANCH  10  11
ENDBRANCH   9  10
ENDBRANCH   8   9
ENDBRANCH   1   8
TORSDOF 6
