REMARK  Name = 
REMARK  1 active torsions:
REMARK  status: ('A' for Active; 'I' for Inactive)
REMARK    1  A    between atoms: CA_2  and  C_12
REMARK                            x       y       z     vdW  Elec       q    Type
REMARK                         _______ _______ _______ _____ _____    ______ ____
ROOT
ATOM      1  N   UNL     1       0.275   0.685   0.000  0.00  0.00    +0.000 NA
ATOM      2  CA  UNL     1       0.756   0.023   0.000  0.00  0.00    +0.000 C 
ATOM      3  C   UNL     1       0.263  -0.656   0.000  0.00  0.00    +0.000 C 
ATOM      4  C   UNL     1      -0.532  -0.424   0.000  0.00  0.00    +0.000 C 
ATOM      5  C   UNL     1      -0.532   0.420   0.000  0.00  0.00    +0.000 C 
ATOM      6  C   UNL     1      -1.228   0.822   0.000  0.00  0.00    +0.000 C 
ATOM      7  C   UNL     1      -1.948   0.420   0.000  0.00  0.00    +0.000 C 
ATOM      8  C   UNL     1      -1.948  -0.400   0.000  0.00  0.00    +0.000 C 
ATOM      9  C   UNL     1      -1.228  -0.805   0.000  0.00  0.00    +0.000 C 
ENDROOT
BRANCH   2  10
ATOM     10  C   UNL     1       1.555   0.035   0.000  0.00  0.00    +0.000 C 
ATOM     11  O   UNL     1       1.948  -0.710   0.000  0.00  0.00    +0.000 OA
ATOM     12  OXT UNL     1       1.948   0.719   0.000  0.00  0.00    +0.000 OA
ENDBRANCH   2  10
TORSDOF 1
