REMARK  Name = 
REMARK  5 active torsions:
REMARK  status: ('A' for Active; 'I' for Inactive)
REMARK    1  A    between atoms: C_5  and  N_8
REMARK    2  A    between atoms: C_11  and  N_12
REMARK    3  A    between atoms: N_12  and  C_13
REMARK    4  A    between atoms: C_16  and  O_17
REMARK    5  A    between atoms: O_17  and  C_18
REMARK                            x       y       z     vdW  Elec       q    Type
REMARK                         _______ _______ _______ _____ _____    ______ ____
ROOT
ATOM      1  N   UNL     1       0.000  -1.650   0.000  0.00  0.00    +0.000 NA
ATOM      2  C   UNL     1       0.715  -1.238   0.000  0.00  0.00    +0.000 A 
ATOM      3  N   UNL     1       0.715  -0.412   0.000  0.00  0.00    +0.000 NA
ATOM      4  C   UNL     1       1.429   0.000   0.000  0.00  0.00    +0.000 A 
ATOM      5  C   UNL     1       2.143  -0.412   0.000  0.00  0.00    +0.000 A 
ATOM      6  C   UNL     1       2.858   0.000   0.000  0.00  0.00    +0.000 A 
ATOM      7  O   UNL     1       2.858   0.825   0.000  0.00  0.00    +0.000 OA
ATOM      8  N   UNL     1       3.572  -0.412   0.000  0.00  0.00    +0.000 NA
ATOM      9  C   UNL     1       3.572  -1.238   0.000  0.00  0.00    +0.000 A 
ATOM     10  C   UNL     1       2.858  -1.650   0.000  0.00  0.00    +0.000 A 
ATOM     11 BR   UNL     1       2.858  -2.475   0.000  0.00  0.00    +0.000 Br
ATOM     12  C   UNL     1       2.143  -1.238   0.000  0.00  0.00    +0.000 A 
ATOM     13  N   UNL     1       1.429  -1.650   0.000  0.00  0.00    +0.000 NA
ENDROOT
BRANCH   1  18
ATOM     14  C   UNL     1      -2.858   0.000   0.000  0.00  0.00    +0.000 C 
ATOM     15  N   UNL     1      -2.143  -0.412   0.000  0.00  0.00    +0.000 NA
ATOM     16  C   UNL     1      -1.429   0.000   0.000  0.00  0.00    +0.000 C 
ATOM     17  C   UNL     1      -0.715  -0.412   0.000  0.00  0.00    +0.000 C 
ATOM     18  C   UNL     1      -0.715  -1.238   0.000  0.00  0.00    +0.000 C 
ATOM     19  C   UNL     1      -1.429  -1.650   0.000  0.00  0.00    +0.000 C 
ATOM     20  C   UNL     1      -2.143  -1.238   0.000  0.00  0.00    +0.000 C 
ENDBRANCH   1  18
BRANCH   4  21
ATOM     21  N   UNL     1       1.429   0.825   0.000  0.00  0.00    +0.000 NA
BRANCH  21  22
ATOM     22  C   UNL     1       0.715   1.238   0.000  0.00  0.00    +0.000 A 
ATOM     23  C   UNL     1       0.000   0.825   0.000  0.00  0.00    +0.000 A 
ATOM     24  C   UNL     1      -0.715   1.238   0.000  0.00  0.00    +0.000 A 
ATOM     25  C   UNL     1      -0.715   2.062   0.000  0.00  0.00    +0.000 A 
ATOM     26  C   UNL     1       0.000   2.475   0.000  0.00  0.00    +0.000 A 
ATOM     27  C   UNL     1       0.715   2.062   0.000  0.00  0.00    +0.000 A 
BRANCH  25  28
ATOM     28  O   UNL     1      -1.429   2.475   0.000  0.00  0.00    +0.000 OA
BRANCH  28  29
ATOM     29  C   UNL     1      -1.429   3.300   0.000  0.00  0.00    +0.000 A 
ATOM     30  C   UNL     1      -2.143   3.712   0.000  0.00  0.00    +0.000 A 
ATOM     31  C   UNL     1      -2.143   4.537   0.000  0.00  0.00    +0.000 A 
ATOM     32  C   UNL     1      -1.429   4.950   0.000  0.00  0.00    +0.000 A 
ATOM     33  C   UNL     1      -0.715   4.537   0.000  0.00  0.00    +0.000 A 
ATOM     34  C   UNL     1      -0.715   3.712   0.000  0.00  0.00    +0.000 A 
ENDBRANCH  28  29
ENDBRANCH  25  28
ENDBRANCH  21  22
ENDBRANCH   4  21
TORSDOF 5
