REMARK  Name = 
REMARK  5 active torsions:
REMARK  status: ('A' for Active; 'I' for Inactive)
REMARK    1  A    between atoms: C_4  and  N_8
REMARK    2  A    between atoms: C_9  and  C_11
REMARK    3  A    between atoms: C_14  and  C_17
REMARK    4  A    between atoms: C_17  and  N_18
REMARK    5  A    between atoms: C_23  and  C_25
REMARK                            x       y       z     vdW  Elec       q    Type
REMARK                         _______ _______ _______ _____ _____    ______ ____
ROOT
ATOM      1  C   UNL     1       4.287  -4.950   0.000  0.00  0.00    +0.000 A 
ATOM      2  C   UNL     1       3.572  -5.362   0.000  0.00  0.00    +0.000 A 
ATOM      3  C   UNL     1       2.858  -4.950   0.000  0.00  0.00    +0.000 A 
ATOM      4  C   UNL     1       2.858  -4.125   0.000  0.00  0.00    +0.000 A 
ATOM      5  C   UNL     1       3.572  -3.712   0.000  0.00  0.00    +0.000 A 
ATOM      6  C   UNL     1       4.287  -4.125   0.000  0.00  0.00    +0.000 A 
ENDROOT
BRANCH   1   8
ATOM      7  N   UNL     1       5.716  -4.950   0.000  0.00  0.00    +0.000 NA
ATOM      8  C   UNL     1       5.001  -5.362   0.000  0.00  0.00    +0.000 C 
ATOM      9  O   UNL     1       5.001  -6.188   0.000  0.00  0.00    +0.000 OA
BRANCH   7  13
ATOM     10  C   UNL     1       7.859  -6.188   0.000  0.00  0.00    +0.000 A 
ATOM     11  C   UNL     1       7.145  -6.600   0.000  0.00  0.00    +0.000 A 
ATOM     12  C   UNL     1       6.430  -6.188   0.000  0.00  0.00    +0.000 A 
ATOM     13  C   UNL     1       6.430  -5.362   0.000  0.00  0.00    +0.000 A 
ATOM     14  C   UNL     1       7.145  -4.950   0.000  0.00  0.00    +0.000 A 
ATOM     15  C   UNL     1       7.859  -5.362   0.000  0.00  0.00    +0.000 A 
ATOM     16  N   UNL     1       7.145  -4.125   0.000  0.00  0.00    +0.000 NA
ENDBRANCH   7  13
ENDBRANCH   1   8
BRANCH   4  17
ATOM     17  C   UNL     1       2.143  -3.712   0.000  0.00  0.00    +0.000 C 
BRANCH  17  18
ATOM     18  N   UNL     1       2.143  -2.888   0.000  0.00  0.00    +0.000 NA
ATOM     19  C   UNL     1       1.429  -2.475   0.000  0.00  0.00    +0.000 A 
ATOM     20  N   UNL     1       0.715  -2.888   0.000  0.00  0.00    +0.000 NA
ATOM     21  C   UNL     1       0.000  -2.475   0.000  0.00  0.00    +0.000 A 
ATOM     22  C   UNL     1       0.000  -1.650   0.000  0.00  0.00    +0.000 A 
ATOM     23  C   UNL     1       0.715  -1.238   0.000  0.00  0.00    +0.000 A 
ATOM     24  N   UNL     1       1.429  -1.650   0.000  0.00  0.00    +0.000 NA
BRANCH  23  25
ATOM     25  C   UNL     1       0.715  -0.412   0.000  0.00  0.00    +0.000 A 
ATOM     26  C   UNL     1       0.000   0.000   0.000  0.00  0.00    +0.000 A 
ATOM     27  C   UNL     1       0.000   0.825   0.000  0.00  0.00    +0.000 A 
ATOM     28  C   UNL     1       0.715   1.238   0.000  0.00  0.00    +0.000 A 
ATOM     29  N   UNL     1       1.429   0.825   0.000  0.00  0.00    +0.000 NA
ATOM     30  C   UNL     1       1.429   0.000   0.000  0.00  0.00    +0.000 A 
ENDBRANCH  23  25
ENDBRANCH  17  18
ENDBRANCH   4  17
TORSDOF 5
