REMARK  Name = 
REMARK  6 active torsions:
REMARK  status: ('A' for Active; 'I' for Inactive)
REMARK    1  A    between atoms: C_4  and  C_7
REMARK    2  A    between atoms: C_7  and  N_8
REMARK    3  A    between atoms: N_8  and  C_9
REMARK    4  A    between atoms: C_9  and  C_10
REMARK    5  A    between atoms: C_10  and  C_11
REMARK    6  A    between atoms: N_16  and  C_17
REMARK                            x       y       z     vdW  Elec       q    Type
REMARK                         _______ _______ _______ _____ _____    ______ ____
ROOT
ATOM      1  C   UNL     1      -0.754  -0.336   0.000  0.00  0.00    +0.000 A 
ATOM      2  C   UNL     1      -1.306   0.278   0.000  0.00  0.00    +0.000 A 
ATOM      3  N   UNL     1      -0.893   0.992   0.000  0.00  0.00    +0.000 NA
ATOM      4  C   UNL     1      -0.086   0.821   0.000  0.00  0.00    +0.000 A 
ATOM      5  S   UNL     1       0.527   1.373   0.000  0.00  0.00    +0.000 S 
ATOM      6  N   UNL     1       0.000   0.000   0.000  0.00  0.00    +0.000 N 
ENDROOT
BRANCH   6   7
ATOM      7  C   UNL     1       0.715  -0.412   0.000  0.00  0.00    +0.000 C 
ATOM      8  C   UNL     1       1.429   0.000   0.000  0.00  0.00    +0.000 C 
ATOM      9  C   UNL     1       2.143  -0.412   0.000  0.00  0.00    +0.000 A 
ATOM     10  C   UNL     1       2.858   0.000   0.000  0.00  0.00    +0.000 A 
ATOM     11  C   UNL     1       3.572  -0.412   0.000  0.00  0.00    +0.000 A 
ATOM     12  C   UNL     1       3.572  -1.238   0.000  0.00  0.00    +0.000 A 
ATOM     13  C   UNL     1       2.858  -1.650   0.000  0.00  0.00    +0.000 A 
ATOM     14  C   UNL     1       2.143  -1.238   0.000  0.00  0.00    +0.000 A 
ATOM     15  O   UNL     1       1.429  -1.650   0.000  0.00  0.00    +0.000 OA
ATOM     16  C   UNL     1       0.715  -1.238   0.000  0.00  0.00    +0.000 C 
ATOM     17  F   UNL     1       2.858  -2.475   0.000  0.00  0.00    +0.000 F 
ATOM     18  F   UNL     1       4.287   0.000   0.000  0.00  0.00    +0.000 F 
ENDBRANCH   6   7
BRANCH   1  19
ATOM     19  C   UNL     1      -0.925  -1.143   0.000  0.00  0.00    +0.000 C 
BRANCH  19  20
ATOM     20  C   UNL     1      -1.710  -1.397   0.000  0.00  0.00    +0.000 C 
BRANCH  20  21
ATOM     21  N   UNL     1      -1.881  -2.204   0.000  0.00  0.00    +0.000 NA
BRANCH  21  22
ATOM     22  C   UNL     1      -2.666  -2.459   0.000  0.00  0.00    +0.000 C 
BRANCH  22  26
ATOM     23  C   UNL     1      -3.181  -4.880   0.000  0.00  0.00    +0.000 A 
ATOM     24  C   UNL     1      -3.794  -4.328   0.000  0.00  0.00    +0.000 A 
ATOM     25  C   UNL     1      -3.622  -3.521   0.000  0.00  0.00    +0.000 A 
ATOM     26  C   UNL     1      -2.837  -3.266   0.000  0.00  0.00    +0.000 A 
ATOM     27  C   UNL     1      -2.224  -3.818   0.000  0.00  0.00    +0.000 A 
ATOM     28  C   UNL     1      -2.396  -4.625   0.000  0.00  0.00    +0.000 A 
ENDBRANCH  22  26
ENDBRANCH  21  22
ENDBRANCH  20  21
ENDBRANCH  19  20
ENDBRANCH   1  19
TORSDOF 6
