REMARK  Name = 
REMARK  6 active torsions:
REMARK  status: ('A' for Active; 'I' for Inactive)
REMARK    1  A    between atoms: O_1  and  C_2
REMARK    2  A    between atoms: O_1  and  C_11
REMARK    3  A    between atoms: C_16  and  C_17
REMARK    4  A    between atoms: C_18  and  C_19
REMARK    5  A    between atoms: C_20  and  C_21
REMARK    6  A    between atoms: C_21  and  C_23
REMARK                            x       y       z     vdW  Elec       q    Type
REMARK                         _______ _______ _______ _____ _____    ______ ____
ROOT
ATOM      1  C   UNL     1      -2.489   0.348   0.000  0.00  0.00    +0.000 C 
ATOM      2  C   UNL     1      -1.664   0.348   0.000  0.00  0.00    +0.000 C 
ATOM      3  C   UNL     1      -1.081  -0.237   0.000  0.00  0.00    +0.000 C 
ATOM      4  C   UNL     1      -0.367   0.177   0.000  0.00  0.00    +0.000 C 
ATOM      5  C   UNL     1      -0.367   1.002   0.000  0.00  0.00    +0.000 C 
ATOM      6  C   UNL     1       0.350  -0.237   0.000  0.00  0.00    +0.000 C 
ATOM      7  O   UNL     1       0.350  -1.062   0.000  0.00  0.00    +0.000 OA
ATOM      8  C   UNL     1      -0.367  -1.473   0.000  0.00  0.00    +0.000 C 
ATOM      9  C   UNL     1      -1.081  -1.062   0.000  0.00  0.00    +0.000 C 
ATOM     10  C   UNL     1      -1.664  -1.645   0.000  0.00  0.00    +0.000 C 
ATOM     11  C   UNL     1      -2.489  -1.645   0.000  0.00  0.00    +0.000 C 
ATOM     12  C   UNL     1      -3.075  -1.062   0.000  0.00  0.00    +0.000 C 
ATOM     13  C   UNL     1      -3.075  -0.237   0.000  0.00  0.00    +0.000 C 
ATOM     14  C   UNL     1      -3.486   0.478   0.000  0.00  0.00    +0.000 C 
ATOM     15  O   UNL     1      -3.871  -0.450   0.000  0.00  0.00    +0.000 OA
ATOM     16  O   UNL     1      -1.355  -2.410   0.000  0.00  0.00    +0.000 OA
ATOM     17  O   UNL     1      -0.367  -2.298   0.000  0.00  0.00    +0.000 OA
ENDROOT
BRANCH   6  18
ATOM     18  C   UNL     1       1.064   0.177   0.000  0.00  0.00    +0.000 C 
ATOM     19  C   UNL     1       1.780  -0.237   0.000  0.00  0.00    +0.000 C 
ATOM     20  C   UNL     1       1.064   1.002   0.000  0.00  0.00    +0.000 C 
BRANCH  19  21
ATOM     21  C   UNL     1       2.493   0.177   0.000  0.00  0.00    +0.000 C 
ATOM     22  C   UNL     1       3.207  -0.237   0.000  0.00  0.00    +0.000 C 
BRANCH  22  23
ATOM     23  C   UNL     1       3.922   0.177   0.000  0.00  0.00    +0.000 C 
ATOM     24  C   UNL     1       3.922   1.002   0.000  0.00  0.00    +0.000 C 
BRANCH  23  25
ATOM     25  C   UNL     1       4.636  -0.237   0.000  0.00  0.00    +0.000 A 
ATOM     26  C   UNL     1       5.349   0.177   0.000  0.00  0.00    +0.000 A 
ATOM     27  C   UNL     1       6.065  -0.237   0.000  0.00  0.00    +0.000 A 
ATOM     28  C   UNL     1       6.065  -1.062   0.000  0.00  0.00    +0.000 A 
ATOM     29  C   UNL     1       5.349  -1.473   0.000  0.00  0.00    +0.000 A 
ATOM     30  N   UNL     1       4.636  -1.062   0.000  0.00  0.00    +0.000 NA
ENDBRANCH  23  25
ENDBRANCH  22  23
ENDBRANCH  19  21
ENDBRANCH   6  18
BRANCH   1  31
ATOM     31  O   UNL     1      -2.489   1.173   0.000  0.00  0.00    +0.000 OA
BRANCH  31  32
ATOM     32  C   UNL     1      -3.203   1.585   0.000  0.00  0.00    +0.000 C 
ATOM     33  O   UNL     1      -3.203   2.410   0.000  0.00  0.00    +0.000 OA
ATOM     34  N   UNL     1      -3.918   1.173   0.000  0.00  0.00    +0.000 N 
ATOM     35  C   UNL     1      -3.918   0.348   0.000  0.00  0.00    +0.000 C 
ATOM     36  C   UNL     1      -4.632  -0.065   0.000  0.00  0.00    +0.000 C 
ATOM     37  N   UNL     1      -5.347   0.348   0.000  0.00  0.00    +0.000 NA
ATOM     38  C   UNL     1      -5.347   1.173   0.000  0.00  0.00    +0.000 C 
ATOM     39  C   UNL     1      -4.632   1.585   0.000  0.00  0.00    +0.000 C 
ATOM     40  C   UNL     1      -6.065  -0.065   0.000  0.00  0.00    +0.000 C 
ENDBRANCH  31  32
ENDBRANCH   1  31
TORSDOF 6
