REMARK  Name = 
REMARK  4 active torsions:
REMARK  status: ('A' for Active; 'I' for Inactive)
REMARK    1  A    between atoms: C_5  and  P_8
REMARK    2  A    between atoms: P_8  and  C_9
REMARK    3  A    between atoms: P_8  and  C_15
REMARK    4  A    between atoms: P_8  and  C_21
REMARK                            x       y       z     vdW  Elec       q    Type
REMARK                         _______ _______ _______ _____ _____    ______ ____
ROOT
ATOM      1  P   UNL     1      -0.935  -2.888   0.000  0.00  0.00    +0.000 P 
ENDROOT
BRANCH   1   6
ATOM      2  F   UNL     1      -0.935   0.412   0.000  0.00  0.00    +0.000 F 
ATOM      3  C   UNL     1      -0.935  -0.412   0.000  0.00  0.00    +0.000 A 
ATOM      4  C   UNL     1      -0.221  -0.825   0.000  0.00  0.00    +0.000 A 
ATOM      5  C   UNL     1      -0.221  -1.650   0.000  0.00  0.00    +0.000 A 
ATOM      6  C   UNL     1      -0.935  -2.062   0.000  0.00  0.00    +0.000 A 
ATOM      7  C   UNL     1      -1.650  -1.650   0.000  0.00  0.00    +0.000 A 
ATOM      8  C   UNL     1      -1.650  -0.825   0.000  0.00  0.00    +0.000 A 
ENDBRANCH   1   6
BRANCH   1   9
ATOM      9  C   UNL     1      -0.935  -3.712   0.000  0.00  0.00    +0.000 A 
ATOM     10  C   UNL     1      -0.221  -4.125   0.000  0.00  0.00    +0.000 A 
ATOM     11  C   UNL     1      -0.221  -4.950   0.000  0.00  0.00    +0.000 A 
ATOM     12  C   UNL     1      -0.935  -5.362   0.000  0.00  0.00    +0.000 A 
ATOM     13  C   UNL     1      -1.650  -4.950   0.000  0.00  0.00    +0.000 A 
ATOM     14  C   UNL     1      -1.650  -4.125   0.000  0.00  0.00    +0.000 A 
ENDBRANCH   1   9
BRANCH   1  15
ATOM     15  C   UNL     1      -1.760  -2.888   0.000  0.00  0.00    +0.000 A 
ATOM     16  C   UNL     1      -2.173  -3.602   0.000  0.00  0.00    +0.000 A 
ATOM     17  C   UNL     1      -2.998  -3.602   0.000  0.00  0.00    +0.000 A 
ATOM     18  C   UNL     1      -3.410  -2.888   0.000  0.00  0.00    +0.000 A 
ATOM     19  C   UNL     1      -2.998  -2.173   0.000  0.00  0.00    +0.000 A 
ATOM     20  C   UNL     1      -2.173  -2.173   0.000  0.00  0.00    +0.000 A 
ENDBRANCH   1  15
BRANCH   1  21
ATOM     21  C   UNL     1      -0.111  -2.888   0.000  0.00  0.00    +0.000 A 
ATOM     22  C   UNL     1       0.302  -2.173   0.000  0.00  0.00    +0.000 A 
ATOM     23  C   UNL     1       1.127  -2.173   0.000  0.00  0.00    +0.000 A 
ATOM     24  C   UNL     1       1.540  -2.888   0.000  0.00  0.00    +0.000 A 
ATOM     25  C   UNL     1       1.127  -3.602   0.000  0.00  0.00    +0.000 A 
ATOM     26  C   UNL     1       0.302  -3.602   0.000  0.00  0.00    +0.000 A 
ENDBRANCH   1  21
TORSDOF 4
