REMARK  Name = 
REMARK  18 active torsions:
REMARK  status: ('A' for Active; 'I' for Inactive)
REMARK    1  A    between atoms: C_6  and  FE_7
REMARK    2  A    between atoms: FE_7  and  C_8
REMARK    3  A    between atoms: FE_7  and  C_9
REMARK    4  A    between atoms: FE_7  and  C_10
REMARK    5  A    between atoms: FE_7  and  C_11
REMARK    6  A    between atoms: FE_7  and  C_17
REMARK    7  A    between atoms: C_19  and  FE_20
REMARK    8  A    between atoms: FE_20  and  C_21
REMARK    9  A    between atoms: FE_20  and  C_22
REMARK   10  A    between atoms: FE_20  and  C_23
REMARK   11  A    between atoms: FE_20  and  C_24
REMARK   12  A    between atoms: FE_20  and  C_30
REMARK   13  A    between atoms: C_32  and  FE_33
REMARK   14  A    between atoms: FE_33  and  C_34
REMARK   15  A    between atoms: FE_33  and  C_35
REMARK   16  A    between atoms: FE_33  and  C_36
REMARK   17  A    between atoms: FE_33  and  C_37
REMARK   18  A    between atoms: FE_33  and  C_43
REMARK                            x       y       z     vdW  Elec       q    Type
REMARK                         _______ _______ _______ _____ _____    ______ ____
ROOT
ATOM      1 FE   UNL     1      -4.300  -4.225   0.000  0.00  0.00    +0.000 Fe
ENDROOT
TORSDOF 0
REMARK  Name = 
REMARK  18 active torsions:
REMARK  status: ('A' for Active; 'I' for Inactive)
REMARK    1  A    between atoms: C_6  and  FE_7
REMARK    2  A    between atoms: FE_7  and  C_8
REMARK    3  A    between atoms: FE_7  and  C_9
REMARK    4  A    between atoms: FE_7  and  C_10
REMARK    5  A    between atoms: FE_7  and  C_11
REMARK    6  A    between atoms: FE_7  and  C_17
REMARK    7  A    between atoms: C_19  and  FE_20
REMARK    8  A    between atoms: FE_20  and  C_21
REMARK    9  A    between atoms: FE_20  and  C_22
REMARK   10  A    between atoms: FE_20  and  C_23
REMARK   11  A    between atoms: FE_20  and  C_24
REMARK   12  A    between atoms: FE_20  and  C_30
REMARK   13  A    between atoms: C_32  and  FE_33
REMARK   14  A    between atoms: FE_33  and  C_34
REMARK   15  A    between atoms: FE_33  and  C_35
REMARK   16  A    between atoms: FE_33  and  C_36
REMARK   17  A    between atoms: FE_33  and  C_37
REMARK   18  A    between atoms: FE_33  and  C_43
REMARK                            x       y       z     vdW  Elec       q    Type
REMARK                         _______ _______ _______ _____ _____    ______ ____
ROOT
ATOM      1 FE   UNL     1       4.300   4.225   0.000  0.00  0.00    +0.000 Fe
ENDROOT
TORSDOF 0
REMARK  Name = 
REMARK  18 active torsions:
REMARK  status: ('A' for Active; 'I' for Inactive)
REMARK    1  A    between atoms: C_6  and  FE_7
REMARK    2  A    between atoms: FE_7  and  C_8
REMARK    3  A    between atoms: FE_7  and  C_9
REMARK    4  A    between atoms: FE_7  and  C_10
REMARK    5  A    between atoms: FE_7  and  C_11
REMARK    6  A    between atoms: FE_7  and  C_17
REMARK    7  A    between atoms: C_19  and  FE_20
REMARK    8  A    between atoms: FE_20  and  C_21
REMARK    9  A    between atoms: FE_20  and  C_22
REMARK   10  A    between atoms: FE_20  and  C_23
REMARK   11  A    between atoms: FE_20  and  C_24
REMARK   12  A    between atoms: FE_20  and  C_30
REMARK   13  A    between atoms: C_32  and  FE_33
REMARK   14  A    between atoms: FE_33  and  C_34
REMARK   15  A    between atoms: FE_33  and  C_35
REMARK   16  A    between atoms: FE_33  and  C_36
REMARK   17  A    between atoms: FE_33  and  C_37
REMARK   18  A    between atoms: FE_33  and  C_43
REMARK                            x       y       z     vdW  Elec       q    Type
REMARK                         _______ _______ _______ _____ _____    ______ ____
ROOT
ATOM      1 FE   UNL     1       4.300  -4.225   0.000  0.00  0.00    +0.000 Fe
ENDROOT
TORSDOF 0
REMARK  Name = 
REMARK  18 active torsions:
REMARK  status: ('A' for Active; 'I' for Inactive)
REMARK    1  A    between atoms: C_6  and  FE_7
REMARK    2  A    between atoms: FE_7  and  C_8
REMARK    3  A    between atoms: FE_7  and  C_9
REMARK    4  A    between atoms: FE_7  and  C_10
REMARK    5  A    between atoms: FE_7  and  C_11
REMARK    6  A    between atoms: FE_7  and  C_17
REMARK    7  A    between atoms: C_19  and  FE_20
REMARK    8  A    between atoms: FE_20  and  C_21
REMARK    9  A    between atoms: FE_20  and  C_22
REMARK   10  A    between atoms: FE_20  and  C_23
REMARK   11  A    between atoms: FE_20  and  C_24
REMARK   12  A    between atoms: FE_20  and  C_30
REMARK   13  A    between atoms: C_32  and  FE_33
REMARK   14  A    between atoms: FE_33  and  C_34
REMARK   15  A    between atoms: FE_33  and  C_35
REMARK   16  A    between atoms: FE_33  and  C_36
REMARK   17  A    between atoms: FE_33  and  C_37
REMARK   18  A    between atoms: FE_33  and  C_43
REMARK                            x       y       z     vdW  Elec       q    Type
REMARK                         _______ _______ _______ _____ _____    ______ ____
ROOT
ATOM      1 FE   UNL     1      -4.300   4.225   0.000  0.00  0.00    +0.000 Fe
ENDROOT
TORSDOF 0
REMARK  Name = 
REMARK  18 active torsions:
REMARK  status: ('A' for Active; 'I' for Inactive)
REMARK    1  A    between atoms: C_6  and  FE_7
REMARK    2  A    between atoms: FE_7  and  C_8
REMARK    3  A    between atoms: FE_7  and  C_9
REMARK    4  A    between atoms: FE_7  and  C_10
REMARK    5  A    between atoms: FE_7  and  C_11
REMARK    6  A    between atoms: FE_7  and  C_17
REMARK    7  A    between atoms: C_19  and  FE_20
REMARK    8  A    between atoms: FE_20  and  C_21
REMARK    9  A    between atoms: FE_20  and  C_22
REMARK   10  A    between atoms: FE_20  and  C_23
REMARK   11  A    between atoms: FE_20  and  C_24
REMARK   12  A    between atoms: FE_20  and  C_30
REMARK   13  A    between atoms: C_32  and  FE_33
REMARK   14  A    between atoms: FE_33  and  C_34
REMARK   15  A    between atoms: FE_33  and  C_35
REMARK   16  A    between atoms: FE_33  and  C_36
REMARK   17  A    between atoms: FE_33  and  C_37
REMARK   18  A    between atoms: FE_33  and  C_43
REMARK                            x       y       z     vdW  Elec       q    Type
REMARK                         _______ _______ _______ _____ _____    ______ ____
ROOT
ATOM      1 FE   UNL     1      -2.528   1.937   0.000  0.00  0.00    +0.000 Fe
ENDROOT
BRANCH   1   3
ATOM      2  N   UNL     1      -2.528   3.587   0.000  0.00  0.00    +0.000 NA
ATOM      3  C   UNL     1      -2.528   2.762   0.000  0.00  0.00    +0.000 C 
ENDBRANCH   1   3
BRANCH   1   4
ATOM      4  C   UNL     1      -2.528   1.112   0.000  0.00  0.00    +0.000 C 
ATOM      5  N   UNL     1      -2.528   0.287   0.000  0.00  0.00    +0.000 NA
ENDBRANCH   1   4
BRANCH   1   7
ATOM      6  N   UNL     1      -3.957   1.112   0.000  0.00  0.00    +0.000 NA
ATOM      7  C   UNL     1      -3.243   1.525   0.000  0.00  0.00    +0.000 C 
ENDBRANCH   1   7
BRANCH   1   8
ATOM      8  C   UNL     1      -3.243   2.350   0.000  0.00  0.00    +0.000 C 
ATOM      9  N   UNL     1      -3.957   2.762   0.000  0.00  0.00    +0.000 NA
ENDBRANCH   1   8
BRANCH   1  10
ATOM     10  C   UNL     1      -1.813   2.350   0.000  0.00  0.00    +0.000 C 
ATOM     11  N   UNL     1      -1.099   2.762   0.000  0.00  0.00    +0.000 NA
ENDBRANCH   1  10
BRANCH   1  12
ATOM     12  C   UNL     1      -1.813   1.525   0.000  0.00  0.00    +0.000 C 
ATOM     13  N   UNL     1      -1.099   1.112   0.000  0.00  0.00    +0.000 NA
ENDBRANCH   1  12
TORSDOF 6
REMARK  Name = 
REMARK  18 active torsions:
REMARK  status: ('A' for Active; 'I' for Inactive)
REMARK    1  A    between atoms: C_6  and  FE_7
REMARK    2  A    between atoms: FE_7  and  C_8
REMARK    3  A    between atoms: FE_7  and  C_9
REMARK    4  A    between atoms: FE_7  and  C_10
REMARK    5  A    between atoms: FE_7  and  C_11
REMARK    6  A    between atoms: FE_7  and  C_17
REMARK    7  A    between atoms: C_19  and  FE_20
REMARK    8  A    between atoms: FE_20  and  C_21
REMARK    9  A    between atoms: FE_20  and  C_22
REMARK   10  A    between atoms: FE_20  and  C_23
REMARK   11  A    between atoms: FE_20  and  C_24
REMARK   12  A    between atoms: FE_20  and  C_30
REMARK   13  A    between atoms: C_32  and  FE_33
REMARK   14  A    between atoms: FE_33  and  C_34
REMARK   15  A    between atoms: FE_33  and  C_35
REMARK   16  A    between atoms: FE_33  and  C_36
REMARK   17  A    between atoms: FE_33  and  C_37
REMARK   18  A    between atoms: FE_33  and  C_43
REMARK                            x       y       z     vdW  Elec       q    Type
REMARK                         _______ _______ _______ _____ _____    ______ ____
ROOT
ATOM      1 FE   UNL     1       2.456   1.937   0.000  0.00  0.00    +0.000 Fe
ENDROOT
BRANCH   1   3
ATOM      2  N   UNL     1       2.456   3.587   0.000  0.00  0.00    +0.000 NA
ATOM      3  C   UNL     1       2.456   2.762   0.000  0.00  0.00    +0.000 C 
ENDBRANCH   1   3
BRANCH   1   4
ATOM      4  C   UNL     1       2.456   1.112   0.000  0.00  0.00    +0.000 C 
ATOM      5  N   UNL     1       2.456   0.287   0.000  0.00  0.00    +0.000 NA
ENDBRANCH   1   4
BRANCH   1   7
ATOM      6  N   UNL     1       1.027   1.112   0.000  0.00  0.00    +0.000 NA
ATOM      7  C   UNL     1       1.741   1.525   0.000  0.00  0.00    +0.000 C 
ENDBRANCH   1   7
BRANCH   1   8
ATOM      8  C   UNL     1       1.741   2.350   0.000  0.00  0.00    +0.000 C 
ATOM      9  N   UNL     1       1.027   2.762   0.000  0.00  0.00    +0.000 NA
ENDBRANCH   1   8
BRANCH   1  10
ATOM     10  C   UNL     1       3.170   2.350   0.000  0.00  0.00    +0.000 C 
ATOM     11  N   UNL     1       3.885   2.762   0.000  0.00  0.00    +0.000 NA
ENDBRANCH   1  10
BRANCH   1  12
ATOM     12  C   UNL     1       3.170   1.525   0.000  0.00  0.00    +0.000 C 
ATOM     13  N   UNL     1       3.885   1.112   0.000  0.00  0.00    +0.000 NA
ENDBRANCH   1  12
TORSDOF 6
REMARK  Name = 
REMARK  18 active torsions:
REMARK  status: ('A' for Active; 'I' for Inactive)
REMARK    1  A    between atoms: C_6  and  FE_7
REMARK    2  A    between atoms: FE_7  and  C_8
REMARK    3  A    between atoms: FE_7  and  C_9
REMARK    4  A    between atoms: FE_7  and  C_10
REMARK    5  A    between atoms: FE_7  and  C_11
REMARK    6  A    between atoms: FE_7  and  C_17
REMARK    7  A    between atoms: C_19  and  FE_20
REMARK    8  A    between atoms: FE_20  and  C_21
REMARK    9  A    between atoms: FE_20  and  C_22
REMARK   10  A    between atoms: FE_20  and  C_23
REMARK   11  A    between atoms: FE_20  and  C_24
REMARK   12  A    between atoms: FE_20  and  C_30
REMARK   13  A    between atoms: C_32  and  FE_33
REMARK   14  A    between atoms: FE_33  and  C_34
REMARK   15  A    between atoms: FE_33  and  C_35
REMARK   16  A    between atoms: FE_33  and  C_36
REMARK   17  A    between atoms: FE_33  and  C_37
REMARK   18  A    between atoms: FE_33  and  C_43
REMARK                            x       y       z     vdW  Elec       q    Type
REMARK                         _______ _______ _______ _____ _____    ______ ____
ROOT
ATOM      1 FE   UNL     1      -0.036  -2.379   0.000  0.00  0.00    +0.000 Fe
ENDROOT
BRANCH   1   3
ATOM      2  N   UNL     1      -0.036  -0.729   0.000  0.00  0.00    +0.000 NA
ATOM      3  C   UNL     1      -0.036  -1.554   0.000  0.00  0.00    +0.000 C 
ENDBRANCH   1   3
BRANCH   1   4
ATOM      4  C   UNL     1      -0.036  -3.204   0.000  0.00  0.00    +0.000 C 
ATOM      5  N   UNL     1      -0.036  -4.029   0.000  0.00  0.00    +0.000 NA
ENDBRANCH   1   4
BRANCH   1   7
ATOM      6  N   UNL     1      -1.465  -3.204   0.000  0.00  0.00    +0.000 NA
ATOM      7  C   UNL     1      -0.751  -2.791   0.000  0.00  0.00    +0.000 C 
ENDBRANCH   1   7
BRANCH   1   8
ATOM      8  C   UNL     1      -0.751  -1.966   0.000  0.00  0.00    +0.000 C 
ATOM      9  N   UNL     1      -1.465  -1.554   0.000  0.00  0.00    +0.000 NA
ENDBRANCH   1   8
BRANCH   1  10
ATOM     10  C   UNL     1       0.678  -1.966   0.000  0.00  0.00    +0.000 C 
ATOM     11  N   UNL     1       1.393  -1.554   0.000  0.00  0.00    +0.000 NA
ENDBRANCH   1  10
BRANCH   1  12
ATOM     12  C   UNL     1       0.678  -2.791   0.000  0.00  0.00    +0.000 C 
ATOM     13  N   UNL     1       1.393  -3.204   0.000  0.00  0.00    +0.000 NA
ENDBRANCH   1  12
TORSDOF 6
