REMARK  Name = 
REMARK  7 active torsions:
REMARK  status: ('A' for Active; 'I' for Inactive)
REMARK    1  A    between atoms: C_2  and  C_9
REMARK    2  A    between atoms: C_4  and  S_11
REMARK    3  A    between atoms: C_6  and  C_16
REMARK    4  A    between atoms: S_8  and  N_12
REMARK    5  A    between atoms: S_11  and  C_18
REMARK    6  A    between atoms: N_12  and  C_22
REMARK    7  A    between atoms: C_20  and  C_22
REMARK                            x       y       z     vdW  Elec       q    Type
REMARK                         _______ _______ _______ _____ _____    ______ ____
ROOT
ATOM      1  N   UNL     1      -1.461  -1.636   0.000  0.00  0.00    +0.000 N 
ATOM      2  C   UNL     1      -0.676  -1.891   0.000  0.00  0.00    +0.000 C 
ATOM      3  C   UNL     1      -2.286  -1.636   0.000  0.00  0.00    +0.000 C 
ATOM      4  C   UNL     1      -0.191  -1.224   0.000  0.00  0.00    +0.000 C 
ATOM      5  C   UNL     1      -1.461  -0.811   0.000  0.00  0.00    +0.000 C 
ATOM      6  C   UNL     1      -2.286  -0.811   0.000  0.00  0.00    +0.000 C 
ATOM      7  C   UNL     1      -0.676  -0.556   0.000  0.00  0.00    +0.000 C 
ATOM      8  O   UNL     1      -2.869  -2.220   0.000  0.00  0.00    +0.000 OA
ATOM      9  C   UNL     1      -0.421   0.228   0.000  0.00  0.00    +0.000 C 
ENDROOT
BRANCH   2  10
ATOM     10  C   UNL     1      -0.421  -2.676   0.000  0.00  0.00    +0.000 C 
ATOM     11  O   UNL     1       0.386  -2.847   0.000  0.00  0.00    +0.000 OA
ATOM     12  O   UNL     1      -0.973  -3.289   0.000  0.00  0.00    +0.000 OA
ENDBRANCH   2  10
BRANCH   6  13
ATOM     13  C   UNL     1      -2.869  -0.228   0.000  0.00  0.00    +0.000 C 
ATOM     14  C   UNL     1      -3.666  -0.442   0.000  0.00  0.00    +0.000 C 
ATOM     15  O   UNL     1      -2.656   0.569   0.000  0.00  0.00    +0.000 OA
ENDBRANCH   6  13
BRANCH   4  16
ATOM     16  S   UNL     1       0.634  -1.224   0.000  0.00  0.00    +0.000 S 
BRANCH  16  18
ATOM     17  N   UNL     1       2.406  -0.035   0.000  0.00  0.00    +0.000 NA
ATOM     18  C   UNL     1       1.217  -0.640   0.000  0.00  0.00    +0.000 C 
ATOM     19  C   UNL     1       1.823   0.549   0.000  0.00  0.00    +0.000 C 
ATOM     20  C   UNL     1       1.088   0.174   0.000  0.00  0.00    +0.000 C 
ATOM     21  C   UNL     1       2.032  -0.769   0.000  0.00  0.00    +0.000 C 
BRANCH  19  22
ATOM     22  C   UNL     1       1.952   1.364   0.000  0.00  0.00    +0.000 C 
BRANCH  22  23
ATOM     23  N   UNL     1       2.722   1.659   0.000  0.00  0.00    +0.000 NA
BRANCH  23  24
ATOM     24  S   UNL     1       2.851   2.474   0.000  0.00  0.00    +0.000 S 
ATOM     25  N   UNL     1       2.980   3.289   0.000  0.00  0.00    +0.000 NA
ATOM     26  O   UNL     1       2.036   2.603   0.000  0.00  0.00    +0.000 OA
ATOM     27  O   UNL     1       3.666   2.345   0.000  0.00  0.00    +0.000 OA
ENDBRANCH  23  24
ENDBRANCH  22  23
ENDBRANCH  19  22
ENDBRANCH  16  18
ENDBRANCH   4  16
TORSDOF 7
