REMARK  Name = 
REMARK  6 active torsions:
REMARK  status: ('A' for Active; 'I' for Inactive)
REMARK    1  A    between atoms: N_8  and  C_11
REMARK    2  A    between atoms: N_9  and  C_17
REMARK    3  A    between atoms: C_10  and  C_12
REMARK    4  A    between atoms: C_12  and  C_14
REMARK    5  A    between atoms: C_14  and  C_17
REMARK    6  A    between atoms: C_16  and  C_19
REMARK                            x       y       z     vdW  Elec       q    Type
REMARK                         _______ _______ _______ _____ _____    ______ ____
ROOT
ATOM      1  O   UNL     1       0.579  -0.825   0.000  0.00  0.00    +0.000 OA
ATOM      2  O   UNL     1       2.722   0.412   0.000  0.00  0.00    +0.000 OA
ATOM      3  C   UNL     1       0.579   0.000   0.000  0.00  0.00    +0.000 C 
ATOM      4  C   UNL     1       1.293   0.412   0.000  0.00  0.00    +0.000 C 
ATOM      5  C   UNL     1       2.008   0.000   0.000  0.00  0.00    +0.000 C 
ATOM      6  C   UNL     1       2.008  -0.825   0.000  0.00  0.00    +0.000 C 
ATOM      7  C   UNL     1       1.293  -1.238   0.000  0.00  0.00    +0.000 C 
ENDROOT
BRANCH   4   9
ATOM      8  O   UNL     1       2.722   1.238   0.000  0.00  0.00    +0.000 OA
ATOM      9  N   UNL     1       1.293   1.238   0.000  0.00  0.00    +0.000 N 
ATOM     10  C   UNL     1       2.008   1.650   0.000  0.00  0.00    +0.000 C 
ATOM     11  C   UNL     1       2.008   2.475   0.000  0.00  0.00    +0.000 C 
ATOM     12  H   UNL     1       0.850   1.493   0.000  0.00  0.00    +0.000 HD
ENDBRANCH   4   9
BRANCH   7  15
ATOM     13  O   UNL     1       2.008  -2.475   0.000  0.00  0.00    +0.000 OA
ATOM     14  O   UNL     1       0.579  -2.475   0.000  0.00  0.00    +0.000 OA
ATOM     15  C   UNL     1       1.293  -2.062   0.000  0.00  0.00    +0.000 C 
ENDBRANCH   7  15
BRANCH   3  17
ATOM     16  O   UNL     1      -0.136   1.238   0.000  0.00  0.00    +0.000 OA
ATOM     17  C   UNL     1      -0.136   0.412   0.000  0.00  0.00    +0.000 C 
BRANCH  17  19
ATOM     18  O   UNL     1      -0.850  -0.825   0.000  0.00  0.00    +0.000 OA
ATOM     19  C   UNL     1      -0.850   0.000   0.000  0.00  0.00    +0.000 C 
BRANCH  19  20
ATOM     20  C   UNL     1      -1.565   0.412   0.000  0.00  0.00    +0.000 C 
BRANCH  20  21
ATOM     21  N   UNL     1      -2.279   0.000   0.000  0.00  0.00    +0.000 NA
ATOM     22  H   UNL     1      -2.279  -0.511   0.000  0.00  0.00    +0.000 HD
ATOM     23  H   UNL     1      -2.722   0.256   0.000  0.00  0.00    +0.000 HD
ENDBRANCH  20  21
ENDBRANCH  19  20
ENDBRANCH  17  19
ENDBRANCH   3  17
TORSDOF 6
