REMARK  Name = 
REMARK  4 active torsions:
REMARK  status: ('A' for Active; 'I' for Inactive)
REMARK    1  A    between atoms: C_8  and  C_10
REMARK    2  A    between atoms: C_9  and  S_24
REMARK    3  A    between atoms: C_12  and  C_15
REMARK    4  A    between atoms: C_13  and  S_24
REMARK                            x       y       z     vdW  Elec       q    Type
REMARK                         _______ _______ _______ _____ _____    ______ ____
ROOT
ATOM      1  C   UNL     1       2.875   6.260   0.000  0.00  0.00    +0.000 C 
ATOM      2  C   UNL     1       2.620   5.475   0.000  0.00  0.00    +0.000 C 
ATOM      3  C   UNL     1       1.010   5.220   0.000  0.00  0.00    +0.000 C 
ATOM      4  C   UNL     1       1.835   5.220   0.000  0.00  0.00    +0.000 C 
ATOM      5  C   UNL     1       2.620   4.140   0.000  0.00  0.00    +0.000 C 
ATOM      6  C   UNL     1       3.105   4.808   0.000  0.00  0.00    +0.000 C 
ATOM      7  C   UNL     1       1.010   4.395   0.000  0.00  0.00    +0.000 C 
ATOM      8  N   UNL     1       1.835   4.395   0.000  0.00  0.00    +0.000 N 
ATOM      9  O   UNL     1       0.427   3.812   0.000  0.00  0.00    +0.000 OA
ENDROOT
BRANCH   3  11
ATOM     10  C   UNL     1      -0.370   5.590   0.000  0.00  0.00    +0.000 C 
ATOM     11  C   UNL     1       0.427   5.803   0.000  0.00  0.00    +0.000 C 
ATOM     12  O   UNL     1       0.640   6.600   0.000  0.00  0.00    +0.000 OA
ENDBRANCH   3  11
BRANCH   5  13
ATOM     13  C   UNL     1       2.875   3.356   0.000  0.00  0.00    +0.000 C 
ATOM     14  O   UNL     1       2.323   2.742   0.000  0.00  0.00    +0.000 OA
ATOM     15  O   UNL     1       3.682   3.184   0.000  0.00  0.00    +0.000 OA
ENDBRANCH   5  13
BRANCH   6  16
ATOM     16  S   UNL     1       3.930   4.808   0.000  0.00  0.00    +0.000 S 
BRANCH  16  21
ATOM     17  C   UNL     1       5.163   5.608   0.000  0.00  0.00    +0.000 C 
ATOM     18  C   UNL     1       4.007   6.276   0.000  0.00  0.00    +0.000 C 
ATOM     19  C   UNL     1       5.947   6.967   0.000  0.00  0.00    +0.000 A 
ATOM     20  C   UNL     1       4.791   7.635   0.000  0.00  0.00    +0.000 A 
ATOM     21  C   UNL     1       4.342   5.522   0.000  0.00  0.00    +0.000 C 
ATOM     22  N   UNL     1       5.612   7.721   0.000  0.00  0.00    +0.000 NA
ATOM     23  N   UNL     1       5.334   6.415   0.000  0.00  0.00    +0.000 N 
ATOM     24  N   UNL     1       4.620   6.828   0.000  0.00  0.00    +0.000 N 
ENDBRANCH  16  21
ENDBRANCH   6  16
TORSDOF 4
