REMARK  Name = 
REMARK  7 active torsions:
REMARK  status: ('A' for Active; 'I' for Inactive)
REMARK    1  A    between atoms: O_2  and  C_8
REMARK    2  A    between atoms: N_4  and  C_14
REMARK    3  A    between atoms: N_6  and  C_15
REMARK    4  A    between atoms: N_6  and  C_17
REMARK    5  A    between atoms: N_6  and  C_18
REMARK    6  A    between atoms: C_7  and  C_10
REMARK    7  A    between atoms: C_14  and  C_15
REMARK                            x       y       z     vdW  Elec       q    Type
REMARK                         _______ _______ _______ _____ _____    ______ ____
ROOT
ATOM      1 BR   UNL     1      -3.576   0.619   0.000  0.00  0.00    +0.000 Br
ATOM      2  N   UNL     1      -3.576  -1.026   0.000  0.00  0.00    +0.000 NA
ATOM      3  C   UNL     1      -1.438   0.204   0.000  0.00  0.00    +0.000 A 
ATOM      4  C   UNL     1      -1.438  -0.619   0.000  0.00  0.00    +0.000 A 
ATOM      5  C   UNL     1      -2.861   0.204   0.000  0.00  0.00    +0.000 A 
ATOM      6  C   UNL     1      -2.146   0.619   0.000  0.00  0.00    +0.000 A 
ATOM      7  C   UNL     1      -2.861  -0.619   0.000  0.00  0.00    +0.000 A 
ATOM      8  C   UNL     1      -2.146  -1.026   0.000  0.00  0.00    +0.000 A 
ENDROOT
BRANCH   3  11
ATOM      9  O   UNL     1      -0.701   1.441   0.000  0.00  0.00    +0.000 OA
ATOM     10  N   UNL     1       0.007   0.204   0.000  0.00  0.00    +0.000 NA
ATOM     11  C   UNL     1      -0.708   0.619   0.000  0.00  0.00    +0.000 C 
BRANCH  10  12
ATOM     12  C   UNL     1       0.722   0.619   0.000  0.00  0.00    +0.000 C 
BRANCH  12  13
ATOM     13  C   UNL     1       1.438   0.204   0.000  0.00  0.00    +0.000 C 
BRANCH  13  14
ATOM     14  N   UNL     1       2.146   0.619   0.000  0.00  0.00    +0.000 NA
BRANCH  14  15
ATOM     15  C   UNL     1       2.160   1.441   0.000  0.00  0.00    +0.000 C 
ATOM     16  C   UNL     1       2.875   1.856   0.000  0.00  0.00    +0.000 C 
ENDBRANCH  14  15
BRANCH  14  17
ATOM     17  C   UNL     1       2.861   0.204   0.000  0.00  0.00    +0.000 C 
ATOM     18  C   UNL     1       3.576   0.619   0.000  0.00  0.00    +0.000 C 
ENDBRANCH  14  17
ENDBRANCH  13  14
ENDBRANCH  12  13
ENDBRANCH  10  12
ENDBRANCH   3  11
BRANCH   4  19
ATOM     19  O   UNL     1      -0.708  -1.033   0.000  0.00  0.00    +0.000 OA
ATOM     20  C   UNL     1      -0.708  -1.856   0.000  0.00  0.00    +0.000 C 
ENDBRANCH   4  19
TORSDOF 7
