REMARK  Name = 
REMARK  1 active torsions:
REMARK  status: ('A' for Active; 'I' for Inactive)
REMARK    1  A    between atoms: N_3  and  C_9
REMARK                            x       y       z     vdW  Elec       q    Type
REMARK                         _______ _______ _______ _____ _____    ______ ____
ROOT
ATOM      1  N   UNL     1       0.371  -1.253   0.000  0.00  0.00    +0.000 NA
ATOM      2  N   UNL     1       0.781   0.015   0.000  0.00  0.00    +0.000 NA
ATOM      3  C   UNL     1       1.046  -0.767   0.000  0.00  0.00    +0.000 C 
ATOM      4  C   UNL     1      -0.286  -0.776   0.000  0.00  0.00    +0.000 C 
ATOM      5  C   UNL     1      -0.029   0.008   0.000  0.00  0.00    +0.000 C 
ATOM      6  O   UNL     1       1.828  -1.011   0.000  0.00  0.00    +0.000 OA
ATOM      7  O   UNL     1      -1.069  -1.027   0.000  0.00  0.00    +0.000 OA
ENDROOT
BRANCH   5  10
ATOM      8  C   UNL     1      -1.330   0.593   0.000  0.00  0.00    +0.000 C 
ATOM      9  O   UNL     1      -1.828   1.253   0.000  0.00  0.00    +0.000 OA
ATOM     10  N   UNL     1      -0.515   0.683   0.000  0.00  0.00    +0.000 NA
ATOM     11  N   UNL     1      -1.673  -0.159   0.000  0.00  0.00    +0.000 NA
ENDBRANCH   5  10
TORSDOF 1
