REMARK  Name = 
REMARK  9 active torsions:
REMARK  status: ('A' for Active; 'I' for Inactive)
REMARK    1  A    between atoms: C_2  and  C_4
REMARK    2  A    between atoms: C_8  and  C_23
REMARK    3  A    between atoms: C_9  and  N_10
REMARK    4  A    between atoms: C_11  and  C_13
REMARK    5  A    between atoms: C_13  and  N_14
REMARK    6  A    between atoms: N_14  and  C_15
REMARK    7  A    between atoms: N_14  and  C_19
REMARK    8  A    between atoms: C_15  and  C_16
REMARK    9  A    between atoms: C_19  and  C_20
REMARK                            x       y       z     vdW  Elec       q    Type
REMARK                         _______ _______ _______ _____ _____    ______ ____
ROOT
ATOM      1  N   UNL     1      -0.806   0.099   0.000  0.00  0.00    +0.000 NA
ATOM      2  C   UNL     1       0.019   0.099   0.000  0.00  0.00    +0.000 C 
ATOM      3  O   UNL     1       0.773  -0.236   0.000  0.00  0.00    +0.000 OA
ENDROOT
BRANCH   1   9
ATOM      4  C   UNL     1      -0.806  -1.330   0.000  0.00  0.00    +0.000 A 
ATOM      5  C   UNL     1      -1.218  -2.044   0.000  0.00  0.00    +0.000 A 
ATOM      6  C   UNL     1      -2.043  -2.044   0.000  0.00  0.00    +0.000 A 
ATOM      7  C   UNL     1      -2.456  -1.330   0.000  0.00  0.00    +0.000 A 
ATOM      8  C   UNL     1      -2.043  -0.615   0.000  0.00  0.00    +0.000 A 
ATOM      9  C   UNL     1      -1.218  -0.615   0.000  0.00  0.00    +0.000 A 
BRANCH   4  11
ATOM     10  C   UNL     1       0.432  -2.044   0.000  0.00  0.00    +0.000 C 
ATOM     11  C   UNL     1       0.019  -1.330   0.000  0.00  0.00    +0.000 C 
ATOM     12  C   UNL     1       0.432  -0.615   0.000  0.00  0.00    +0.000 C 
ENDBRANCH   4  11
BRANCH   8  13
ATOM     13  C   UNL     1      -2.456   0.099   0.000  0.00  0.00    +0.000 C 
ATOM     14  C   UNL     1      -2.043   0.814   0.000  0.00  0.00    +0.000 C 
ATOM     15  C   UNL     1      -3.281   0.099   0.000  0.00  0.00    +0.000 C 
ENDBRANCH   8  13
ENDBRANCH   1   9
BRANCH   2  16
ATOM     16  C   UNL     1       0.432   0.814   0.000  0.00  0.00    +0.000 C 
BRANCH  16  17
ATOM     17  N   UNL     1       1.257   0.814   0.000  0.00  0.00    +0.000 NA
BRANCH  17  18
ATOM     18  C   UNL     1       1.669   0.099   0.000  0.00  0.00    +0.000 C 
BRANCH  18  19
ATOM     19  C   UNL     1       2.494   0.099   0.000  0.00  0.00    +0.000 C 
ATOM     20  O   UNL     1       2.907   0.814   0.000  0.00  0.00    +0.000 OA
ATOM     21  O   UNL     1       2.907  -0.615   0.000  0.00  0.00    +0.000 OA
ENDBRANCH  18  19
ENDBRANCH  17  18
BRANCH  17  22
ATOM     22  C   UNL     1       1.669   1.528   0.000  0.00  0.00    +0.000 C 
BRANCH  22  23
ATOM     23  C   UNL     1       1.257   2.243   0.000  0.00  0.00    +0.000 C 
ATOM     24  O   UNL     1       0.432   2.243   0.000  0.00  0.00    +0.000 OA
ATOM     25  O   UNL     1       1.669   2.957   0.000  0.00  0.00    +0.000 OA
ENDBRANCH  22  23
ENDBRANCH  17  22
ENDBRANCH  16  17
ENDBRANCH   2  16
TORSDOF 9
REMARK  Name = 
REMARK  9 active torsions:
REMARK  status: ('A' for Active; 'I' for Inactive)
REMARK    1  A    between atoms: C_2  and  C_4
REMARK    2  A    between atoms: C_8  and  C_23
REMARK    3  A    between atoms: C_9  and  N_10
REMARK    4  A    between atoms: C_11  and  C_13
REMARK    5  A    between atoms: C_13  and  N_14
REMARK    6  A    between atoms: N_14  and  C_15
REMARK    7  A    between atoms: N_14  and  C_19
REMARK    8  A    between atoms: C_15  and  C_16
REMARK    9  A    between atoms: C_19  and  C_20
REMARK                            x       y       z     vdW  Elec       q    Type
REMARK                         _______ _______ _______ _____ _____    ______ ____
ROOT
ATOM      1 TC   UNL     1       5.382   0.000   0.000  0.00  0.00    +0.000 Tc
ENDROOT
TORSDOF 0
