REMARK  Name = 
REMARK  2 active torsions:
REMARK  status: ('A' for Active; 'I' for Inactive)
REMARK    1  A    between atoms: N_1  and  C1*_3
REMARK    2  A    between atoms: C4*_12  and  C5*_17
REMARK                            x       y       z     vdW  Elec       q    Type
REMARK                         _______ _______ _______ _____ _____    ______ ____
ROOT
ATOM      1  N   UNL     1       1.406   0.806   0.000  0.00  0.00    +0.000 N 
ATOM      2  C   UNL     1       0.691   1.215   0.000  0.00  0.00    +0.000 A 
ATOM      3  C   UNL     1       2.124   1.222   0.000  0.00  0.00    +0.000 A 
ATOM      4  C   UNL     1       0.687   2.047   0.000  0.00  0.00    +0.000 A 
ATOM      5  C   UNL     1      -0.024   0.806   0.000  0.00  0.00    +0.000 A 
ATOM      6  N   UNL     1       2.121   2.054   0.000  0.00  0.00    +0.000 NA
ATOM      7  C   UNL     1      -0.028   2.456   0.000  0.00  0.00    +0.000 A 
ATOM      8  C   UNL     1      -0.736   1.218   0.000  0.00  0.00    +0.000 A 
ATOM      9  C   UNL     1      -0.736   2.043   0.000  0.00  0.00    +0.000 A 
ATOM     10 CL   UNL     1      -1.450   0.809   0.000  0.00  0.00    +0.000 Cl
ATOM     11 CL   UNL     1      -1.447   2.456   0.000  0.00  0.00    +0.000 Cl
ENDROOT
BRANCH   1  12
ATOM     12  C1* UNL     1       1.416  -1.009   0.000  0.00  0.00    +0.000 C 
ATOM     13  O4* UNL     1       0.388  -0.435   0.000  0.00  0.00    +0.000 OA
ATOM     14  C2* UNL     1       1.017  -1.789   0.000  0.00  0.00    +0.000 C 
ATOM     15  C4* UNL     1      -0.639  -1.009   0.000  0.00  0.00    +0.000 C 
ATOM     16  C3* UNL     1      -0.258  -1.789   0.000  0.00  0.00    +0.000 C 
ATOM     17  O2* UNL     1       1.238  -2.456   0.000  0.00  0.00    +0.000 OA
ATOM     18  O3* UNL     1      -0.540  -2.456   0.000  0.00  0.00    +0.000 OA
BRANCH  15  19
ATOM     19  C5* UNL     1      -1.251  -0.490   0.000  0.00  0.00    +0.000 C 
ATOM     20  O5* UNL     1      -2.124  -0.861   0.000  0.00  0.00    +0.000 OA
ENDBRANCH  15  19
ENDBRANCH   1  12
TORSDOF 2
