REMARK  Name = 
REMARK  7 active torsions:
REMARK  status: ('A' for Active; 'I' for Inactive)
REMARK    1  A    between atoms: N_8  and  C_12
REMARK    2  A    between atoms: N_10  and  C_20
REMARK    3  A    between atoms: C_12  and  C_13
REMARK    4  A    between atoms: C_14  and  C_15
REMARK    5  A    between atoms: C_14  and  C_16
REMARK    6  A    between atoms: C_18  and  C_20
REMARK    7  A    between atoms: C_18  and  C_24
REMARK                            x       y       z     vdW  Elec       q    Type
REMARK                         _______ _______ _______ _____ _____    ______ ____
ROOT
ATOM      1 CL   UNL     1       1.072   1.650   0.000  0.00  0.00    +0.000 Cl
ATOM      2  O   UNL     1      -0.357  -0.825   0.000  0.00  0.00    +0.000 OA
ATOM      3  N   UNL     1      -0.357   0.000   0.000  0.00  0.00    +0.000 N 
ATOM      4  N   UNL     1      -1.786   0.000   0.000  0.00  0.00    +0.000 NA
ATOM      5  C   UNL     1       0.357   0.412   0.000  0.00  0.00    +0.000 A 
ATOM      6  C   UNL     1      -1.072   0.412   0.000  0.00  0.00    +0.000 A 
ATOM      7  C   UNL     1       0.357   1.238   0.000  0.00  0.00    +0.000 A 
ATOM      8  C   UNL     1      -1.072   1.238   0.000  0.00  0.00    +0.000 A 
ATOM      9  C   UNL     1      -0.357   1.650   0.000  0.00  0.00    +0.000 A 
ENDROOT
BRANCH   5  10
ATOM     10  C   UNL     1       1.072   0.000   0.000  0.00  0.00    +0.000 C 
BRANCH  10  13
ATOM     11  O   UNL     1       1.786   1.238   0.000  0.00  0.00    +0.000 OA
ATOM     12  N   UNL     1       2.501   0.000   0.000  0.00  0.00    +0.000 NA
ATOM     13  C   UNL     1       1.786   0.412   0.000  0.00  0.00    +0.000 C 
BRANCH  12  14
ATOM     14  C   UNL     1       3.215   0.412   0.000  0.00  0.00    +0.000 C 
ATOM     15  C   UNL     1       3.215   1.238   0.000  0.00  0.00    +0.000 C 
BRANCH  14  17
ATOM     16 CL   UNL     1       4.644  -2.062   0.000  0.00  0.00    +0.000 Cl
ATOM     17  C   UNL     1       3.930   0.000   0.000  0.00  0.00    +0.000 A 
ATOM     18  C   UNL     1       3.930  -0.825   0.000  0.00  0.00    +0.000 A 
ATOM     19  C   UNL     1       4.644   0.412   0.000  0.00  0.00    +0.000 A 
ATOM     20  C   UNL     1       4.644  -1.238   0.000  0.00  0.00    +0.000 A 
ATOM     21  C   UNL     1       5.359   0.000   0.000  0.00  0.00    +0.000 A 
ATOM     22  C   UNL     1       5.359  -0.825   0.000  0.00  0.00    +0.000 A 
ENDBRANCH  14  17
ENDBRANCH  12  14
ENDBRANCH  10  13
ENDBRANCH   5  10
BRANCH   4  23
ATOM     23  C   UNL     1      -2.501   0.412   0.000  0.00  0.00    +0.000 C 
BRANCH  23  26
ATOM     24  F   UNL     1      -3.628   0.714   0.000  0.00  0.00    +0.000 F 
ATOM     25  F   UNL     1      -2.803  -0.714   0.000  0.00  0.00    +0.000 F 
ATOM     26  C   UNL     1      -3.215   0.000   0.000  0.00  0.00    +0.000 C 
BRANCH  26  29
ATOM     27  O   UNL     1      -3.215  -1.650   0.000  0.00  0.00    +0.000 OA
ATOM     28  N   UNL     1      -3.930  -1.238   0.000  0.00  0.00    +0.000 N 
ATOM     29  C   UNL     1      -3.930  -0.412   0.000  0.00  0.00    +0.000 A 
ATOM     30  C   UNL     1      -4.644   0.000   0.000  0.00  0.00    +0.000 A 
ATOM     31  C   UNL     1      -4.644  -1.650   0.000  0.00  0.00    +0.000 A 
ATOM     32  C   UNL     1      -5.359  -0.412   0.000  0.00  0.00    +0.000 A 
ATOM     33  C   UNL     1      -5.359  -1.238   0.000  0.00  0.00    +0.000 A 
ENDBRANCH  26  29
ENDBRANCH  23  26
ENDBRANCH   4  23
TORSDOF 7
