REMARK  Name = 
REMARK  0 active torsions:
REMARK  status: ('A' for Active; 'I' for Inactive)
REMARK                            x       y       z     vdW  Elec       q    Type
REMARK                         _______ _______ _______ _____ _____    ______ ____
ROOT
ATOM      1  C   UNL     1       5.966   1.799   0.000  0.00  0.00    +0.000 C 
ATOM      2  C   UNL     1       6.274   1.033   0.000  0.00  0.00    +0.000 C 
ATOM      3  C   UNL     1       7.090   0.917   0.000  0.00  0.00    +0.000 C 
ATOM      4  C   UNL     1       7.463   0.095   0.000  0.00  0.00    +0.000 C 
ATOM      5  C   UNL     1       8.204  -0.268   0.000  0.00  0.00    +0.000 A 
ATOM      6  C   UNL     1       8.088  -1.085   0.000  0.00  0.00    +0.000 A 
ATOM      7  C   UNL     1       8.737  -1.594   0.000  0.00  0.00    +0.000 A 
ATOM      8  C   UNL     1       9.503  -1.286   0.000  0.00  0.00    +0.000 A 
ATOM      9  F   UNL     1      10.152  -1.795   0.000  0.00  0.00    +0.000 F 
ATOM     10  C   UNL     1       9.619  -0.469   0.000  0.00  0.00    +0.000 A 
ATOM     11  N   UNL     1       8.970   0.040   0.000  0.00  0.00    +0.000 NA
ATOM     12  C   UNL     1       7.275  -1.227   0.000  0.00  0.00    +0.000 C 
ATOM     13  C   UNL     1       8.037  -1.544   0.000  0.00  0.00    +0.000 C 
ATOM     14  C   UNL     1       7.971  -2.366   0.000  0.00  0.00    +0.000 C 
ATOM     15  C   UNL     1       7.168  -2.557   0.000  0.00  0.00    +0.000 C 
ATOM     16  N   UNL     1       6.739  -1.853   0.000  0.00  0.00    +0.000 N 
ATOM     17  C   UNL     1       5.871  -1.796   0.000  0.00  0.00    +0.000 A 
ATOM     18  N   UNL     1       5.563  -1.031   0.000  0.00  0.00    +0.000 NA
ATOM     19  C   UNL     1       4.747  -0.915   0.000  0.00  0.00    +0.000 A 
ATOM     20  C   UNL     1       4.439  -0.149   0.000  0.00  0.00    +0.000 A 
ATOM     21  C   UNL     1       3.601  -0.280   0.000  0.00  0.00    +0.000 A 
ATOM     22  N   UNL     1       3.509  -1.100   0.000  0.00  0.00    +0.000 NA
ATOM     23  N   UNL     1       4.260  -1.441   0.000  0.00  0.00    +0.000 N 
ATOM     24  C   UNL     1       4.509  -2.228   0.000  0.00  0.00    +0.000 A 
ATOM     25  C   UNL     1       5.315  -2.405   0.000  0.00  0.00    +0.000 A 
ATOM     26  C   UNL     1       4.948   0.500   0.000  0.00  0.00    +0.000 C 
ATOM     27  O   UNL     1       4.640   1.266   0.000  0.00  0.00    +0.000 OA
ATOM     28  N   UNL     1       5.765   0.384   0.000  0.00  0.00    +0.000 NA
ENDROOT
TORSDOF 0
