REMARK  Name = 
REMARK  1 active torsions:
REMARK  status: ('A' for Active; 'I' for Inactive)
REMARK    1  A    between atoms: O_2  and  C_8
REMARK                            x       y       z     vdW  Elec       q    Type
REMARK                         _______ _______ _______ _____ _____    ______ ____
ROOT
ATOM      1  O   UNL     1       0.357  -1.238   0.000  0.00  0.00    +0.000 OA
ATOM      2  O   UNL     1       0.357   1.238   0.000  0.00  0.00    +0.000 OA
ATOM      3  O   UNL     1       1.786   0.412   0.000  0.00  0.00    +0.000 OA
ATOM      4  O   UNL     1      -1.072  -1.238   0.000  0.00  0.00    +0.000 OA
ATOM      5  C   UNL     1       0.357   0.412   0.000  0.00  0.00    +0.000 C 
ATOM      6  C   UNL     1       1.072   0.000   0.000  0.00  0.00    +0.000 C 
ATOM      7  C   UNL     1      -0.357   0.000   0.000  0.00  0.00    +0.000 C 
ATOM      8  C   UNL     1       1.072  -0.825   0.000  0.00  0.00    +0.000 C 
ATOM      9  C   UNL     1      -0.357  -0.825   0.000  0.00  0.00    +0.000 C 
ATOM     10  C   UNL     1       1.786  -1.238   0.000  0.00  0.00    +0.000 C 
ENDROOT
BRANCH   7  11
ATOM     11  O   UNL     1      -1.072   0.412   0.000  0.00  0.00    +0.000 OA
ATOM     12  C   UNL     1      -1.786   0.000   0.000  0.00  0.00    +0.000 C 
ENDBRANCH   7  11
TORSDOF 1
