REMARK  Name = 
REMARK  9 active torsions:
REMARK  status: ('A' for Active; 'I' for Inactive)
REMARK    1  A    between atoms: C_1  and  C_4
REMARK    2  A    between atoms: C_2  and  C_3
REMARK    3  A    between atoms: C_2  and  O_25
REMARK    4  A    between atoms: C_3  and  C_5
REMARK    5  A    between atoms: C_5  and  C_7
REMARK    6  A    between atoms: C_7  and  C_9
REMARK    7  A    between atoms: C_9  and  C_10
REMARK    8  A    between atoms: C_10  and  C_12
REMARK    9  A    between atoms: C_13  and  O_25
REMARK                            x       y       z     vdW  Elec       q    Type
REMARK                         _______ _______ _______ _____ _____    ______ ____
ROOT
ATOM      1  C   UNL     1      -0.641  -0.412   0.000  0.00  0.00    +0.000 C 
ENDROOT
BRANCH   1   2
ATOM      2  C   UNL     1      -1.355  -0.825   0.000  0.00  0.00    +0.000 C 
ATOM      3  O   UNL     1      -1.355  -1.650   0.000  0.00  0.00    +0.000 OA
BRANCH   2   4
ATOM      4  C   UNL     1      -2.070  -0.412   0.000  0.00  0.00    +0.000 C 
ATOM      5  O   UNL     1      -2.070   0.412   0.000  0.00  0.00    +0.000 OA
BRANCH   4   6
ATOM      6  C   UNL     1      -2.784  -0.825   0.000  0.00  0.00    +0.000 C 
ATOM      7  O   UNL     1      -2.784  -1.650   0.000  0.00  0.00    +0.000 OA
BRANCH   6   8
ATOM      8  C   UNL     1      -3.499  -0.412   0.000  0.00  0.00    +0.000 C 
ATOM      9  O   UNL     1      -3.499   0.412   0.000  0.00  0.00    +0.000 OA
BRANCH   8  10
ATOM     10  C   UNL     1      -4.213  -0.825   0.000  0.00  0.00    +0.000 C 
ATOM     11  O   UNL     1      -4.213  -1.650   0.000  0.00  0.00    +0.000 OA
BRANCH  10  12
ATOM     12  C   UNL     1      -4.928  -0.412   0.000  0.00  0.00    +0.000 C 
ATOM     13  O   UNL     1      -4.928   0.412   0.000  0.00  0.00    +0.000 OA
ATOM     14  O   UNL     1      -5.642  -0.825   0.000  0.00  0.00    +0.000 OA
ENDBRANCH  10  12
ENDBRANCH   8  10
ENDBRANCH   6   8
ENDBRANCH   4   6
ENDBRANCH   2   4
ENDBRANCH   1   2
BRANCH   1  15
ATOM     15  O   UNL     1       0.073  -0.825   0.000  0.00  0.00    +0.000 OA
BRANCH  15  20
ATOM     16  C   UNL     1       2.217  -0.412   0.000  0.00  0.00    +0.000 C 
ATOM     17  C   UNL     1       2.217   0.412   0.000  0.00  0.00    +0.000 C 
ATOM     18  C   UNL     1       1.502   0.825   0.000  0.00  0.00    +0.000 C 
ATOM     19  C   UNL     1       0.788   0.412   0.000  0.00  0.00    +0.000 C 
ATOM     20  C   UNL     1       0.788  -0.412   0.000  0.00  0.00    +0.000 C 
ATOM     21  O   UNL     1       2.931   0.825   0.000  0.00  0.00    +0.000 OA
ATOM     22  O   UNL     1       1.502   1.650   0.000  0.00  0.00    +0.000 OA
ATOM     23  O   UNL     1       0.073   0.825   0.000  0.00  0.00    +0.000 OA
ATOM     24  O   UNL     1       1.502  -0.825   0.000  0.00  0.00    +0.000 OA
BRANCH  16  25
ATOM     25  C   UNL     1       2.931  -0.825   0.000  0.00  0.00    +0.000 C 
ATOM     26  O   UNL     1       3.646  -0.412   0.000  0.00  0.00    +0.000 OA
ENDBRANCH  16  25
ENDBRANCH  15  20
ENDBRANCH   1  15
TORSDOF 9
REMARK  Name = 
REMARK  9 active torsions:
REMARK  status: ('A' for Active; 'I' for Inactive)
REMARK    1  A    between atoms: C_1  and  C_4
REMARK    2  A    between atoms: C_2  and  C_3
REMARK    3  A    between atoms: C_2  and  O_25
REMARK    4  A    between atoms: C_3  and  C_5
REMARK    5  A    between atoms: C_5  and  C_7
REMARK    6  A    between atoms: C_7  and  C_9
REMARK    7  A    between atoms: C_9  and  C_10
REMARK    8  A    between atoms: C_10  and  C_12
REMARK    9  A    between atoms: C_13  and  O_25
REMARK                            x       y       z     vdW  Elec       q    Type
REMARK                         _______ _______ _______ _____ _____    ______ ____
ROOT
ATOM      1 FE   UNL     1      -6.357  -1.238   0.000  0.00  0.00    +0.000 Fe
ENDROOT
TORSDOF 0
REMARK  Name = 
REMARK  9 active torsions:
REMARK  status: ('A' for Active; 'I' for Inactive)
REMARK    1  A    between atoms: C_1  and  C_4
REMARK    2  A    between atoms: C_2  and  C_3
REMARK    3  A    between atoms: C_2  and  O_25
REMARK    4  A    between atoms: C_3  and  C_5
REMARK    5  A    between atoms: C_5  and  C_7
REMARK    6  A    between atoms: C_7  and  C_9
REMARK    7  A    between atoms: C_9  and  C_10
REMARK    8  A    between atoms: C_10  and  C_12
REMARK    9  A    between atoms: C_13  and  O_25
REMARK                            x       y       z     vdW  Elec       q    Type
REMARK                         _______ _______ _______ _____ _____    ______ ____
ROOT
ATOM      1  O   UNL     1       6.357  -0.234   0.000  0.00  0.00    +0.000 OA
ATOM      2  O   UNL     1       5.532  -0.234   0.000  0.00  0.00    +0.000 OA
ENDROOT
TORSDOF 0
