REMARK  Name = 
REMARK  7 active torsions:
REMARK  status: ('A' for Active; 'I' for Inactive)
REMARK    1  A    between atoms: C_3  and  C_4
REMARK    2  A    between atoms: C_4  and  N_6
REMARK    3  A    between atoms: C_4  and  C_31
REMARK    4  A    between atoms: N_6  and  C_7
REMARK    5  A    between atoms: C_14  and  C_15
REMARK    6  A    between atoms: C_22  and  C_23
REMARK    7  A    between atoms: N_32  and  C_33
REMARK                            x       y       z     vdW  Elec       q    Type
REMARK                         _______ _______ _______ _____ _____    ______ ____
ROOT
ATOM      1  N   UNL     1       1.256  -0.831   0.000  0.00  0.00    +0.000 N 
ATOM      2  C   UNL     1       0.578  -0.361   0.000  0.00  0.00    +0.000 C 
ATOM      3  O   UNL     1       0.651   0.461   0.000  0.00  0.00    +0.000 OA
ENDROOT
BRANCH   2   4
ATOM      4  C   UNL     1      -0.163  -0.705   0.000  0.00  0.00    +0.000 C 
ATOM      5  N   UNL     1      -0.985  -0.804   0.000  0.00  0.00    +0.000 N 
ATOM      6  C   UNL     1      -1.545  -0.208   0.000  0.00  0.00    +0.000 A 
ATOM      7  N   UNL     1      -1.301   0.587   0.000  0.00  0.00    +0.000 NA
ATOM      8  C   UNL     1      -1.862   1.193   0.000  0.00  0.00    +0.000 A 
ATOM      9  C   UNL     1      -2.666   1.012   0.000  0.00  0.00    +0.000 A 
ATOM     10  C   UNL     1      -2.910   0.217   0.000  0.00  0.00    +0.000 A 
ATOM     11  C   UNL     1      -2.350  -0.389   0.000  0.00  0.00    +0.000 A 
ATOM     12  C   UNL     1      -1.139  -1.609   0.000  0.00  0.00    +0.000 C 
ATOM     13  C   UNL     1      -0.425  -2.015   0.000  0.00  0.00    +0.000 C 
ATOM     14  C   UNL     1       0.181  -1.455   0.000  0.00  0.00    +0.000 C 
ATOM     15  O   UNL     1      -1.889  -1.961   0.000  0.00  0.00    +0.000 OA
BRANCH  10  16
ATOM     16  C   UNL     1      -3.723   0.036   0.000  0.00  0.00    +0.000 C 
ATOM     17  N   UNL     1      -4.519  -0.154   0.000  0.00  0.00    +0.000 NA
ENDBRANCH  10  16
ENDBRANCH   2   4
BRANCH   1  18
ATOM     18  C   UNL     1       1.184  -1.654   0.000  0.00  0.00    +0.000 A 
ATOM     19  C   UNL     1       0.443  -1.997   0.000  0.00  0.00    +0.000 A 
ATOM     20  C   UNL     1       0.361  -2.820   0.000  0.00  0.00    +0.000 A 
ATOM     21  F   UNL     1      -0.389  -3.172   0.000  0.00  0.00    +0.000 F 
ATOM     22  C   UNL     1       1.030  -3.299   0.000  0.00  0.00    +0.000 A 
ATOM     23  N   UNL     1       1.780  -2.946   0.000  0.00  0.00    +0.000 NA
ATOM     24  C   UNL     1       1.862  -2.133   0.000  0.00  0.00    +0.000 A 
ENDBRANCH   1  18
BRANCH   1  25
ATOM     25  C   UNL     1       2.051  -0.624   0.000  0.00  0.00    +0.000 C 
BRANCH  25  28
ATOM     26 CL   UNL     1       3.000  -1.970   0.000  0.00  0.00    +0.000 Cl
ATOM     27  C   UNL     1       3.344  -1.220   0.000  0.00  0.00    +0.000 A 
ATOM     28  C   UNL     1       2.874  -0.542   0.000  0.00  0.00    +0.000 A 
ATOM     29  C   UNL     1       3.226   0.208   0.000  0.00  0.00    +0.000 A 
ATOM     30  C   UNL     1       4.049   0.280   0.000  0.00  0.00    +0.000 A 
ATOM     31  C   UNL     1       4.519  -0.398   0.000  0.00  0.00    +0.000 A 
ATOM     32  C   UNL     1       4.175  -1.148   0.000  0.00  0.00    +0.000 A 
ENDBRANCH  25  28
BRANCH  25  33
ATOM     33  C   UNL     1       1.979   0.199   0.000  0.00  0.00    +0.000 C 
ATOM     34  N   UNL     1       2.657   0.678   0.000  0.00  0.00    +0.000 NA
ATOM     35  O   UNL     1       1.238   0.542   0.000  0.00  0.00    +0.000 OA
BRANCH  34  36
ATOM     36  C   UNL     1       2.585   1.491   0.000  0.00  0.00    +0.000 C 
ATOM     37  C   UNL     1       1.952   2.024   0.000  0.00  0.00    +0.000 C 
ATOM     38  C   UNL     1       2.476   2.657   0.000  0.00  0.00    +0.000 C 
ATOM     39  F   UNL     1       1.843   3.190   0.000  0.00  0.00    +0.000 F 
ATOM     40  F   UNL     1       3.009   3.299   0.000  0.00  0.00    +0.000 F 
ATOM     41  C   UNL     1       3.109   2.133   0.000  0.00  0.00    +0.000 C 
ENDBRANCH  34  36
ENDBRANCH  25  33
ENDBRANCH   1  25
TORSDOF 7
