REMARK  Name = 
REMARK  4 active torsions:
REMARK  status: ('A' for Active; 'I' for Inactive)
REMARK    1  A    between atoms: C_1  and  C_6
REMARK    2  A    between atoms: C_4  and  C_8
REMARK    3  A    between atoms: C_5  and  C_7
REMARK    4  A    between atoms: C_25  and  C_27
REMARK                            x       y       z     vdW  Elec       q    Type
REMARK                         _______ _______ _______ _____ _____    ______ ____
ROOT
ATOM      1  C   UNL     1      -0.351  -1.779   0.000  0.00  0.00    +0.000 A 
ATOM      2  N   UNL     1       0.317  -2.264   0.000  0.00  0.00    +0.000 NA
ATOM      3  N   UNL     1       0.984  -1.779   0.000  0.00  0.00    +0.000 NA
ATOM      4  C   UNL     1       0.729  -0.995   0.000  0.00  0.00    +0.000 A 
ATOM      5  C   UNL     1      -0.096  -0.995   0.000  0.00  0.00    +0.000 A 
ENDROOT
BRANCH   4   6
ATOM      6  C   UNL     1       1.214  -0.327   0.000  0.00  0.00    +0.000 C 
ATOM      7  C   UNL     1       0.879   0.426   0.000  0.00  0.00    +0.000 C 
ATOM      8  C   UNL     1       1.363   1.094   0.000  0.00  0.00    +0.000 C 
ATOM      9  N   UNL     1       2.184   1.008   0.000  0.00  0.00    +0.000 N 
ATOM     10  C   UNL     1       2.520   0.254   0.000  0.00  0.00    +0.000 C 
ATOM     11  C   UNL     1       2.035  -0.413   0.000  0.00  0.00    +0.000 C 
ATOM     12  C   UNL     1       2.669   1.675   0.000  0.00  0.00    +0.000 C 
ATOM     13  O   UNL     1       3.490   1.589   0.000  0.00  0.00    +0.000 OA
BRANCH  12  14
ATOM     14  C   UNL     1       2.333   2.429   0.000  0.00  0.00    +0.000 C 
ATOM     15  O   UNL     1       2.818   3.096   0.000  0.00  0.00    +0.000 OA
ENDBRANCH  12  14
ENDBRANCH   4   6
BRANCH   1  16
ATOM     16  C   UNL     1      -1.135  -2.034   0.000  0.00  0.00    +0.000 A 
ATOM     17  C   UNL     1      -1.749  -1.482   0.000  0.00  0.00    +0.000 A 
ATOM     18  C   UNL     1      -2.533  -1.737   0.000  0.00  0.00    +0.000 A 
ATOM     19  C   UNL     1      -2.705  -2.544   0.000  0.00  0.00    +0.000 A 
ATOM     20  C   UNL     1      -2.092  -3.096   0.000  0.00  0.00    +0.000 A 
ATOM     21  C   UNL     1      -1.307  -2.841   0.000  0.00  0.00    +0.000 A 
ATOM     22 CL   UNL     1      -3.490  -2.799   0.000  0.00  0.00    +0.000 Cl
ENDBRANCH   1  16
BRANCH   5  23
ATOM     23  C   UNL     1      -0.581  -0.327   0.000  0.00  0.00    +0.000 A 
ATOM     24  N   UNL     1      -1.401  -0.413   0.000  0.00  0.00    +0.000 NA
ATOM     25  C   UNL     1      -1.886   0.254   0.000  0.00  0.00    +0.000 A 
ATOM     26  N   UNL     1      -1.551   1.008   0.000  0.00  0.00    +0.000 NA
ATOM     27  C   UNL     1      -0.730   1.094   0.000  0.00  0.00    +0.000 A 
ATOM     28  C   UNL     1      -0.245   0.426   0.000  0.00  0.00    +0.000 A 
ENDBRANCH   5  23
TORSDOF 4
