REMARK  Name = 
REMARK  17 active torsions:
REMARK  status: ('A' for Active; 'I' for Inactive)
REMARK    1  A    between atoms: C_3  and  O_63
REMARK    2  A    between atoms: C_4  and  O_60
REMARK    3  A    between atoms: C_6  and  O_8
REMARK    4  A    between atoms: O_8  and  C_9
REMARK    5  A    between atoms: C_12  and  O_18
REMARK    6  A    between atoms: C_14  and  O_15
REMARK    7  A    between atoms: O_15  and  C_16
REMARK    8  A    between atoms: O_18  and  C_19
REMARK    9  A    between atoms: C_22  and  O_28
REMARK   10  A    between atoms: C_24  and  O_25
REMARK   11  A    between atoms: O_25  and  C_26
REMARK   12  A    between atoms: O_28  and  C_29
REMARK   13  A    between atoms: C_44  and  O_52
REMARK   14  A    between atoms: C_45  and  C_46
REMARK   15  A    between atoms: O_52  and  C_53
REMARK   16  A    between atoms: O_60  and  C_61
REMARK   17  A    between atoms: O_63  and  C_64
REMARK                            x       y       z     vdW  Elec       q    Type
REMARK                         _______ _______ _______ _____ _____    ______ ____
ROOT
ATOM      1  C   UNL     1       8.859  -1.189   0.000  0.00  0.00    +0.000 C 
ATOM      2  C   UNL     1       8.047  -1.334   0.000  0.00  0.00    +0.000 C 
ATOM      3  O   UNL     1       7.515  -0.704   0.000  0.00  0.00    +0.000 OA
ATOM      4  C   UNL     1       7.795   0.072   0.000  0.00  0.00    +0.000 C 
ATOM      5  C   UNL     1       8.607   0.217   0.000  0.00  0.00    +0.000 C 
ATOM      6  C   UNL     1       9.139  -0.413   0.000  0.00  0.00    +0.000 C 
ATOM      7  C   UNL     1       7.766  -2.110   0.000  0.00  0.00    +0.000 C 
ENDROOT
BRANCH   1   8
ATOM      8  O   UNL     1       9.390  -1.820   0.000  0.00  0.00    +0.000 OA
BRANCH   8  12
ATOM      9  C   UNL     1       8.550  -4.148   0.000  0.00  0.00    +0.000 C 
ATOM     10  C   UNL     1       8.018  -3.517   0.000  0.00  0.00    +0.000 C 
ATOM     11  O   UNL     1       8.298  -2.741   0.000  0.00  0.00    +0.000 OA
ATOM     12  C   UNL     1       9.110  -2.596   0.000  0.00  0.00    +0.000 C 
ATOM     13  C   UNL     1       9.642  -3.227   0.000  0.00  0.00    +0.000 C 
ATOM     14  C   UNL     1       9.362  -4.003   0.000  0.00  0.00    +0.000 C 
ATOM     15  C   UNL     1       7.206  -3.662   0.000  0.00  0.00    +0.000 C 
BRANCH  14  16
ATOM     16  O   UNL     1       9.894  -4.633   0.000  0.00  0.00    +0.000 OA
BRANCH  16  17
ATOM     17  C   UNL     1      10.706  -4.488   0.000  0.00  0.00    +0.000 C 
ATOM     18  O   UNL     1      11.238  -5.119   0.000  0.00  0.00    +0.000 OA
ENDBRANCH  16  17
ENDBRANCH  14  16
BRANCH   9  19
ATOM     19  O   UNL     1       8.269  -4.924   0.000  0.00  0.00    +0.000 OA
BRANCH  19  25
ATOM     20  C   UNL     1      10.957  -5.895   0.000  0.00  0.00    +0.000 C 
ATOM     21  C   UNL     1      10.145  -6.040   0.000  0.00  0.00    +0.000 C 
ATOM     22  C   UNL     1       9.865  -6.816   0.000  0.00  0.00    +0.000 C 
ATOM     23  C   UNL     1       9.053  -6.961   0.000  0.00  0.00    +0.000 C 
ATOM     24  C   UNL     1       8.521  -6.330   0.000  0.00  0.00    +0.000 C 
ATOM     25  C   UNL     1       8.801  -5.554   0.000  0.00  0.00    +0.000 C 
ATOM     26  O   UNL     1       9.613  -5.409   0.000  0.00  0.00    +0.000 OA
BRANCH  23  27
ATOM     27  O   UNL     1       8.772  -7.737   0.000  0.00  0.00    +0.000 OA
BRANCH  27  28
ATOM     28  C   UNL     1       9.304  -8.368   0.000  0.00  0.00    +0.000 C 
ATOM     29  O   UNL     1       9.024  -9.143   0.000  0.00  0.00    +0.000 OA
ENDBRANCH  27  28
ENDBRANCH  23  27
BRANCH  22  30
ATOM     30  O   UNL     1      10.397  -7.446   0.000  0.00  0.00    +0.000 OA
BRANCH  30  31
ATOM     31  C   UNL     1      10.116  -8.222   0.000  0.00  0.00    +0.000 C 
ATOM     32  O   UNL     1      10.648  -8.853   0.000  0.00  0.00    +0.000 OA
ENDBRANCH  30  31
ENDBRANCH  22  30
ENDBRANCH  19  25
ENDBRANCH   9  19
ENDBRANCH   8  12
ENDBRANCH   1   8
BRANCH   6  33
ATOM     33  O   UNL     1       9.951  -0.268   0.000  0.00  0.00    +0.000 OA
BRANCH  33  34
ATOM     34  C   UNL     1      10.231   0.508   0.000  0.00  0.00    +0.000 C 
ATOM     35  O   UNL     1      11.043   0.653   0.000  0.00  0.00    +0.000 OA
ENDBRANCH  33  34
ENDBRANCH   6  33
BRANCH   4  36
ATOM     36  O   UNL     1       7.263   0.703   0.000  0.00  0.00    +0.000 OA
BRANCH  36  37
ATOM     37  C   UNL     1       6.451   0.558   0.000  0.00  0.00    +0.000 C 
ATOM     38  C   UNL     1       6.171  -0.218   0.000  0.00  0.00    +0.000 C 
ATOM     39  C   UNL     1       5.359  -0.363   0.000  0.00  0.00    +0.000 C 
ATOM     40  C   UNL     1       4.827   0.267   0.000  0.00  0.00    +0.000 C 
ATOM     41  C   UNL     1       5.107   1.043   0.000  0.00  0.00    +0.000 C 
ATOM     42  C   UNL     1       5.919   1.188   0.000  0.00  0.00    +0.000 C 
ATOM     43  C   UNL     1       4.575   1.674   0.000  0.00  0.00    +0.000 C 
ATOM     44  C   UNL     1       3.763   1.529   0.000  0.00  0.00    +0.000 C 
ATOM     45  C   UNL     1       3.483   0.753   0.000  0.00  0.00    +0.000 C 
ATOM     46  C   UNL     1       4.015   0.122   0.000  0.00  0.00    +0.000 C 
ATOM     47  C   UNL     1       3.735  -0.654   0.000  0.00  0.00    +0.000 C 
ATOM     48  C   UNL     1       2.922  -0.799   0.000  0.00  0.00    +0.000 C 
ATOM     49  C   UNL     1       2.390  -0.168   0.000  0.00  0.00    +0.000 C 
ATOM     50  C   UNL     1       2.671   0.608   0.000  0.00  0.00    +0.000 C 
ATOM     51  C   UNL     1       2.019   1.114   0.000  0.00  0.00    +0.000 C 
ATOM     52  C   UNL     1       1.337   0.651   0.000  0.00  0.00    +0.000 C 
ATOM     53  C   UNL     1       1.566  -0.142   0.000  0.00  0.00    +0.000 C 
ATOM     54  O   UNL     1       2.869   1.409   0.000  0.00  0.00    +0.000 OA
ATOM     55  C   UNL     1       2.031  -0.911   0.000  0.00  0.00    +0.000 C 
ATOM     56  C   UNL     1       4.547  -0.509   0.000  0.00  0.00    +0.000 C 
BRANCH  53  57
ATOM     57  C   UNL     1       1.060  -0.793   0.000  0.00  0.00    +0.000 C 
ATOM     58  C   UNL     1       0.235  -0.766   0.000  0.00  0.00    +0.000 C 
ATOM     59  C   UNL     1      -0.045  -1.542   0.000  0.00  0.00    +0.000 C 
ATOM     60  O   UNL     1      -0.838  -1.771   0.000  0.00  0.00    +0.000 OA
ATOM     61  O   UNL     1       0.606  -2.048   0.000  0.00  0.00    +0.000 OA
ATOM     62  C   UNL     1       1.289  -1.585   0.000  0.00  0.00    +0.000 C 
ENDBRANCH  53  57
BRANCH  52  63
ATOM     63  O   UNL     1       0.561   0.931   0.000  0.00  0.00    +0.000 OA
BRANCH  63  64
ATOM     64  C   UNL     1       0.415   1.743   0.000  0.00  0.00    +0.000 C 
ATOM     65  O   UNL     1      -0.360   2.024   0.000  0.00  0.00    +0.000 OA
ENDBRANCH  63  64
ENDBRANCH  52  63
ENDBRANCH  36  37
ENDBRANCH   4  36
TORSDOF 17
