REMARK  Name = 
REMARK  0 active torsions:
REMARK  status: ('A' for Active; 'I' for Inactive)
REMARK                            x       y       z     vdW  Elec       q    Type
REMARK                         _______ _______ _______ _____ _____    ______ ____
ROOT
ATOM      1  C   UNL     1       1.371  -1.727   0.000  0.00  0.00    +0.000 C 
ATOM      2  C   UNL     1      -1.824  -0.627   0.000  0.00  0.00    +0.000 C 
ATOM      3  C   UNL     1       2.323   1.362   0.000  0.00  0.00    +0.000 C 
ATOM      4  C   UNL     1      -0.005  -1.704   0.000  0.00  0.00    +0.000 C 
ATOM      5  C   UNL     1      -0.556  -1.098   0.000  0.00  0.00    +0.000 C 
ATOM      6  C   UNL     1       1.650  -0.443   0.000  0.00  0.00    +0.000 C 
ATOM      7  C   UNL     1       2.128   0.231   0.000  0.00  0.00    +0.000 C 
ATOM      8  C   UNL     1       0.698  -1.282   0.000  0.00  0.00    +0.000 C 
ATOM      9  C   UNL     1      -1.276  -0.035   0.000  0.00  0.00    +0.000 C 
ATOM     10  C   UNL     1       0.812  -0.454   0.000  0.00  0.00    +0.000 C 
ATOM     11  C   UNL     1      -0.462  -0.262   0.000  0.00  0.00    +0.000 C 
ATOM     12  C   UNL     1      -1.558   0.738   0.000  0.00  0.00    +0.000 C 
ATOM     13  C   UNL     1      -0.072   0.920   0.000  0.00  0.00    +0.000 C 
ATOM     14  C   UNL     1       1.653   0.913   0.000  0.00  0.00    +0.000 C 
ATOM     15  C   UNL     1       0.264   0.226   0.000  0.00  0.00    +0.000 C 
ATOM     16  O   UNL     1      -2.323   0.993   0.000  0.00  0.00    +0.000 OA
ATOM     17  O   UNL     1      -0.869   1.185   0.000  0.00  0.00    +0.000 OA
ATOM     18  O   UNL     1       0.840   0.705   0.000  0.00  0.00    +0.000 OA
ATOM     19  O   UNL     1       1.207   1.606   0.000  0.00  0.00    +0.000 OA
ATOM     20  O   UNL     1       0.497   1.156   0.000  0.00  0.00    +0.000 OA
ENDROOT
TORSDOF 0
