REMARK  Name = 
REMARK  9 active torsions:
REMARK  status: ('A' for Active; 'I' for Inactive)
REMARK    1  A    between atoms: C_1  and  O_12
REMARK    2  A    between atoms: C_2  and  C_7
REMARK    3  A    between atoms: C_7  and  C_9
REMARK    4  A    between atoms: C_9  and  C_10
REMARK    5  A    between atoms: O_12  and  C_13
REMARK    6  A    between atoms: C_13  and  C_14
REMARK    7  A    between atoms: C_14  and  N_15
REMARK    8  A    between atoms: N_15  and  C_16
REMARK    9  A    between atoms: N_15  and  C_17
REMARK                            x       y       z     vdW  Elec       q    Type
REMARK                         _______ _______ _______ _____ _____    ______ ____
ROOT
ATOM      1  C   UNL     1      -0.717   0.858   0.000  0.00  0.00    +0.000 A 
ATOM      2  C   UNL     1      -0.713   1.583   0.000  0.00  0.00    +0.000 A 
ATOM      3  C   UNL     1      -1.425   2.020   0.000  0.00  0.00    +0.000 A 
ATOM      4  C   UNL     1      -2.139   1.609   0.000  0.00  0.00    +0.000 A 
ATOM      5  C   UNL     1      -2.138   0.782   0.000  0.00  0.00    +0.000 A 
ATOM      6  C   UNL     1      -1.426   0.373   0.000  0.00  0.00    +0.000 A 
ENDROOT
BRANCH   2   7
ATOM      7  C   UNL     1      -0.004   2.000   0.000  0.00  0.00    +0.000 C 
ATOM      8  O   UNL     1      -0.009   2.825   0.000  0.00  0.00    +0.000 OA
BRANCH   7   9
ATOM      9  C   UNL     1       0.708   1.587   0.000  0.00  0.00    +0.000 C 
BRANCH   9  10
ATOM     10  C   UNL     1       1.421   2.004   0.000  0.00  0.00    +0.000 C 
ATOM     11  C   UNL     1       2.133   1.592   0.000  0.00  0.00    +0.000 C 
ENDBRANCH   9  10
ENDBRANCH   7   9
ENDBRANCH   2   7
BRANCH   1  12
ATOM     12  O   UNL     1       0.012   0.472   0.000  0.00  0.00    +0.000 OA
BRANCH  12  13
ATOM     13  C   UNL     1       0.004  -0.350   0.000  0.00  0.00    +0.000 C 
BRANCH  13  14
ATOM     14  C   UNL     1       0.716  -0.762   0.000  0.00  0.00    +0.000 C 
BRANCH  14  15
ATOM     15  N   UNL     1       0.712  -1.587   0.000  0.00  0.00    +0.000 NA
BRANCH  15  16
ATOM     16  C   UNL     1      -0.004  -1.996   0.000  0.00  0.00    +0.000 C 
ATOM     17  C   UNL     1      -0.717  -1.579   0.000  0.00  0.00    +0.000 C 
ATOM     18  C   UNL     1      -0.009  -2.821   0.000  0.00  0.00    +0.000 C 
ENDBRANCH  15  16
BRANCH  15  19
ATOM     19  C   UNL     1       1.425  -2.000   0.000  0.00  0.00    +0.000 C 
ATOM     20  C   UNL     1       1.424  -2.825   0.000  0.00  0.00    +0.000 C 
ATOM     21  C   UNL     1       2.139  -1.588   0.000  0.00  0.00    +0.000 C 
ENDBRANCH  15  19
ENDBRANCH  14  15
ENDBRANCH  13  14
ENDBRANCH  12  13
ENDBRANCH   1  12
TORSDOF 9
