REMARK  Name = 
REMARK  3 active torsions:
REMARK  status: ('A' for Active; 'I' for Inactive)
REMARK    1  A    between atoms: O_2  and  C_3
REMARK    2  A    between atoms: C_7  and  C_8
REMARK    3  A    between atoms: N_9  and  C_10
REMARK                            x       y       z     vdW  Elec       q    Type
REMARK                         _______ _______ _______ _____ _____    ______ ____
ROOT
ATOM      1  C   UNL     1       2.268  -0.357   0.000  0.00  0.00    +0.000 A 
ATOM      2  C   UNL     1       2.675   0.357   0.000  0.00  0.00    +0.000 A 
ATOM      3  C   UNL     1       2.268   1.071   0.000  0.00  0.00    +0.000 A 
ATOM      4  C   UNL     1       1.442   1.071   0.000  0.00  0.00    +0.000 A 
ATOM      5  C   UNL     1       1.029   0.357   0.000  0.00  0.00    +0.000 A 
ATOM      6  C   UNL     1       1.442  -0.357   0.000  0.00  0.00    +0.000 A 
ATOM      7  O   UNL     1       1.029  -1.071   0.000  0.00  0.00    +0.000 OA
ENDROOT
BRANCH   1   9
ATOM      8  C   UNL     1       3.501  -1.071   0.000  0.00  0.00    +0.000 C 
ATOM      9  O   UNL     1       2.675  -1.071   0.000  0.00  0.00    +0.000 OA
ENDBRANCH   1   9
BRANCH   5  10
ATOM     10  C   UNL     1       0.203   0.357   0.000  0.00  0.00    +0.000 C 
ATOM     11  N   UNL     1      -0.203  -0.357   0.000  0.00  0.00    +0.000 NA
BRANCH  11  12
ATOM     12  C   UNL     1      -1.029  -0.357   0.000  0.00  0.00    +0.000 A 
ATOM     13  C   UNL     1      -1.442   0.357   0.000  0.00  0.00    +0.000 A 
ATOM     14  C   UNL     1      -2.268   0.357   0.000  0.00  0.00    +0.000 A 
ATOM     15  C   UNL     1      -2.675  -0.357   0.000  0.00  0.00    +0.000 A 
ATOM     16  C   UNL     1      -3.501  -0.357   0.000  0.00  0.00    +0.000 C 
ATOM     17  C   UNL     1      -2.268  -1.071   0.000  0.00  0.00    +0.000 A 
ATOM     18  C   UNL     1      -1.442  -1.071   0.000  0.00  0.00    +0.000 A 
ENDBRANCH  11  12
ENDBRANCH   5  10
TORSDOF 3
