REMARK  Name = 
REMARK  8 active torsions:
REMARK  status: ('A' for Active; 'I' for Inactive)
REMARK    1  A    between atoms: C_2  and  C_4
REMARK    2  A    between atoms: C_4  and  O_5
REMARK    3  A    between atoms: O_5  and  C_6
REMARK    4  A    between atoms: C_9  and  C_10
REMARK    5  A    between atoms: C_10  and  N_11
REMARK    6  A    between atoms: N_14  and  C_15
REMARK    7  A    between atoms: N_14  and  C_23
REMARK    8  A    between atoms: C_15  and  C_16
REMARK                            x       y       z     vdW  Elec       q    Type
REMARK                         _______ _______ _______ _____ _____    ______ ____
ROOT
ATOM      1  N   UNL     1       0.000   1.031   0.000  0.00  0.00    +0.000 NA
ATOM      2  C   UNL     1       0.714   1.444   0.000  0.00  0.00    +0.000 C 
ATOM      3  O   UNL     1       0.714   2.269   0.000  0.00  0.00    +0.000 OA
ATOM      4  N   UNL     1       1.429   1.031   0.000  0.00  0.00    +0.000 N 
ENDROOT
BRANCH   4   5
ATOM      5  C   UNL     1       1.429   0.206   0.000  0.00  0.00    +0.000 C 
ATOM      6  C   UNL     1       2.143  -0.206   0.000  0.00  0.00    +0.000 C 
ATOM      7  C   UNL     1       2.143  -1.031   0.000  0.00  0.00    +0.000 C 
ATOM      8  N   UNL     1       1.429  -1.444   0.000  0.00  0.00    +0.000 NA
ATOM      9  C   UNL     1       1.429  -2.269   0.000  0.00  0.00    +0.000 C 
ATOM     10  C   UNL     1       0.714  -1.031   0.000  0.00  0.00    +0.000 C 
ATOM     11  C   UNL     1       0.714  -0.206   0.000  0.00  0.00    +0.000 C 
ENDBRANCH   4   5
BRANCH   4  12
ATOM     12  C   UNL     1       2.143   1.444   0.000  0.00  0.00    +0.000 C 
BRANCH  12  13
ATOM     13  C   UNL     1       2.858   1.031   0.000  0.00  0.00    +0.000 A 
ATOM     14  C   UNL     1       3.572   1.444   0.000  0.00  0.00    +0.000 A 
ATOM     15  C   UNL     1       4.287   1.031   0.000  0.00  0.00    +0.000 A 
ATOM     16  C   UNL     1       4.287   0.206   0.000  0.00  0.00    +0.000 A 
ATOM     17  F   UNL     1       5.001  -0.206   0.000  0.00  0.00    +0.000 F 
ATOM     18  C   UNL     1       3.572  -0.206   0.000  0.00  0.00    +0.000 A 
ATOM     19  C   UNL     1       2.858   0.206   0.000  0.00  0.00    +0.000 A 
ENDBRANCH  12  13
ENDBRANCH   4  12
BRANCH   1  20
ATOM     20  C   UNL     1      -0.715   1.444   0.000  0.00  0.00    +0.000 C 
BRANCH  20  24
ATOM     21  C   UNL     1      -2.858   0.206   0.000  0.00  0.00    +0.000 A 
ATOM     22  C   UNL     1      -2.858   1.031   0.000  0.00  0.00    +0.000 A 
ATOM     23  C   UNL     1      -2.143   1.444   0.000  0.00  0.00    +0.000 A 
ATOM     24  C   UNL     1      -1.429   1.031   0.000  0.00  0.00    +0.000 A 
ATOM     25  C   UNL     1      -1.429   0.206   0.000  0.00  0.00    +0.000 A 
ATOM     26  C   UNL     1      -2.143  -0.206   0.000  0.00  0.00    +0.000 A 
BRANCH  21  27
ATOM     27  O   UNL     1      -3.572  -0.206   0.000  0.00  0.00    +0.000 OA
BRANCH  27  28
ATOM     28  C   UNL     1      -3.572  -1.031   0.000  0.00  0.00    +0.000 C 
BRANCH  28  30
ATOM     29  C   UNL     1      -4.287  -2.269   0.000  0.00  0.00    +0.000 C 
ATOM     30  C   UNL     1      -4.287  -1.444   0.000  0.00  0.00    +0.000 C 
ATOM     31  C   UNL     1      -5.001  -1.031   0.000  0.00  0.00    +0.000 C 
ENDBRANCH  28  30
ENDBRANCH  27  28
ENDBRANCH  21  27
ENDBRANCH  20  24
ENDBRANCH   1  20
TORSDOF 8
