REMARK  Name = 
REMARK  9 active torsions:
REMARK  status: ('A' for Active; 'I' for Inactive)
REMARK    1  A    between atoms: CA_1  and  C_2
REMARK    2  A    between atoms: CA_1  and  N_5
REMARK    3  A    between atoms: C_7  and  C_8
REMARK    4  A    between atoms: C_8  and  C_10
REMARK    5  A    between atoms: C_10  and  C_11
REMARK    6  A    between atoms: C_11  and  P_12
REMARK    7  A    between atoms: P_12  and  O_13
REMARK    8  A    between atoms: O_13  and  C_14
REMARK    9  A    between atoms: C_17  and  N_22
REMARK                            x       y       z     vdW  Elec       q    Type
REMARK                         _______ _______ _______ _____ _____    ______ ____
ROOT
ATOM      1  P   UNK A   0      -0.715   0.412   0.000  0.00  0.00    +0.000 P 
ATOM      2  O   UNK A   0      -0.715  -0.412   0.000  0.00  0.00    +0.000 OA
ATOM      3  O   UNK A   0      -0.928   1.209   0.000  0.00  0.00    +0.000 OA
ENDROOT
BRANCH   1   4
ATOM      4  O   UNK A   0      -1.429   0.825   0.000  0.00  0.00    +0.000 OA
BRANCH   4   5
ATOM      5  C   UNK A   0      -2.143   0.412   0.000  0.00  0.00    +0.000 A 
ATOM      6  C   UNK A   0      -2.858   0.825   0.000  0.00  0.00    +0.000 A 
ATOM      7  C   UNK A   0      -3.572   0.412   0.000  0.00  0.00    +0.000 A 
ATOM      8  C   UNK A   0      -3.572  -0.413   0.000  0.00  0.00    +0.000 A 
ATOM      9  C   UNK A   0      -2.858  -0.825   0.000  0.00  0.00    +0.000 A 
ATOM     10  C   UNK A   0      -2.143  -0.413   0.000  0.00  0.00    +0.000 A 
BRANCH   8  11
ATOM     11  N   UNK A   0      -4.287  -0.825   0.000  0.00  0.00    +0.000 N 
ATOM     12  O   UNK A   0      -4.287  -1.650   0.000  0.00  0.00    +0.000 OA
ATOM     13  O   UNK A   0      -5.001  -0.412   0.000  0.00  0.00    +0.000 OA
ENDBRANCH   8  11
ENDBRANCH   4   5
ENDBRANCH   1   4
BRANCH   1  14
ATOM     14  C   UNK A   0       0.000   0.825   0.000  0.00  0.00    +0.000 C 
BRANCH  14  15
ATOM     15  C   UNK A   0       0.714   0.412   0.000  0.00  0.00    +0.000 C 
BRANCH  15  16
ATOM     16  C   UNK A   0       1.429   0.825   0.000  0.00  0.00    +0.000 C 
BRANCH  16  18
ATOM     17  N   ALA A   1       2.858   0.825   0.000  0.00  0.00    +0.000 NA
ATOM     18  C   UNK A   0       2.143   0.412   0.000  0.00  0.00    +0.000 C 
ATOM     19  O   UNK A   0       2.143  -0.412   0.000  0.00  0.00    +0.000 OA
BRANCH  17  20
ATOM     20  CA  ALA A   1       3.572   0.412   0.000  0.00  0.00    +0.000 C 
ATOM     21  CB  ALA A   1       3.572  -0.412   0.000  0.00  0.00    +0.000 C 
BRANCH  20  22
ATOM     22  C   ALA A   1       4.287   0.825   0.000  0.00  0.00    +0.000 C 
ATOM     23  O   ALA A   1       5.001   0.412   0.000  0.00  0.00    +0.000 OA
ATOM     24  OXT ALA A   1       4.287   1.650   0.000  0.00  0.00    +0.000 OA
ENDBRANCH  20  22
ENDBRANCH  17  20
ENDBRANCH  16  18
ENDBRANCH  15  16
ENDBRANCH  14  15
ENDBRANCH   1  14
TORSDOF 9
