REMARK  Name = 
REMARK  11 active torsions:
REMARK  status: ('A' for Active; 'I' for Inactive)
REMARK    1  A    between atoms: C_7  and  C_20
REMARK    2  A    between atoms: C_8  and  C_21
REMARK    3  A    between atoms: C_9  and  C_11
REMARK    4  A    between atoms: C_9  and  C_22
REMARK    5  A    between atoms: C_10  and  C_12
REMARK    6  A    between atoms: C_10  and  C_23
REMARK    7  A    between atoms: C_11  and  C_30
REMARK    8  A    between atoms: C_12  and  C_31
REMARK    9  A    between atoms: C_13  and  C_24
REMARK   10  A    between atoms: C_14  and  C_28
REMARK   11  A    between atoms: C_15  and  C_27
REMARK                            x       y       z     vdW  Elec       q    Type
REMARK                         _______ _______ _______ _____ _____    ______ ____
ROOT
ATOM      1  C   UNL     1      -3.928   2.961   0.000  0.00  0.00    +0.000 C 
ATOM      2  C   UNL     1      -2.172   2.588   0.000  0.00  0.00    +0.000 C 
ATOM      3  C   UNL     1      -3.624   0.073   0.000  0.00  0.00    +0.000 C 
ATOM      4  C   UNL     1      -3.592   2.208   0.000  0.00  0.00    +0.000 A 
ATOM      5  C   UNL     1      -4.005   1.493   0.000  0.00  0.00    +0.000 A 
ATOM      6  C   UNL     1      -2.785   2.036   0.000  0.00  0.00    +0.000 A 
ATOM      7  C   UNL     1      -3.453   0.880   0.000  0.00  0.00    +0.000 A 
ATOM      8  N   UNL     1      -2.699   1.216   0.000  0.00  0.00    +0.000 NA
ENDROOT
BRANCH   3  12
ATOM      9  C   UNL     1      -3.812  -1.712   0.000  0.00  0.00    +0.000 C 
ATOM     10  C   UNL     1      -3.098  -1.299   0.000  0.00  0.00    +0.000 C 
ATOM     11  C   UNL     1      -2.344  -1.635   0.000  0.00  0.00    +0.000 C 
ATOM     12  C   UNL     1      -3.011  -0.479   0.000  0.00  0.00    +0.000 C 
ATOM     13  C   UNL     1      -1.792  -1.022   0.000  0.00  0.00    +0.000 C 
ATOM     14  N   UNL     1      -2.204  -0.307   0.000  0.00  0.00    +0.000 NA
ATOM     15  O   UNL     1      -0.971  -1.108   0.000  0.00  0.00    +0.000 OA
BRANCH  11  16
ATOM     16  C   UNL     1      -2.172  -2.442   0.000  0.00  0.00    +0.000 C 
BRANCH  16  17
ATOM     17  C   UNL     1      -1.388  -2.697   0.000  0.00  0.00    +0.000 C 
BRANCH  17  18
ATOM     18  C   UNL     1      -1.216  -3.504   0.000  0.00  0.00    +0.000 C 
ATOM     19  O   UNL     1      -1.829  -4.056   0.000  0.00  0.00    +0.000 OA
ATOM     20  O   UNL     1      -0.432  -3.759   0.000  0.00  0.00    +0.000 OA
ENDBRANCH  17  18
ENDBRANCH  16  17
ENDBRANCH  11  16
ENDBRANCH   3  12
BRANCH   2  25
ATOM     21  C   UNL     1       0.732   2.588   0.000  0.00  0.00    +0.000 C 
ATOM     22  C   UNL     1      -0.053   2.333   0.000  0.00  0.00    +0.000 A 
ATOM     23  C   UNL     1      -0.720   2.818   0.000  0.00  0.00    +0.000 A 
ATOM     24  C   UNL     1      -0.308   1.549   0.000  0.00  0.00    +0.000 A 
ATOM     25  C   UNL     1      -1.388   2.333   0.000  0.00  0.00    +0.000 A 
ATOM     26  N   UNL     1      -1.133   1.549   0.000  0.00  0.00    +0.000 NA
BRANCH  24  28
ATOM     27  C   UNL     1       1.378  -0.453   0.000  0.00  0.00    +0.000 C 
ATOM     28  C   UNL     1       0.177   0.881   0.000  0.00  0.00    +0.000 C 
ATOM     29  C   UNL     1       1.550   0.354   0.000  0.00  0.00    +0.000 C 
ATOM     30  C   UNL     1       2.303   0.690   0.000  0.00  0.00    +0.000 C 
ATOM     31  C   UNL     1       0.997   0.968   0.000  0.00  0.00    +0.000 C 
ATOM     32  C   UNL     1       2.217   1.510   0.000  0.00  0.00    +0.000 C 
ATOM     33  N   UNL     1       1.410   1.682   0.000  0.00  0.00    +0.000 NA
ATOM     34  O   UNL     1       2.830   2.062   0.000  0.00  0.00    +0.000 OA
BRANCH  30  35
ATOM     35  C   UNL     1       3.018   0.277   0.000  0.00  0.00    +0.000 C 
BRANCH  35  36
ATOM     36  C   UNL     1       3.732   0.690   0.000  0.00  0.00    +0.000 C 
BRANCH  36  37
ATOM     37  C   UNL     1       4.447   0.277   0.000  0.00  0.00    +0.000 C 
ATOM     38  O   UNL     1       5.161   0.690   0.000  0.00  0.00    +0.000 OA
ATOM     39  O   UNL     1       4.447  -0.547   0.000  0.00  0.00    +0.000 OA
ENDBRANCH  36  37
ENDBRANCH  35  36
ENDBRANCH  30  35
ENDBRANCH  24  28
BRANCH  23  41
ATOM     40  C   UNL     1      -1.435   4.056   0.000  0.00  0.00    +0.000 C 
ATOM     41  C   UNL     1      -0.720   3.643   0.000  0.00  0.00    +0.000 C 
ENDBRANCH  23  41
ENDBRANCH   2  25
BRANCH   5  43
ATOM     42  C   UNL     1      -5.161   0.653   0.000  0.00  0.00    +0.000 C 
ATOM     43  C   UNL     1      -4.825   1.407   0.000  0.00  0.00    +0.000 C 
ENDBRANCH   5  43
TORSDOF 11
