REMARK  Name = 
REMARK  9 active torsions:
REMARK  status: ('A' for Active; 'I' for Inactive)
REMARK    1  A    between atoms: C_2  and  N_3
REMARK    2  A    between atoms: N_3  and  C_4
REMARK    3  A    between atoms: N_3  and  C_6
REMARK    4  A    between atoms: C_6  and  C_7
REMARK    5  A    between atoms: C_7  and  C_8
REMARK    6  A    between atoms: C_8  and  O_9
REMARK    7  A    between atoms: O_9  and  C_10
REMARK    8  A    between atoms: C_10  and  C_12
REMARK    9  A    between atoms: C_12  and  C_19
REMARK                            x       y       z     vdW  Elec       q    Type
REMARK                         _______ _______ _______ _____ _____    ______ ____
ROOT
ATOM      1  C   UNL     1       0.575  -2.865   0.000  0.00  0.00    +0.000 C 
ATOM      2  C   UNL     1       0.869  -3.636   0.000  0.00  0.00    +0.000 C 
ATOM      3  C   UNL     1       1.683  -3.766   0.000  0.00  0.00    +0.000 C 
ATOM      4  C   UNL     1       2.204  -3.126   0.000  0.00  0.00    +0.000 C 
ATOM      5  C   UNL     1       1.910  -2.356   0.000  0.00  0.00    +0.000 C 
ATOM      6  C   UNL     1       1.095  -2.225   0.000  0.00  0.00    +0.000 C 
ATOM      7  C   UNL     1       1.196  -3.069   0.000  0.00  0.00    +0.000 C 
ENDROOT
BRANCH   1   8
ATOM      8  C   UNL     1      -0.133  -3.289   0.000  0.00  0.00    +0.000 A 
ATOM      9  C   UNL     1      -0.120  -4.114   0.000  0.00  0.00    +0.000 A 
ATOM     10  C   UNL     1      -0.829  -4.537   0.000  0.00  0.00    +0.000 A 
ATOM     11  C   UNL     1      -1.549  -4.136   0.000  0.00  0.00    +0.000 A 
ATOM     12  C   UNL     1      -1.562  -3.311   0.000  0.00  0.00    +0.000 A 
ATOM     13  C   UNL     1      -0.854  -2.887   0.000  0.00  0.00    +0.000 A 
ENDBRANCH   1   8
BRANCH   1  14
ATOM     14  C   UNL     1       0.035  -2.241   0.000  0.00  0.00    +0.000 C 
ATOM     15  O   UNL     1       0.304  -1.462   0.000  0.00  0.00    +0.000 OA
BRANCH  14  16
ATOM     16  O   UNL     1      -0.776  -2.397   0.000  0.00  0.00    +0.000 OA
BRANCH  16  17
ATOM     17  C   UNL     1      -1.316  -1.774   0.000  0.00  0.00    +0.000 C 
BRANCH  17  18
ATOM     18  C   UNL     1      -2.126  -1.930   0.000  0.00  0.00    +0.000 C 
BRANCH  18  19
ATOM     19  C   UNL     1      -2.666  -1.306   0.000  0.00  0.00    +0.000 C 
BRANCH  19  20
ATOM     20  N   UNL     1      -3.476  -1.462   0.000  0.00  0.00    +0.000 NA
BRANCH  20  21
ATOM     21  C   UNL     1      -3.746  -2.241   0.000  0.00  0.00    +0.000 C 
ATOM     22  C   UNL     1      -4.556  -2.397   0.000  0.00  0.00    +0.000 C 
ENDBRANCH  20  21
BRANCH  20  24
ATOM     23  C   UNL     1      -4.826  -0.994   0.000  0.00  0.00    +0.000 C 
ATOM     24  C   UNL     1      -4.016  -0.838   0.000  0.00  0.00    +0.000 C 
ENDBRANCH  20  24
ENDBRANCH  19  20
ENDBRANCH  18  19
ENDBRANCH  17  18
ENDBRANCH  16  17
ENDBRANCH  14  16
ENDBRANCH   1  14
TORSDOF 9
