REMARK  Name = 
REMARK  3 active torsions:
REMARK  status: ('A' for Active; 'I' for Inactive)
REMARK    1  A    between atoms: C_3  and  C_5
REMARK    2  A    between atoms: C_5  and  C_8
REMARK    3  A    between atoms: C_15  and  C_16
REMARK                            x       y       z     vdW  Elec       q    Type
REMARK                         _______ _______ _______ _____ _____    ______ ____
ROOT
ATOM      1  O   UNL     1       1.673  -1.203   0.000  0.00  0.00    +0.000 OA
ATOM      2  C   UNL     1       1.419  -0.423   0.000  0.00  0.00    +0.000 C 
ATOM      3  C   UNL     1       1.906   0.243   0.000  0.00  0.00    +0.000 C 
ATOM      4  O   UNL     1       1.419   0.916   0.000  0.00  0.00    +0.000 OA
ATOM      5  C   UNL     1       0.633   0.656   0.000  0.00  0.00    +0.000 C 
ATOM      6  O   UNL     1      -0.033   1.143   0.000  0.00  0.00    +0.000 OA
ATOM      7  C   UNL     1       0.633  -0.163   0.000  0.00  0.00    +0.000 C 
ATOM      8  O   UNL     1      -0.033  -0.650   0.000  0.00  0.00    +0.000 OA
ENDROOT
BRANCH   3   9
ATOM      9  C   UNL     1       2.619   0.656   0.000  0.00  0.00    +0.000 C 
ATOM     10  O   UNL     1       2.206   1.376   0.000  0.00  0.00    +0.000 OA
BRANCH   9  11
ATOM     11  C   UNL     1       3.332   1.069   0.000  0.00  0.00    +0.000 C 
ATOM     12  O   UNL     1       3.332   1.896   0.000  0.00  0.00    +0.000 OA
ENDBRANCH   9  11
ENDBRANCH   3   9
TORSDOF 2
REMARK  Name = 
REMARK  3 active torsions:
REMARK  status: ('A' for Active; 'I' for Inactive)
REMARK    1  A    between atoms: C_3  and  C_5
REMARK    2  A    between atoms: C_5  and  C_8
REMARK    3  A    between atoms: C_15  and  C_16
REMARK                            x       y       z     vdW  Elec       q    Type
REMARK                         _______ _______ _______ _____ _____    ______ ____
ROOT
ATOM      1  C   UNL     1      -2.092  -0.470   0.000  0.00  0.00    +0.000 A 
ATOM      2  C   UNL     1      -1.686   0.243   0.000  0.00  0.00    +0.000 A 
ATOM      3  C   UNL     1      -2.092   0.963   0.000  0.00  0.00    +0.000 A 
ATOM      4  C   UNL     1      -2.918   0.963   0.000  0.00  0.00    +0.000 A 
ATOM      5  N   UNL     1      -3.332   0.243   0.000  0.00  0.00    +0.000 NA
ATOM      6  C   UNL     1      -2.918  -0.470   0.000  0.00  0.00    +0.000 A 
ENDROOT
BRANCH   1   7
ATOM      7  C   UNL     1      -1.686  -1.183   0.000  0.00  0.00    +0.000 C 
ATOM      8  O   UNL     1      -2.092  -1.896   0.000  0.00  0.00    +0.000 OA
ATOM      9  N   UNL     1      -0.860  -1.183   0.000  0.00  0.00    +0.000 NA
ENDBRANCH   1   7
TORSDOF 1
