REMARK  Name = 
REMARK  0 active torsions:
REMARK  status: ('A' for Active; 'I' for Inactive)
REMARK                            x       y       z     vdW  Elec       q    Type
REMARK                         _______ _______ _______ _____ _____    ______ ____
ROOT
ATOM      1  C   UNL     1      -0.011  -0.556   0.000  0.00  0.00    +0.000 A 
ATOM      2  C   UNL     1      -0.011  -1.381   0.000  0.00  0.00    +0.000 A 
ATOM      3  C   UNL     1      -0.726  -0.143   0.000  0.00  0.00    +0.000 A 
ATOM      4  C   UNL     1      -0.726  -1.793   0.000  0.00  0.00    +0.000 A 
ATOM      5  C   UNL     1      -1.440  -0.556   0.000  0.00  0.00    +0.000 A 
ATOM      6  C   UNL     1      -1.440  -1.381   0.000  0.00  0.00    +0.000 A 
ATOM      7  C   UNL     1       1.418  -0.556   0.000  0.00  0.00    +0.000 C 
ATOM      8  C   UNL     1       1.418  -1.381   0.000  0.00  0.00    +0.000 C 
ATOM      9  C   UNL     1       0.703  -0.143   0.000  0.00  0.00    +0.000 C 
ATOM     10  O   UNL     1       0.703  -1.793   0.000  0.00  0.00    +0.000 OA
ATOM     11  N   UNL     1       0.035   0.341   0.000  0.00  0.00    +0.000 NA
ATOM     12  C   UNL     1       0.289   1.126   0.000  0.00  0.00    +0.000 C 
ATOM     13  C   UNL     1       1.370   0.342   0.000  0.00  0.00    +0.000 C 
ATOM     14  N   UNL     1       1.114   1.127   0.000  0.00  0.00    +0.000 NA
ATOM     15  O   UNL     1      -0.196   1.793   0.000  0.00  0.00    +0.000 OA
ATOM     16  O   UNL     1       2.155   0.088   0.000  0.00  0.00    +0.000 OA
ATOM     17  F   UNL     1      -2.155  -0.143   0.000  0.00  0.00    +0.000 F 
ENDROOT
TORSDOF 0
