REMARK  Name = 
REMARK  4 active torsions:
REMARK  status: ('A' for Active; 'I' for Inactive)
REMARK    1  A    between atoms: C_1  and  N_2
REMARK    2  A    between atoms: N_8  and  C_11
REMARK    3  A    between atoms: C_10  and  N_12
REMARK    4  A    between atoms: C_19  and  N_20
REMARK                            x       y       z     vdW  Elec       q    Type
REMARK                         _______ _______ _______ _____ _____    ______ ____
ROOT
ATOM      1  N   UNL     1      -3.422   1.196   0.000  0.00  0.00    +0.000 NA
ATOM      2  C   UNL     1      -2.707   0.788   0.000  0.00  0.00    +0.000 C 
ATOM      3  N   UNL     1      -1.992   1.204   0.000  0.00  0.00    +0.000 NA
ATOM      4  O   UNL     1      -2.707  -0.037   0.000  0.00  0.00    +0.000 OA
ENDROOT
BRANCH   1   5
ATOM      5  C   UNL     1      -4.133   0.784   0.000  0.00  0.00    +0.000 A 
ATOM      6  C   UNL     1      -4.133  -0.049   0.000  0.00  0.00    +0.000 A 
ATOM      7  C   UNL     1      -4.852   1.192   0.000  0.00  0.00    +0.000 A 
ATOM      8  C   UNL     1      -4.848  -0.462   0.000  0.00  0.00    +0.000 A 
ATOM      9  C   UNL     1      -5.563   0.780   0.000  0.00  0.00    +0.000 A 
ATOM     10  C   UNL     1      -5.567  -0.049   0.000  0.00  0.00    +0.000 A 
BRANCH  10  11
ATOM     11  N   UNL     1      -6.282  -0.462   0.000  0.00  0.00    +0.000 N 
ATOM     12  O   UNL     1      -6.282  -1.287   0.000  0.00  0.00    +0.000 OA
ATOM     13  O   UNL     1      -6.993  -0.049   0.000  0.00  0.00    +0.000 OA
ENDBRANCH  10  11
ENDBRANCH   1   5
BRANCH   3  14
ATOM     14  C   UNL     1      -1.281   0.792   0.000  0.00  0.00    +0.000 A 
ATOM     15  C   UNL     1      -1.281  -0.033   0.000  0.00  0.00    +0.000 A 
ATOM     16  C   UNL     1      -0.577   1.208   0.000  0.00  0.00    +0.000 A 
ATOM     17  C   UNL     1      -0.570  -0.438   0.000  0.00  0.00    +0.000 A 
ATOM     18  C   UNL     1       0.138   0.799   0.000  0.00  0.00    +0.000 A 
ATOM     19  C   UNL     1       0.141  -0.025   0.000  0.00  0.00    +0.000 A 
BRANCH  19  20
ATOM     20  N   UNL     1       0.860  -0.434   0.000  0.00  0.00    +0.000 N 
ATOM     21  O   UNL     1       0.864  -1.263   0.000  0.00  0.00    +0.000 OA
ATOM     22  O   UNL     1       1.575  -0.022   0.000  0.00  0.00    +0.000 OA
ENDBRANCH  19  20
ENDBRANCH   3  14
TORSDOF 4
REMARK  Name = 
REMARK  4 active torsions:
REMARK  status: ('A' for Active; 'I' for Inactive)
REMARK    1  A    between atoms: C_1  and  N_2
REMARK    2  A    between atoms: N_8  and  C_11
REMARK    3  A    between atoms: C_10  and  N_12
REMARK    4  A    between atoms: C_19  and  N_20
REMARK                            x       y       z     vdW  Elec       q    Type
REMARK                         _______ _______ _______ _____ _____    ______ ____
ROOT
ATOM      1  C   UNL     1       6.322   0.858   0.000  0.00  0.00    +0.000 A 
ATOM      2  C   UNL     1       6.322  -0.037   0.000  0.00  0.00    +0.000 A 
ATOM      3  N   UNL     1       5.575   1.287   0.000  0.00  0.00    +0.000 NA
ATOM      4  C   UNL     1       6.993   1.161   0.000  0.00  0.00    +0.000 C 
ATOM      5  C   UNL     1       5.575  -0.469   0.000  0.00  0.00    +0.000 A 
ATOM      6  C   UNL     1       4.785   0.858   0.000  0.00  0.00    +0.000 A 
ATOM      7  N   UNL     1       4.785  -0.037   0.000  0.00  0.00    +0.000 NA
ATOM      8  C   UNL     1       5.575  -1.118   0.000  0.00  0.00    +0.000 C 
ATOM      9  O   UNL     1       4.180   1.228   0.000  0.00  0.00    +0.000 OA
ENDROOT
TORSDOF 0
