REMARK  Name = 
REMARK  4 active torsions:
REMARK  status: ('A' for Active; 'I' for Inactive)
REMARK    1  A    between atoms: C_2  and  C_15
REMARK    2  A    between atoms: C_12  and  C_15
REMARK    3  A    between atoms: C_14  and  N_19
REMARK    4  A    between atoms: C_15  and  C_18
REMARK                            x       y       z     vdW  Elec       q    Type
REMARK                         _______ _______ _______ _____ _____    ______ ____
ROOT
ATOM      1  C   UNL     1      -1.409   0.808   0.000  0.00  0.00    +0.000 A 
ATOM      2  C   UNL     1      -1.409   2.237   0.000  0.00  0.00    +0.000 A 
ATOM      3  C   UNL     1      -0.584   0.808   0.000  0.00  0.00    +0.000 A 
ATOM      4  C   UNL     1      -0.584   2.237   0.000  0.00  0.00    +0.000 A 
ATOM      5  C   UNL     1      -1.821   1.523   0.000  0.00  0.00    +0.000 A 
ATOM      6  C   UNL     1      -0.171   1.523   0.000  0.00  0.00    +0.000 A 
ENDROOT
BRANCH   6  15
ATOM      7  C   UNL     1       3.352   1.110   0.000  0.00  0.00    +0.000 A 
ATOM      8  C   UNL     1       3.352   1.935   0.000  0.00  0.00    +0.000 A 
ATOM      9  C   UNL     1       2.638   0.698   0.000  0.00  0.00    +0.000 A 
ATOM     10  C   UNL     1       2.638   2.348   0.000  0.00  0.00    +0.000 A 
ATOM     11  C   UNL     1       1.139   0.856   0.000  0.00  0.00    +0.000 C 
ATOM     12  C   UNL     1       1.923   1.110   0.000  0.00  0.00    +0.000 A 
ATOM     13  C   UNL     1       1.923   1.935   0.000  0.00  0.00    +0.000 A 
ATOM     14  C   UNL     1       1.139   2.190   0.000  0.00  0.00    +0.000 C 
ATOM     15  N   UNL     1       0.654   1.523   0.000  0.00  0.00    +0.000 N 
ATOM     16  O   UNL     1       0.884   2.975   0.000  0.00  0.00    +0.000 OA
ENDBRANCH   6  15
BRANCH   5  17
ATOM     17  C   UNL     1      -2.646   1.523   0.000  0.00  0.00    +0.000 C 
BRANCH  17  18
ATOM     18  C   UNL     1      -3.059   0.808   0.000  0.00  0.00    +0.000 C 
ATOM     19  O   UNL     1      -2.646   0.094   0.000  0.00  0.00    +0.000 OA
ATOM     20  O   UNL     1      -3.884   0.808   0.000  0.00  0.00    +0.000 OA
ENDBRANCH  17  18
BRANCH  17  22
ATOM     21  C   UNL     1      -3.884   2.237   0.000  0.00  0.00    +0.000 C 
ATOM     22  C   UNL     1      -3.059   2.237   0.000  0.00  0.00    +0.000 C 
ENDBRANCH  17  22
ENDBRANCH   5  17
TORSDOF 4
