REMARK  Name = 
REMARK  11 active torsions:
REMARK  status: ('A' for Active; 'I' for Inactive)
REMARK    1  A    between atoms: C_4  and  O_30
REMARK    2  A    between atoms: C_7  and  C_8
REMARK    3  A    between atoms: C_12  and  C_14
REMARK    4  A    between atoms: C_14  and  O_15
REMARK    5  A    between atoms: O_15  and  C_16
REMARK    6  A    between atoms: C_24  and  C_25
REMARK    7  A    between atoms: C_25  and  C_26
REMARK    8  A    between atoms: O_30  and  C_31
REMARK    9  A    between atoms: C_31  and  C_32
REMARK   10  A    between atoms: C_32  and  C_33
REMARK   11  A    between atoms: C_33  and  S_34
REMARK                            x       y       z     vdW  Elec       q    Type
REMARK                         _______ _______ _______ _____ _____    ______ ____
ROOT
ATOM      1  C   UNL     1       5.496   4.823   0.000  0.00  0.00    +0.000 A 
ATOM      2  C   UNL     1       6.210   4.410   0.000  0.00  0.00    +0.000 A 
ATOM      3  C   UNL     1       6.210   3.585   0.000  0.00  0.00    +0.000 A 
ATOM      4  C   UNL     1       5.496   3.173   0.000  0.00  0.00    +0.000 A 
ATOM      5  C   UNL     1       4.781   3.585   0.000  0.00  0.00    +0.000 A 
ATOM      6  C   UNL     1       4.781   4.410   0.000  0.00  0.00    +0.000 A 
ENDROOT
BRANCH   1  13
ATOM      7  C   UNL     1       4.067   5.648   0.000  0.00  0.00    +0.000 C 
ATOM      8  C   UNL     1       4.781   6.060   0.000  0.00  0.00    +0.000 A 
ATOM      9  C   UNL     1       4.781   6.885   0.000  0.00  0.00    +0.000 A 
ATOM     10  C   UNL     1       5.496   7.298   0.000  0.00  0.00    +0.000 A 
ATOM     11  C   UNL     1       6.210   6.885   0.000  0.00  0.00    +0.000 A 
ATOM     12  C   UNL     1       6.210   6.060   0.000  0.00  0.00    +0.000 A 
ATOM     13  C   UNL     1       5.496   5.648   0.000  0.00  0.00    +0.000 A 
ATOM     14  C   UNL     1       6.925   5.648   0.000  0.00  0.00    +0.000 C 
BRANCH  10  15
ATOM     15  O   UNL     1       5.496   8.123   0.000  0.00  0.00    +0.000 OA
BRANCH  15  16
ATOM     16  C   UNL     1       6.210   8.535   0.000  0.00  0.00    +0.000 C 
BRANCH  16  17
ATOM     17  C   UNL     1       6.210   9.360   0.000  0.00  0.00    +0.000 C 
BRANCH  17  18
ATOM     18  C   UNL     1       6.925   9.773   0.000  0.00  0.00    +0.000 C 
BRANCH  18  19
ATOM     19  S   UNL     1       6.925  10.598   0.000  0.00  0.00    +0.000 S 
ATOM     20  O   UNL     1       6.925  11.423   0.000  0.00  0.00    +0.000 OA
ATOM     21  O   UNL     1       7.750  10.598   0.000  0.00  0.00    +0.000 OA
ATOM     22  C   UNL     1       6.100  10.598   0.000  0.00  0.00    +0.000 C 
ENDBRANCH  18  19
ENDBRANCH  17  18
ENDBRANCH  16  17
ENDBRANCH  15  16
ENDBRANCH  10  15
ENDBRANCH   1  13
BRANCH   5  23
ATOM     23  C   UNL     1       4.067   3.173   0.000  0.00  0.00    +0.000 C 
BRANCH  23  24
ATOM     24  O   UNL     1       4.067   2.348   0.000  0.00  0.00    +0.000 OA
BRANCH  24  25
ATOM     25  C   UNL     1       3.352   1.935   0.000  0.00  0.00    +0.000 A 
ATOM     26  C   UNL     1       3.352   1.110   0.000  0.00  0.00    +0.000 A 
ATOM     27  C   UNL     1       2.638   0.698   0.000  0.00  0.00    +0.000 A 
ATOM     28  C   UNL     1       1.923   1.110   0.000  0.00  0.00    +0.000 A 
ATOM     29  C   UNL     1       1.923   1.935   0.000  0.00  0.00    +0.000 A 
ATOM     30  C   UNL     1       2.638   2.348   0.000  0.00  0.00    +0.000 A 
ATOM     31  O   UNL     1       1.139   2.190   0.000  0.00  0.00    +0.000 OA
ATOM     32  C   UNL     1       0.654   1.523   0.000  0.00  0.00    +0.000 C 
ATOM     33  C   UNL     1       1.139   0.856   0.000  0.00  0.00    +0.000 C 
BRANCH  33  34
ATOM     34  C   UNL     1       0.884   0.071   0.000  0.00  0.00    +0.000 C 
BRANCH  34  35
ATOM     35  C   UNL     1       0.077  -0.101   0.000  0.00  0.00    +0.000 C 
ATOM     36  O   UNL     1      -0.178  -0.885   0.000  0.00  0.00    +0.000 OA
ATOM     37  O   UNL     1      -0.475   0.512   0.000  0.00  0.00    +0.000 OA
ENDBRANCH  34  35
ENDBRANCH  33  34
ENDBRANCH  24  25
ENDBRANCH  23  24
ENDBRANCH   5  23
TORSDOF 11
