REMARK  Name = 
REMARK  16 active torsions:
REMARK  status: ('A' for Active; 'I' for Inactive)
REMARK    1  A    between atoms: O_4  and  C_27
REMARK    2  A    between atoms: O_4  and  C_34
REMARK    3  A    between atoms: N_8  and  C_11
REMARK    4  A    between atoms: N_9  and  C_21
REMARK    5  A    between atoms: N_10  and  C_14
REMARK    6  A    between atoms: C_11  and  C_12
REMARK    7  A    between atoms: C_11  and  C_18
REMARK    8  A    between atoms: C_12  and  C_13
REMARK    9  A    between atoms: C_14  and  C_15
REMARK   10  A    between atoms: C_14  and  C_17
REMARK   11  A    between atoms: C_15  and  C_16
REMARK   12  A    between atoms: C_21  and  C_24
REMARK   13  A    between atoms: C_21  and  C_25
REMARK   14  A    between atoms: C_24  and  C_26
REMARK   15  A    between atoms: C_25  and  C_28
REMARK   16  A    between atoms: C_34  and  C_35
REMARK                            x       y       z     vdW  Elec       q    Type
REMARK                         _______ _______ _______ _____ _____    ______ ____
ROOT
ATOM      1  C   UNL     1      -1.786   1.650   0.000  0.00  0.00    +0.000 C 
ENDROOT
BRANCH   1   4
ATOM      2  O   UNL     1      -1.072   0.412   0.000  0.00  0.00    +0.000 OA
ATOM      3  N   UNL     1      -2.501   0.412   0.000  0.00  0.00    +0.000 N 
ATOM      4  C   UNL     1      -1.786   0.825   0.000  0.00  0.00    +0.000 C 
ATOM      5  H   UNL     1      -2.944   0.668   0.000  0.00  0.00    +0.000 HD
BRANCH   3   6
ATOM      6  C   UNL     1      -2.501  -0.412   0.000  0.00  0.00    +0.000 C 
BRANCH   6   8
ATOM      7  O   UNL     1      -1.786  -1.650   0.000  0.00  0.00    +0.000 OA
ATOM      8  C   UNL     1      -1.786  -0.825   0.000  0.00  0.00    +0.000 C 
BRANCH   8  10
ATOM      9  F   UNL     1      -0.357  -0.825   0.000  0.00  0.00    +0.000 F 
ATOM     10  C   UNL     1      -1.072  -0.412   0.000  0.00  0.00    +0.000 C 
ENDBRANCH   8  10
ENDBRANCH   6   8
BRANCH   6  11
ATOM     11  C   UNL     1      -3.215  -0.825   0.000  0.00  0.00    +0.000 C 
BRANCH  11  13
ATOM     12  O   UNL     1      -3.215  -4.125   0.000  0.00  0.00    +0.000 OA
ATOM     13  C   UNL     1      -3.215  -1.650   0.000  0.00  0.00    +0.000 A 
ATOM     14  C   UNL     1      -2.501  -2.062   0.000  0.00  0.00    +0.000 A 
ATOM     15  C   UNL     1      -3.930  -2.062   0.000  0.00  0.00    +0.000 A 
ATOM     16  C   UNL     1      -2.501  -2.888   0.000  0.00  0.00    +0.000 A 
ATOM     17  C   UNL     1      -3.930  -2.888   0.000  0.00  0.00    +0.000 A 
ATOM     18  C   UNL     1      -3.215  -3.300   0.000  0.00  0.00    +0.000 A 
ENDBRANCH  11  13
ENDBRANCH   6  11
ENDBRANCH   3   6
ENDBRANCH   1   4
BRANCH   1  20
ATOM     19  O   UNL     1      -0.357   0.825   0.000  0.00  0.00    +0.000 OA
ATOM     20  N   UNL     1      -1.072   2.062   0.000  0.00  0.00    +0.000 N 
ATOM     21  C   UNL     1      -0.357   1.650   0.000  0.00  0.00    +0.000 C 
ATOM     22  H   UNL     1      -1.072   2.574   0.000  0.00  0.00    +0.000 HD
BRANCH  21  23
ATOM     23  C   UNL     1       0.357   2.062   0.000  0.00  0.00    +0.000 C 
BRANCH  23  25
ATOM     24  O   UNL     1       0.357   0.412   0.000  0.00  0.00    +0.000 OA
ATOM     25  N   UNL     1       1.072   1.650   0.000  0.00  0.00    +0.000 N 
ATOM     26  C   UNL     1       1.072   0.825   0.000  0.00  0.00    +0.000 C 
ATOM     27  H   UNL     1       1.515   1.906   0.000  0.00  0.00    +0.000 HD
BRANCH  26  28
ATOM     28  O   UNL     1       1.786   0.412   0.000  0.00  0.00    +0.000 OA
BRANCH  28  29
ATOM     29  C   UNL     1       1.786  -0.412   0.000  0.00  0.00    +0.000 C 
BRANCH  29  30
ATOM     30  C   UNL     1       2.501  -0.825   0.000  0.00  0.00    +0.000 A 
ATOM     31  C   UNL     1       3.215  -0.412   0.000  0.00  0.00    +0.000 A 
ATOM     32  C   UNL     1       2.501  -1.650   0.000  0.00  0.00    +0.000 A 
ATOM     33  C   UNL     1       3.930  -0.825   0.000  0.00  0.00    +0.000 A 
ATOM     34  C   UNL     1       3.215  -2.062   0.000  0.00  0.00    +0.000 A 
ATOM     35  C   UNL     1       3.930  -1.650   0.000  0.00  0.00    +0.000 A 
ENDBRANCH  29  30
ENDBRANCH  28  29
ENDBRANCH  26  28
ENDBRANCH  23  25
BRANCH  23  36
ATOM     36  C   UNL     1       0.357   2.888   0.000  0.00  0.00    +0.000 C 
BRANCH  36  37
ATOM     37  C   UNL     1       1.072   3.300   0.000  0.00  0.00    +0.000 C 
ATOM     38  C   UNL     1       1.786   2.888   0.000  0.00  0.00    +0.000 C 
ATOM     39  C   UNL     1       1.072   4.125   0.000  0.00  0.00    +0.000 C 
ENDBRANCH  36  37
ENDBRANCH  23  36
ENDBRANCH  21  23
ENDBRANCH   1  20
BRANCH   1  40
ATOM     40  C   UNL     1      -2.501   2.062   0.000  0.00  0.00    +0.000 C 
BRANCH  40  41
ATOM     41  C   UNL     1      -2.501   2.888   0.000  0.00  0.00    +0.000 C 
ATOM     42  C   UNL     1      -1.786   3.300   0.000  0.00  0.00    +0.000 C 
ATOM     43  C   UNL     1      -3.215   3.300   0.000  0.00  0.00    +0.000 C 
ENDBRANCH  40  41
ENDBRANCH   1  40
TORSDOF 16
