REMARK  Name = 
REMARK  12 active torsions:
REMARK  status: ('A' for Active; 'I' for Inactive)
REMARK    1  A    between atoms: C_6  and  C_12
REMARK    2  A    between atoms: C_7  and  C_11
REMARK    3  A    between atoms: C_7  and  C_13
REMARK    4  A    between atoms: C_8  and  C_11
REMARK    5  A    between atoms: C_9  and  C_14
REMARK    6  A    between atoms: C_11  and  C_42
REMARK    7  A    between atoms: C_12  and  C_19
REMARK    8  A    between atoms: C_12  and  C_40
REMARK    9  A    between atoms: C_13  and  C_16
REMARK   10  A    between atoms: C_14  and  C_16
REMARK   11  A    between atoms: C_15  and  C_20
REMARK   12  A    between atoms: C_26  and  C_46
REMARK                            x       y       z     vdW  Elec       q    Type
REMARK                         _______ _______ _______ _____ _____    ______ ____
ROOT
ATOM      1  C   UNL     1       0.535  -1.070   0.000  0.00  0.00    +0.000 C 
ATOM      2  C   UNL     1       1.987  -0.981   0.000  0.00  0.00    +0.000 C 
ATOM      3  O   UNL     1       1.243  -0.639   0.000  0.00  0.00    +0.000 OA
ATOM      4  O   UNL     1      -0.193  -1.481   0.000  0.00  0.00    +0.000 OA
ATOM      5  C   UNL     1      -0.874  -1.118   0.000  0.00  0.00    +0.000 C 
ATOM      6  O   UNL     1       2.786  -1.257   0.000  0.00  0.00    +0.000 OA
ATOM      7  C   UNL     1       3.343  -0.596   0.000  0.00  0.00    +0.000 C 
ATOM      8  C   UNL     1       0.642  -1.933   0.000  0.00  0.00    +0.000 C 
ATOM      9  C   UNL     1      -1.008  -0.362   0.000  0.00  0.00    +0.000 C 
ATOM     10  C   UNL     1       0.323  -0.159   0.000  0.00  0.00    +0.000 C 
ATOM     11  C   UNL     1       1.313  -2.264   0.000  0.00  0.00    +0.000 C 
ATOM     12  C   UNL     1       1.962  -1.865   0.000  0.00  0.00    +0.000 C 
ATOM     13  C   UNL     1      -0.453   0.110   0.000  0.00  0.00    +0.000 C 
ATOM     14  C   UNL     1       2.101  -0.110   0.000  0.00  0.00    +0.000 C 
ATOM     15  C   UNL     1       2.905   0.089   0.000  0.00  0.00    +0.000 C 
ATOM     16  O   UNL     1       2.661  -2.285   0.000  0.00  0.00    +0.000 OA
ATOM     17  C   UNL     1       3.846  -1.246   0.000  0.00  0.00    +0.000 C 
ATOM     18  C   UNL     1      -1.788  -0.081   0.000  0.00  0.00    +0.000 C 
ATOM     19  C   UNL     1       0.950   0.392   0.000  0.00  0.00    +0.000 C 
ENDROOT
BRANCH   7  21
ATOM     20  O   UNL     1       4.655  -0.719   0.000  0.00  0.00    +0.000 OA
ATOM     21  C   UNL     1       4.126  -0.203   0.000  0.00  0.00    +0.000 C 
ATOM     22  C   UNL     1       5.748   0.324   0.000  0.00  0.00    +0.000 C 
ATOM     23  C   UNL     1       5.466  -0.518   0.000  0.00  0.00    +0.000 C 
ATOM     24  C   UNL     1       5.013   0.878   0.000  0.00  0.00    +0.000 C 
ATOM     25  C   UNL     1       4.251   0.568   0.000  0.00  0.00    +0.000 C 
ATOM     26  O   UNL     1       6.168   1.045   0.000  0.00  0.00    +0.000 OA
ATOM     27  C   UNL     1       6.032  -1.127   0.000  0.00  0.00    +0.000 C 
BRANCH  22  28
ATOM     28  C   UNL     1       6.492  -0.018   0.000  0.00  0.00    +0.000 C 
ATOM     29  C   UNL     1       7.074   0.567   0.000  0.00  0.00    +0.000 C 
ENDBRANCH  22  28
ENDBRANCH   7  21
BRANCH   5  30
ATOM     30  C   UNL     1      -1.462  -1.664   0.000  0.00  0.00    +0.000 C 
BRANCH  30  31
ATOM     31  C   UNL     1      -1.242  -2.468   0.000  0.00  0.00    +0.000 C 
ATOM     32  C   UNL     1      -0.429  -2.531   0.000  0.00  0.00    +0.000 C 
ENDBRANCH  30  31
BRANCH  30  33
ATOM     33  C   UNL     1      -2.201  -1.508   0.000  0.00  0.00    +0.000 C 
ATOM     34  O   UNL     1      -2.458  -0.715   0.000  0.00  0.00    +0.000 OA
BRANCH  33  35
ATOM     35  C   UNL     1      -2.732  -2.118   0.000  0.00  0.00    +0.000 C 
ATOM     36  C   UNL     1      -2.483  -2.906   0.000  0.00  0.00    +0.000 C 
BRANCH  35  37
ATOM     37  C   UNL     1      -3.473  -1.914   0.000  0.00  0.00    +0.000 C 
ATOM     38  O   UNL     1      -3.653  -1.103   0.000  0.00  0.00    +0.000 OA
BRANCH  37  39
ATOM     39  C   UNL     1      -4.071  -2.428   0.000  0.00  0.00    +0.000 C 
ATOM     40  C   UNL     1      -3.954  -3.259   0.000  0.00  0.00    +0.000 C 
BRANCH  39  43
ATOM     41  O   UNL     1      -4.804  -1.262   0.000  0.00  0.00    +0.000 OA
ATOM     42  C   UNL     1      -5.542  -0.876   0.000  0.00  0.00    +0.000 C 
ATOM     43  C   UNL     1      -4.771  -2.092   0.000  0.00  0.00    +0.000 C 
ATOM     44  C   UNL     1      -6.226  -1.314   0.000  0.00  0.00    +0.000 C 
ATOM     45  C   UNL     1      -5.470  -2.507   0.000  0.00  0.00    +0.000 C 
ATOM     46  C   UNL     1      -6.195  -2.117   0.000  0.00  0.00    +0.000 C 
ATOM     47  C   UNL     1      -6.957  -0.926   0.000  0.00  0.00    +0.000 C 
ATOM     48  C   UNL     1      -5.452  -3.336   0.000  0.00  0.00    +0.000 C 
BRANCH  42  49
ATOM     49  C   UNL     1      -5.617  -0.066   0.000  0.00  0.00    +0.000 C 
BRANCH  49  50
ATOM     50  C   UNL     1      -4.959   0.433   0.000  0.00  0.00    +0.000 C 
ATOM     51  O   UNL     1      -4.192   0.105   0.000  0.00  0.00    +0.000 OA
ATOM     52  O   UNL     1      -5.059   1.255   0.000  0.00  0.00    +0.000 OA
ENDBRANCH  49  50
BRANCH  49  53
ATOM     53  C   UNL     1      -6.386   0.268   0.000  0.00  0.00    +0.000 C 
ATOM     54  C   UNL     1      -6.321   1.096   0.000  0.00  0.00    +0.000 C 
ENDBRANCH  49  53
ENDBRANCH  42  49
ENDBRANCH  39  43
ENDBRANCH  37  39
ENDBRANCH  35  37
ENDBRANCH  33  35
ENDBRANCH  30  33
ENDBRANCH   5  30
TORSDOF 12
