REMARK  Name = 
REMARK  2 active torsions:
REMARK  status: ('A' for Active; 'I' for Inactive)
REMARK    1  A    between atoms: N_9  and  C_10
REMARK    2  A    between atoms: N_15  and  N_16
REMARK                            x       y       z     vdW  Elec       q    Type
REMARK                         _______ _______ _______ _____ _____    ______ ____
ROOT
ATOM      1  C   UNL     1      -0.344   0.198   0.000  0.00  0.00    +0.000 C 
ATOM      2  C   UNL     1      -0.344  -0.627   0.000  0.00  0.00    +0.000 C 
ATOM      3  C   UNL     1       0.368  -1.036   0.000  0.00  0.00    +0.000 C 
ATOM      4  C   UNL     1       0.368   0.615   0.000  0.00  0.00    +0.000 C 
ATOM      5  C   UNL     1       1.080   0.198   0.000  0.00  0.00    +0.000 C 
ATOM      6  C   UNL     1       1.077  -0.627   0.000  0.00  0.00    +0.000 C 
ATOM      7  C   UNL     1       2.501  -0.633   0.000  0.00  0.00    +0.000 C 
ATOM      8  C   UNL     1       2.505   0.192   0.000  0.00  0.00    +0.000 C 
ATOM      9  N   UNL     1       1.792   0.612   0.000  0.00  0.00    +0.000 N 
ATOM     10  O   UNL     1       3.211  -1.044   0.000  0.00  0.00    +0.000 OA
ATOM     11  O   UNL     1      -1.060   0.611   0.000  0.00  0.00    +0.000 OA
ATOM     12  N   UNL     1      -1.060  -1.036   0.000  0.00  0.00    +0.000 NA
ENDROOT
BRANCH  12  13
ATOM     13  N   UNL     1      -1.777  -0.623   0.000  0.00  0.00    +0.000 NA
ATOM     14  C   UNL     1      -2.494  -1.031   0.000  0.00  0.00    +0.000 C 
ATOM     15  N   UNL     1      -3.211  -0.619   0.000  0.00  0.00    +0.000 NA
ATOM     16  O   UNL     1      -2.498  -1.856   0.000  0.00  0.00    +0.000 OA
ENDBRANCH  12  13
BRANCH   9  17
ATOM     17  C   UNL     1       1.786   1.440   0.000  0.00  0.00    +0.000 C 
ATOM     18  C   UNL     1       1.069   1.852   0.000  0.00  0.00    +0.000 C 
ATOM     19  C   UNL     1       2.498   1.856   0.000  0.00  0.00    +0.000 C 
ENDBRANCH   9  17
TORSDOF 2
