REMARK  Name = 
REMARK  12 active torsions:
REMARK  status: ('A' for Active; 'I' for Inactive)
REMARK    1  A    between atoms: C_1  and  O_4
REMARK    2  A    between atoms: C_2  and  O_6
REMARK    3  A    between atoms: C_7  and  C_13
REMARK    4  A    between atoms: C_13  and  C_15
REMARK    5  A    between atoms: C_15  and  C_16
REMARK    6  A    between atoms: C_16  and  C_17
REMARK    7  A    between atoms: C_17  and  C_18
REMARK    8  A    between atoms: C_18  and  C_19
REMARK    9  A    between atoms: C_19  and  C_20
REMARK   10  A    between atoms: C_20  and  C_21
REMARK   11  A    between atoms: C_21  and  C_22
REMARK   12  A    between atoms: C_22  and  C_23
REMARK                            x       y       z     vdW  Elec       q    Type
REMARK                         _______ _______ _______ _____ _____    ______ ____
ROOT
ATOM      1  C   UNL     1      -3.921   0.397   0.000  0.00  0.00    +0.000 C 
ATOM      2  C   UNL     1      -3.913  -0.413   0.000  0.00  0.00    +0.000 C 
ATOM      3  C   UNL     1      -3.218   0.817   0.000  0.00  0.00    +0.000 C 
ATOM      4  C   UNL     1      -3.226  -0.824   0.000  0.00  0.00    +0.000 C 
ATOM      5  C   UNL     1      -2.503   0.397   0.000  0.00  0.00    +0.000 C 
ATOM      6  O   UNL     1      -3.218   1.639   0.000  0.00  0.00    +0.000 OA
ATOM      7  C   UNL     1      -2.503  -0.413   0.000  0.00  0.00    +0.000 C 
ATOM      8  O   UNL     1      -3.226  -1.651   0.000  0.00  0.00    +0.000 OA
ATOM      9  C   UNL     1      -1.781  -0.824   0.000  0.00  0.00    +0.000 C 
ENDROOT
BRANCH   1  10
ATOM     10  O   UNL     1      -4.651   0.817   0.000  0.00  0.00    +0.000 OA
ATOM     11  C   UNL     1      -4.651   1.651   0.000  0.00  0.00    +0.000 C 
ENDBRANCH   1  10
BRANCH   2  12
ATOM     12  O   UNL     1      -4.651  -0.820   0.000  0.00  0.00    +0.000 OA
ATOM     13  C   UNL     1      -5.370  -0.401   0.000  0.00  0.00    +0.000 C 
ENDBRANCH   2  12
BRANCH   5  14
ATOM     14  C   UNL     1      -1.781   0.817   0.000  0.00  0.00    +0.000 C 
BRANCH  14  15
ATOM     15  C   UNL     1      -1.074   0.397   0.000  0.00  0.00    +0.000 C 
BRANCH  15  16
ATOM     16  C   UNL     1      -0.347   0.796   0.000  0.00  0.00    +0.000 C 
BRANCH  16  17
ATOM     17  C   UNL     1       0.363   0.377   0.000  0.00  0.00    +0.000 C 
BRANCH  17  18
ATOM     18  C   UNL     1       1.066   0.796   0.000  0.00  0.00    +0.000 C 
BRANCH  18  19
ATOM     19  C   UNL     1       1.781   0.377   0.000  0.00  0.00    +0.000 C 
BRANCH  19  20
ATOM     20  C   UNL     1       2.515   0.800   0.000  0.00  0.00    +0.000 C 
BRANCH  20  21
ATOM     21  C   UNL     1       3.222   0.377   0.000  0.00  0.00    +0.000 C 
BRANCH  21  22
ATOM     22  C   UNL     1       3.953   0.780   0.000  0.00  0.00    +0.000 C 
BRANCH  22  23
ATOM     23  C   UNL     1       4.655   0.377   0.000  0.00  0.00    +0.000 C 
ATOM     24  O   UNL     1       5.370   0.780   0.000  0.00  0.00    +0.000 OA
ENDBRANCH  22  23
ENDBRANCH  21  22
ENDBRANCH  20  21
ENDBRANCH  19  20
ENDBRANCH  18  19
ENDBRANCH  17  18
ENDBRANCH  16  17
ENDBRANCH  15  16
ENDBRANCH  14  15
ENDBRANCH   5  14
TORSDOF 12
