REMARK  Name = 
REMARK  0 active torsions:
REMARK  status: ('A' for Active; 'I' for Inactive)
REMARK                            x       y       z     vdW  Elec       q    Type
REMARK                         _______ _______ _______ _____ _____    ______ ____
ROOT
ATOM      1  C   UNL     1      -0.107   0.499   0.000  0.00  0.00    +0.000 C 
ATOM      2  C   UNL     1       0.669   0.221   0.000  0.00  0.00    +0.000 C 
ATOM      3  C   UNL     1       1.384  -0.186   0.000  0.00  0.00    +0.000 C 
ATOM      4  C   UNL     1       1.012   0.971   0.000  0.00  0.00    +0.000 C 
ATOM      5  C   UNL     1       0.200  -0.454   0.000  0.00  0.00    +0.000 C 
ATOM      6  C   UNL     1      -0.572  -0.175   0.000  0.00  0.00    +0.000 C 
ATOM      7  C   UNL     1      -0.643  -1.000   0.000  0.00  0.00    +0.000 C 
ATOM      8  C   UNL     1      -1.384  -0.326   0.000  0.00  0.00    +0.000 C 
ATOM      9  C   UNL     1      -0.914   0.353   0.000  0.00  0.00    +0.000 C 
ATOM     10  C   UNL     1      -0.458   1.241   0.000  0.00  0.00    +0.000 C 
ATOM     11  O   UNL     1       0.449  -1.241   0.000  0.00  0.00    +0.000 OA
ENDROOT
TORSDOF 0
