REMARK  Name = 
REMARK  2 active torsions:
REMARK  status: ('A' for Active; 'I' for Inactive)
REMARK    1  A    between atoms: C_2  and  C_3
REMARK    2  A    between atoms: C_3  and  C_12
REMARK                            x       y       z     vdW  Elec       q    Type
REMARK                         _______ _______ _______ _____ _____    ______ ____
ROOT
ATOM      1  C   UNL     1       1.245  -1.044   0.000  0.00  0.00    +0.000 C 
ATOM      2  C   UNL     1       1.959  -1.457   0.000  0.00  0.00    +0.000 C 
ATOM      3  O   UNL     1       2.674  -1.044   0.000  0.00  0.00    +0.000 OA
ATOM      4  N   UNL     1       1.959  -2.282   0.000  0.00  0.00    +0.000 NA
ATOM      5  C   UNL     1       1.245  -2.695   0.000  0.00  0.00    +0.000 C 
ATOM      6  O   UNL     1       1.245  -3.519   0.000  0.00  0.00    +0.000 OA
ATOM      7  N   UNL     1       0.530  -2.282   0.000  0.00  0.00    +0.000 NA
ATOM      8  C   UNL     1       0.530  -1.457   0.000  0.00  0.00    +0.000 C 
ATOM      9  O   UNL     1      -0.184  -1.044   0.000  0.00  0.00    +0.000 OA
ENDROOT
BRANCH   1  10
ATOM     10  C   UNL     1       1.775  -0.412   0.000  0.00  0.00    +0.000 C 
ATOM     11  C   UNL     1       1.493   0.363   0.000  0.00  0.00    +0.000 C 
ATOM     12  C   UNL     1       2.023   0.995   0.000  0.00  0.00    +0.000 C 
ATOM     13  C   UNL     1       2.836   0.852   0.000  0.00  0.00    +0.000 C 
ATOM     14  C   UNL     1       3.118   0.076   0.000  0.00  0.00    +0.000 C 
ATOM     15  C   UNL     1       2.587  -0.556   0.000  0.00  0.00    +0.000 C 
ENDBRANCH   1  10
BRANCH   1  17
ATOM     16  C   UNL     1       0.997   0.363   0.000  0.00  0.00    +0.000 C 
ATOM     17  C   UNL     1       0.715  -0.412   0.000  0.00  0.00    +0.000 C 
ENDBRANCH   1  17
TORSDOF 2
