REMARK  Name = 
REMARK  2 active torsions:
REMARK  status: ('A' for Active; 'I' for Inactive)
REMARK    1  A    between atoms: N_1  and  C_4
REMARK    2  A    between atoms: C_3  and  C_4
REMARK                            x       y       z     vdW  Elec       q    Type
REMARK                         _______ _______ _______ _____ _____    ______ ____
ROOT
ATOM      1  C   UNL     1      -0.003  -0.206   0.000  0.00  0.00    +0.000 A 
ATOM      2  C   UNL     1      -0.713   0.206   0.000  0.00  0.00    +0.000 A 
ATOM      3  C   UNL     1      -0.003  -1.031   0.000  0.00  0.00    +0.000 A 
ATOM      4  C   UNL     1      -1.429  -0.206   0.000  0.00  0.00    +0.000 A 
ATOM      5  C   UNL     1      -0.713  -1.439   0.000  0.00  0.00    +0.000 A 
ATOM      6  C   UNL     1      -1.429  -1.031   0.000  0.00  0.00    +0.000 A 
ENDROOT
BRANCH   1   7
ATOM      7  C   UNL     1       0.713   0.206   0.000  0.00  0.00    +0.000 C 
ATOM      8  C   UNL     1       1.429  -0.206   0.000  0.00  0.00    +0.000 C 
BRANCH   7   9
ATOM      9  N   UNL     1       0.713   1.031   0.000  0.00  0.00    +0.000 NA
ATOM     10  N   UNL     1      -0.003   1.439   0.000  0.00  0.00    +0.000 NA
ENDBRANCH   7   9
ENDBRANCH   1   7
TORSDOF 2
