REMARK  Name = 
REMARK  9 active torsions:
REMARK  status: ('A' for Active; 'I' for Inactive)
REMARK    1  A    between atoms: C_2  and  N_4
REMARK    2  A    between atoms: N_4  and  C_5
REMARK    3  A    between atoms: C_5  and  C_6
REMARK    4  A    between atoms: C_6  and  N_7
REMARK    5  A    between atoms: N_7  and  C_8
REMARK    6  A    between atoms: N_7  and  C_24
REMARK    7  A    between atoms: C_15  and  C_18
REMARK    8  A    between atoms: C_26  and  O_32
REMARK    9  A    between atoms: C_28  and  O_30
REMARK                            x       y       z     vdW  Elec       q    Type
REMARK                         _______ _______ _______ _____ _____    ______ ____
ROOT
ATOM      1  N   UNL     1       0.000  -4.125   0.000  0.00  0.00    +0.000 N 
ENDROOT
BRANCH   1   2
ATOM      2  C   UNL     1       0.715  -4.537   0.000  0.00  0.00    +0.000 A 
ATOM      3  C   UNL     1       0.715  -5.362   0.000  0.00  0.00    +0.000 A 
ATOM      4  C   UNL     1       1.429  -5.775   0.000  0.00  0.00    +0.000 A 
ATOM      5  C   UNL     1       2.143  -5.362   0.000  0.00  0.00    +0.000 A 
ATOM      6  C   UNL     1       2.143  -4.537   0.000  0.00  0.00    +0.000 A 
ATOM      7  C   UNL     1       1.429  -4.125   0.000  0.00  0.00    +0.000 A 
ATOM      8  N   UNL     1       2.858  -4.125   0.000  0.00  0.00    +0.000 NA
ATOM      9  C   UNL     1       3.572  -4.537   0.000  0.00  0.00    +0.000 A 
ATOM     10  C   UNL     1       3.572  -5.362   0.000  0.00  0.00    +0.000 A 
ATOM     11  N   UNL     1       2.858  -5.775   0.000  0.00  0.00    +0.000 NA
BRANCH   9  12
ATOM     12  C   UNL     1       4.287  -4.125   0.000  0.00  0.00    +0.000 A 
ATOM     13  C   UNL     1       4.373  -3.304   0.000  0.00  0.00    +0.000 A 
ATOM     14  N   UNL     1       5.180  -3.133   0.000  0.00  0.00    +0.000 NA
ATOM     15  N   UNL     1       5.593  -3.848   0.000  0.00  0.00    +0.000 N 
ATOM     16  C   UNL     1       5.040  -4.461   0.000  0.00  0.00    +0.000 A 
ATOM     17  C   UNL     1       6.413  -3.934   0.000  0.00  0.00    +0.000 C 
ENDBRANCH   9  12
ENDBRANCH   1   2
BRANCH   1  18
ATOM     18  C   UNL     1       0.000  -3.300   0.000  0.00  0.00    +0.000 A 
ATOM     19  C   UNL     1      -0.715  -2.888   0.000  0.00  0.00    +0.000 A 
ATOM     20  C   UNL     1      -0.715  -2.062   0.000  0.00  0.00    +0.000 A 
ATOM     21  C   UNL     1       0.000  -1.650   0.000  0.00  0.00    +0.000 A 
ATOM     22  C   UNL     1       0.715  -2.062   0.000  0.00  0.00    +0.000 A 
ATOM     23  C   UNL     1       0.715  -2.888   0.000  0.00  0.00    +0.000 A 
BRANCH  22  24
ATOM     24  O   UNL     1       1.429  -1.650   0.000  0.00  0.00    +0.000 OA
ATOM     25  C   UNL     1       2.143  -2.062   0.000  0.00  0.00    +0.000 C 
ENDBRANCH  22  24
BRANCH  20  26
ATOM     26  O   UNL     1      -1.429  -1.650   0.000  0.00  0.00    +0.000 OA
ATOM     27  C   UNL     1      -1.429  -0.825   0.000  0.00  0.00    +0.000 C 
ENDBRANCH  20  26
ENDBRANCH   1  18
BRANCH   1  28
ATOM     28  C   UNL     1      -0.715  -4.537   0.000  0.00  0.00    +0.000 C 
BRANCH  28  29
ATOM     29  C   UNL     1      -1.429  -4.125   0.000  0.00  0.00    +0.000 C 
BRANCH  29  30
ATOM     30  N   UNL     1      -2.143  -4.537   0.000  0.00  0.00    +0.000 NA
BRANCH  30  32
ATOM     31  C   UNL     1      -3.572  -4.537   0.000  0.00  0.00    +0.000 C 
ATOM     32  C   UNL     1      -2.858  -4.125   0.000  0.00  0.00    +0.000 C 
ATOM     33  C   UNL     1      -2.858  -3.300   0.000  0.00  0.00    +0.000 C 
ENDBRANCH  30  32
ENDBRANCH  29  30
ENDBRANCH  28  29
ENDBRANCH   1  28
TORSDOF 9
