REMARK  Name = 
REMARK  1 active torsions:
REMARK  status: ('A' for Active; 'I' for Inactive)
REMARK    1  A    between atoms: C_3  and  C_12
REMARK                            x       y       z     vdW  Elec       q    Type
REMARK                         _______ _______ _______ _____ _____    ______ ____
ROOT
ATOM      1  C   UNL     1       0.776  -0.213   0.000  0.00  0.00    +0.000 C 
ATOM      2  C   UNL     1      -0.661  -0.206   0.000  0.00  0.00    +0.000 C 
ATOM      3  C   UNL     1       2.197  -0.221   0.000  0.00  0.00    +0.000 C 
ATOM      4  C   UNL     1       0.055  -0.617   0.000  0.00  0.00    +0.000 C 
ATOM      5  C   UNL     1       1.486  -0.625   0.000  0.00  0.00    +0.000 C 
ATOM      6  C   UNL     1      -1.379  -0.617   0.000  0.00  0.00    +0.000 C 
ATOM      7  C   UNL     1       2.205   0.610   0.000  0.00  0.00    +0.000 C 
ATOM      8  C   UNL     1      -2.090  -0.198   0.000  0.00  0.00    +0.000 A 
ATOM      9  C   UNL     1       0.776   0.617   0.000  0.00  0.00    +0.000 C 
ATOM     10  C   UNL     1      -0.661   0.625   0.000  0.00  0.00    +0.000 C 
ATOM     11  C   UNL     1      -2.090   0.572   0.000  0.00  0.00    +0.000 A 
ATOM     12  C   UNL     1       1.494   1.029   0.000  0.00  0.00    +0.000 C 
ATOM     13  C   UNL     1       0.062   1.031   0.000  0.00  0.00    +0.000 C 
ATOM     14  C   UNL     1      -1.372   1.039   0.000  0.00  0.00    +0.000 C 
ATOM     15  O   UNL     1       1.486  -1.455   0.000  0.00  0.00    +0.000 OA
ATOM     16  O   UNL     1      -1.379  -1.440   0.000  0.00  0.00    +0.000 OA
ATOM     17  C   UNL     1      -2.764  -0.585   0.000  0.00  0.00    +0.000 A 
ATOM     18  O   UNL     1       0.055  -1.448   0.000  0.00  0.00    +0.000 OA
ATOM     19  O   UNL     1       2.714   0.932   0.000  0.00  0.00    +0.000 OA
ATOM     20  C   UNL     1      -2.756   0.964   0.000  0.00  0.00    +0.000 A 
ATOM     21  O   UNL     1      -2.764  -1.408   0.000  0.00  0.00    +0.000 OA
ATOM     22  C   UNL     1      -3.425   0.580   0.000  0.00  0.00    +0.000 A 
ATOM     23  C   UNL     1      -3.425  -0.191   0.000  0.00  0.00    +0.000 A 
ATOM     24  O   UNL     1       0.773  -1.039   0.000  0.00  0.00    +0.000 OA
ENDROOT
BRANCH   3  25
ATOM     25  C   UNL     1       2.878  -0.503   0.000  0.00  0.00    +0.000 C 
ATOM     26  O   UNL     1       2.878  -1.169   0.000  0.00  0.00    +0.000 OA
ATOM     27  N   UNL     1       3.425  -0.116   0.000  0.00  0.00    +0.000 NA
ENDBRANCH   3  25
TORSDOF 1
