REMARK  Name = 
REMARK  3 active torsions:
REMARK  status: ('A' for Active; 'I' for Inactive)
REMARK    1  A    between atoms: C_2  and  N_4
REMARK    2  A    between atoms: N_13  and  C1*_14
REMARK    3  A    between atoms: C4*_17  and  C5*_19
REMARK                            x       y       z     vdW  Elec       q    Type
REMARK                         _______ _______ _______ _____ _____    ______ ____
ROOT
ATOM      1  N   UNL     1      -0.171  -0.698   0.000  0.00  0.00    +0.000 NA
ATOM      2  C   UNL     1       0.654  -0.698   0.000  0.00  0.00    +0.000 A 
ATOM      3  N   UNL     1       1.139  -0.030   0.000  0.00  0.00    +0.000 NA
ATOM      4  C   UNL     1       1.923  -0.285   0.000  0.00  0.00    +0.000 A 
ATOM      5  C   UNL     1       2.638   0.127   0.000  0.00  0.00    +0.000 A 
ATOM      6  C   UNL     1       3.352  -0.285   0.000  0.00  0.00    +0.000 A 
ATOM      7  C   UNL     1       3.352  -1.110   0.000  0.00  0.00    +0.000 A 
ATOM      8  C   UNL     1       2.638  -1.523   0.000  0.00  0.00    +0.000 A 
ATOM      9  C   UNL     1       1.923  -1.110   0.000  0.00  0.00    +0.000 A 
ATOM     10  N   UNL     1       1.139  -1.365   0.000  0.00  0.00    +0.000 N 
ATOM     11 CL   UNL     1       4.067  -1.523   0.000  0.00  0.00    +0.000 Cl
ATOM     12 CL   UNL     1       4.067   0.127   0.000  0.00  0.00    +0.000 Cl
ENDROOT
BRANCH  10  13
ATOM     13  C1* UNL     1       0.884  -2.150   0.000  0.00  0.00    +0.000 C 
ATOM     14  C2* UNL     1       1.369  -2.817   0.000  0.00  0.00    +0.000 C 
ATOM     15  C3* UNL     1       0.884  -3.485   0.000  0.00  0.00    +0.000 C 
ATOM     16  C4* UNL     1       0.099  -3.230   0.000  0.00  0.00    +0.000 C 
ATOM     17  O4* UNL     1       0.099  -2.405   0.000  0.00  0.00    +0.000 OA
ATOM     18  O3* UNL     1       1.139  -4.269   0.000  0.00  0.00    +0.000 OA
ATOM     19  O2* UNL     1       2.194  -2.817   0.000  0.00  0.00    +0.000 OA
BRANCH  16  20
ATOM     20  C5* UNL     1      -0.568  -3.715   0.000  0.00  0.00    +0.000 C 
ATOM     21  O5* UNL     1      -1.322  -3.379   0.000  0.00  0.00    +0.000 OA
ENDBRANCH  16  20
ENDBRANCH  10  13
BRANCH   1  23
ATOM     22  C   UNL     1      -0.171   0.731   0.000  0.00  0.00    +0.000 C 
ATOM     23  C   UNL     1      -0.584   0.017   0.000  0.00  0.00    +0.000 C 
ATOM     24  C   UNL     1      -1.409   0.017   0.000  0.00  0.00    +0.000 C 
ENDBRANCH   1  23
TORSDOF 3
