REMARK  Name = 
REMARK  4 active torsions:
REMARK  status: ('A' for Active; 'I' for Inactive)
REMARK    1  A    between atoms: C_1  and  C_2
REMARK    2  A    between atoms: C_2  and  C_3
REMARK    3  A    between atoms: C_3  and  C_4
REMARK    4  A    between atoms: C_4  and  C_5
REMARK                            x       y       z     vdW  Elec       q    Type
REMARK                         _______ _______ _______ _____ _____    ______ ____
ROOT
ATOM      1  C   UNL     1       0.000  -0.207   0.000  0.00  0.00    +0.000 C 
ATOM      2  O   UNL     1       0.418   0.512   0.000  0.00  0.00    +0.000 OA
ATOM      3  C   UNL     1      -0.407   0.512   0.000  0.00  0.00    +0.000 C 
ENDROOT
BRANCH   1   4
ATOM      4  C   UNL     1      -0.714  -0.621   0.000  0.00  0.00    +0.000 C 
BRANCH   4   5
ATOM      5  C   UNL     1      -1.427  -0.207   0.000  0.00  0.00    +0.000 C 
ATOM      6  O   UNL     1      -1.427   0.621   0.000  0.00  0.00    +0.000 OA
ATOM      7  O   UNL     1      -2.141  -0.621   0.000  0.00  0.00    +0.000 OA
ENDBRANCH   4   5
ENDBRANCH   1   4
BRANCH   1   8
ATOM      8  C   UNL     1       0.714  -0.621   0.000  0.00  0.00    +0.000 C 
BRANCH   8   9
ATOM      9  C   UNL     1       1.427  -0.207   0.000  0.00  0.00    +0.000 C 
ATOM     10  O   UNL     1       2.141  -0.621   0.000  0.00  0.00    +0.000 OA
ATOM     11  O   UNL     1       1.427   0.606   0.000  0.00  0.00    +0.000 OA
ENDBRANCH   8   9
ENDBRANCH   1   8
TORSDOF 4
