REMARK  Name = 
REMARK  9 active torsions:
REMARK  status: ('A' for Active; 'I' for Inactive)
REMARK    1  A    between atoms: O_2  and  C_18
REMARK    2  A    between atoms: N_5  and  C_16
REMARK    3  A    between atoms: C_8  and  C_13
REMARK    4  A    between atoms: C_13  and  C_14
REMARK    5  A    between atoms: C_16  and  C_17
REMARK    6  A    between atoms: C_16  and  C_18
REMARK    7  A    between atoms: C_17  and  C_19
REMARK    8  A    between atoms: C_24  and  C_26
REMARK    9  A    between atoms: C_27  and  C_28
REMARK                            x       y       z     vdW  Elec       q    Type
REMARK                         _______ _______ _______ _____ _____    ______ ____
ROOT
ATOM      1  C   UNL     1      -0.204   1.198   0.000  0.00  0.00    +0.000 C 
ENDROOT
BRANCH   1   3
ATOM      2  O   UNL     1      -1.633   0.373   0.000  0.00  0.00    +0.000 OA
ATOM      3  N   UNL     1      -0.918   1.611   0.000  0.00  0.00    +0.000 N 
ATOM      4  C   UNL     1      -1.633   1.198   0.000  0.00  0.00    +0.000 C 
ATOM      5  H   UNL     1      -0.918   2.122   0.000  0.00  0.00    +0.000 HD
BRANCH   4   6
ATOM      6  C   UNL     1      -2.347   1.611   0.000  0.00  0.00    +0.000 C 
BRANCH   6  10
ATOM      7  N   UNL     1      -4.490   1.198   0.000  0.00  0.00    +0.000 N 
ATOM      8  N   UNL     1      -5.920   1.198   0.000  0.00  0.00    +0.000 N 
ATOM      9  N   UNL     1      -5.205   2.436   0.000  0.00  0.00    +0.000 NA
ATOM     10  C   UNL     1      -3.062   1.198   0.000  0.00  0.00    +0.000 C 
ATOM     11  C   UNL     1      -3.062   0.373   0.000  0.00  0.00    +0.000 C 
ATOM     12  C   UNL     1      -3.776   1.611   0.000  0.00  0.00    +0.000 C 
ATOM     13  C   UNL     1      -3.776  -0.039   0.000  0.00  0.00    +0.000 C 
ATOM     14  C   UNL     1      -4.490   0.373   0.000  0.00  0.00    +0.000 C 
ATOM     15  C   UNL     1      -5.205   1.611   0.000  0.00  0.00    +0.000 C 
ATOM     16  H   UNL     1      -5.920   0.687   0.000  0.00  0.00    +0.000 HD
ATOM     17  H   UNL     1      -6.362   1.454   0.000  0.00  0.00    +0.000 HD
ATOM     18  H   UNL     1      -5.648   2.692   0.000  0.00  0.00    +0.000 HD
ENDBRANCH   6  10
ENDBRANCH   4   6
ENDBRANCH   1   3
BRANCH   1  20
ATOM     19  O   UNL     1       0.511  -0.039   0.000  0.00  0.00    +0.000 OA
ATOM     20  C   UNL     1      -0.204   0.373   0.000  0.00  0.00    +0.000 C 
BRANCH  20  21
ATOM     21  O   UNL     1      -0.918  -0.039   0.000  0.00  0.00    +0.000 OA
ATOM     22  C   UNL     1      -0.918  -0.864   0.000  0.00  0.00    +0.000 C 
ENDBRANCH  20  21
ENDBRANCH   1  20
BRANCH   1  23
ATOM     23  C   UNL     1       0.511   1.611   0.000  0.00  0.00    +0.000 C 
BRANCH  23  24
ATOM     24  C   UNL     1       1.225   1.198   0.000  0.00  0.00    +0.000 A 
ATOM     25  C   UNL     1       1.940   1.611   0.000  0.00  0.00    +0.000 A 
ATOM     26  C   UNL     1       1.225   0.373   0.000  0.00  0.00    +0.000 A 
ATOM     27  C   UNL     1       2.654   1.198   0.000  0.00  0.00    +0.000 A 
ATOM     28  C   UNL     1       1.940  -0.039   0.000  0.00  0.00    +0.000 A 
ATOM     29  C   UNL     1       2.654   0.373   0.000  0.00  0.00    +0.000 A 
BRANCH  29  30
ATOM     30  C   UNL     1       3.369  -0.039   0.000  0.00  0.00    +0.000 C 
ATOM     31  C   UNL     1       4.083  -0.452   0.000  0.00  0.00    +0.000 C 
BRANCH  31  32
ATOM     32  C   UNL     1       4.798  -0.864   0.000  0.00  0.00    +0.000 A 
ATOM     33  C   UNL     1       5.512  -0.452   0.000  0.00  0.00    +0.000 A 
ATOM     34  C   UNL     1       4.798  -1.689   0.000  0.00  0.00    +0.000 A 
ATOM     35  C   UNL     1       6.227  -0.864   0.000  0.00  0.00    +0.000 A 
ATOM     36  C   UNL     1       5.512  -2.102   0.000  0.00  0.00    +0.000 A 
ATOM     37  C   UNL     1       6.227  -1.689   0.000  0.00  0.00    +0.000 A 
ENDBRANCH  31  32
ENDBRANCH  29  30
ENDBRANCH  23  24
ENDBRANCH   1  23
TORSDOF 9
