REMARK  Name = 
REMARK  12 active torsions:
REMARK  status: ('A' for Active; 'I' for Inactive)
REMARK    1  A    between atoms: C_13  and  C_15
REMARK    2  A    between atoms: C_13  and  C_17
REMARK    3  A    between atoms: C_14  and  C_16
REMARK    4  A    between atoms: C_14  and  C_18
REMARK    5  A    between atoms: C_15  and  O_26
REMARK    6  A    between atoms: C_16  and  O_27
REMARK    7  A    between atoms: C_19  and  N_24
REMARK    8  A    between atoms: C_20  and  N_25
REMARK    9  A    between atoms: C_21  and  O_26
REMARK   10  A    between atoms: C_22  and  O_27
REMARK   11  A    between atoms: C_23  and  N_24
REMARK   12  A    between atoms: C_23  and  N_25
REMARK                            x       y       z     vdW  Elec       q    Type
REMARK                         _______ _______ _______ _____ _____    ______ ____
ROOT
ATOM      1  C   UNL     1      -2.143  -2.062   0.000  0.00  0.00    +0.000 C 
ATOM      2  S   UNL     1      -2.143  -1.238   0.000  0.00  0.00    +0.000 S 
ENDROOT
BRANCH   1   3
ATOM      3  N   UNL     1      -2.858  -2.475   0.000  0.00  0.00    +0.000 NA
BRANCH   3   8
ATOM      4  C   UNL     1      -3.572  -1.238   0.000  0.00  0.00    +0.000 A 
ATOM      5  C   UNL     1      -4.287  -2.475   0.000  0.00  0.00    +0.000 A 
ATOM      6  C   UNL     1      -4.287  -0.825   0.000  0.00  0.00    +0.000 A 
ATOM      7  C   UNL     1      -5.001  -2.062   0.000  0.00  0.00    +0.000 A 
ATOM      8  C   UNL     1      -3.572  -2.062   0.000  0.00  0.00    +0.000 A 
ATOM      9  C   UNL     1      -5.001  -1.238   0.000  0.00  0.00    +0.000 A 
BRANCH   9  10
ATOM     10  O   UNL     1      -5.716  -0.825   0.000  0.00  0.00    +0.000 OA
BRANCH  10  11
ATOM     11  C   UNL     1      -6.430  -1.238   0.000  0.00  0.00    +0.000 C 
BRANCH  11  12
ATOM     12  C   UNL     1      -7.145  -0.825   0.000  0.00  0.00    +0.000 C 
BRANCH  12  15
ATOM     13  C   UNL     1      -8.574  -0.825   0.000  0.00  0.00    +0.000 C 
ATOM     14  C   UNL     1      -7.859  -2.062   0.000  0.00  0.00    +0.000 C 
ATOM     15  C   UNL     1      -7.859  -1.238   0.000  0.00  0.00    +0.000 C 
ENDBRANCH  12  15
ENDBRANCH  11  12
ENDBRANCH  10  11
ENDBRANCH   9  10
ENDBRANCH   3   8
ENDBRANCH   1   3
BRANCH   1  16
ATOM     16  N   UNL     1      -1.429  -2.475   0.000  0.00  0.00    +0.000 NA
BRANCH  16  21
ATOM     17  C   UNL     1       0.000  -2.475   0.000  0.00  0.00    +0.000 A 
ATOM     18  C   UNL     1      -0.715  -1.238   0.000  0.00  0.00    +0.000 A 
ATOM     19  C   UNL     1       0.715  -2.062   0.000  0.00  0.00    +0.000 A 
ATOM     20  C   UNL     1       0.000  -0.825   0.000  0.00  0.00    +0.000 A 
ATOM     21  C   UNL     1      -0.715  -2.062   0.000  0.00  0.00    +0.000 A 
ATOM     22  C   UNL     1       0.715  -1.238   0.000  0.00  0.00    +0.000 A 
BRANCH  22  23
ATOM     23  O   UNL     1       1.429  -0.825   0.000  0.00  0.00    +0.000 OA
BRANCH  23  24
ATOM     24  C   UNL     1       2.143  -1.238   0.000  0.00  0.00    +0.000 C 
BRANCH  24  25
ATOM     25  C   UNL     1       2.858  -0.825   0.000  0.00  0.00    +0.000 C 
BRANCH  25  28
ATOM     26  C   UNL     1       4.287  -0.825   0.000  0.00  0.00    +0.000 C 
ATOM     27  C   UNL     1       3.572  -2.062   0.000  0.00  0.00    +0.000 C 
ATOM     28  C   UNL     1       3.572  -1.238   0.000  0.00  0.00    +0.000 C 
ENDBRANCH  25  28
ENDBRANCH  24  25
ENDBRANCH  23  24
ENDBRANCH  22  23
ENDBRANCH  16  21
ENDBRANCH   1  16
TORSDOF 12
