REMARK  Name = 
REMARK  28 active torsions:
REMARK  status: ('A' for Active; 'I' for Inactive)
REMARK    1  A    between atoms: CA_2  and  CB_3
REMARK    2  A    between atoms: CA_2  and  C_7
REMARK    3  A    between atoms: CB_3  and  CG_4
REMARK    4  A    between atoms: N_9  and  CA_10
REMARK    5  A    between atoms: CA_10  and  CB_11
REMARK    6  A    between atoms: CA_10  and  C_15
REMARK    7  A    between atoms: CB_11  and  CG_12
REMARK    8  A    between atoms: N_17  and  CA_18
REMARK    9  A    between atoms: CA_18  and  CB_19
REMARK   10  A    between atoms: CA_18  and  C_24
REMARK   11  A    between atoms: CB_19  and  CG_20
REMARK   12  A    between atoms: CG_20  and  CD_21
REMARK   13  A    between atoms: N_26  and  CA_27
REMARK   14  A    between atoms: CA_33  and  CB_34
REMARK   15  A    between atoms: CB_34  and  CG_35
REMARK   16  A    between atoms: CG_35  and  CD_36
REMARK   17  A    between atoms: CA_42  and  CB_43
REMARK   18  A    between atoms: CB_43  and  CG_44
REMARK   19  A    between atoms: CA_56  and  CB_57
REMARK   20  A    between atoms: CA_63  and  CB_64
REMARK   21  A    between atoms: CB_64  and  CG_65
REMARK   22  A    between atoms: CA_71  and  CB_72
REMARK   23  A    between atoms: CA_89  and  CB_90
REMARK   24  A    between atoms: CA_100  and  C_103
REMARK   25  A    between atoms: N_105  and  CA_106
REMARK   26  A    between atoms: CA_106  and  CB_107
REMARK   27  A    between atoms: CA_106  and  C_111
REMARK   28  A    between atoms: CB_107  and  CG_108
REMARK                            x       y       z     vdW  Elec       q    Type
REMARK                         _______ _______ _______ _____ _____    ______ ____
ROOT
ATOM      1  CA  CYS A   4      -9.729  -0.220   0.000  0.00  0.00    +0.000 C 
ATOM      2  CB  CYS A   4      -9.729  -1.028   0.000  0.00  0.00    +0.000 C 
ATOM      3  SG  CYS A   4      -7.930  -2.717   0.000  0.00  0.00    +0.000 S 
ATOM      4  C   CYS A   4      -8.995   0.220   0.000  0.00  0.00    +0.000 C 
ATOM      5  O   CYS A   4      -8.995   1.028   0.000  0.00  0.00    +0.000 OA
ATOM      6  N   GLU A   5      -8.260  -0.220   0.000  0.00  0.00    +0.000 NA
ATOM      7  CA  GLU A   5      -7.563   0.220   0.000  0.00  0.00    +0.000 C 
ATOM      8  C   GLU A   5      -6.829  -0.220   0.000  0.00  0.00    +0.000 C 
ATOM      9  O   GLU A   5      -6.829  -1.028   0.000  0.00  0.00    +0.000 OA
ATOM     10  N   LEU A   6      -6.131   0.220   0.000  0.00  0.00    +0.000 NA
ATOM     11  CA  LEU A   6      -5.397  -0.220   0.000  0.00  0.00    +0.000 C 
ATOM     12  C   LEU A   6      -4.662   0.220   0.000  0.00  0.00    +0.000 C 
ATOM     13  O   LEU A   6      -4.662   1.028   0.000  0.00  0.00    +0.000 OA
ATOM     14  N   CYS A   7      -3.965  -0.220   0.000  0.00  0.00    +0.000 NA
ATOM     15  CA  CYS A   7      -3.231   0.220   0.000  0.00  0.00    +0.000 C 
ATOM     16  CB  CYS A   7      -3.157   1.762   0.000  0.00  0.00    +0.000 C 
ATOM     17  SG  CYS A   7      -1.652   2.680   0.000  0.00  0.00    +0.000 S 
ATOM     18  C   CYS A   7      -2.533  -0.220   0.000  0.00  0.00    +0.000 C 
ATOM     19  O   CYS A   7      -2.533  -1.028   0.000  0.00  0.00    +0.000 OA
ATOM     20  N   VAL A   8      -1.799   0.220   0.000  0.00  0.00    +0.000 NA
ATOM     21  CA  VAL A   8      -1.065  -0.220   0.000  0.00  0.00    +0.000 C 
ATOM     22  C   VAL A   8      -0.367   0.220   0.000  0.00  0.00    +0.000 C 
ATOM     23  O   VAL A   8      -0.367   1.028   0.000  0.00  0.00    +0.000 OA
ATOM     24  N   ASN A   9       0.367  -0.220   0.000  0.00  0.00    +0.000 NA
ATOM     25  CA  ASN A   9       1.065   0.220   0.000  0.00  0.00    +0.000 C 
ATOM     26  C   ASN A   9       1.799  -0.220   0.000  0.00  0.00    +0.000 C 
ATOM     27  O   ASN A   9       1.799  -1.028   0.000  0.00  0.00    +0.000 OA
ATOM     28  N   VAL A  10       2.533   0.220   0.000  0.00  0.00    +0.000 NA
ATOM     29  CA  VAL A  10       3.231  -0.220   0.000  0.00  0.00    +0.000 C 
ATOM     30  C   VAL A  10       3.965   0.220   0.000  0.00  0.00    +0.000 C 
ATOM     31  O   VAL A  10       3.965   1.028   0.000  0.00  0.00    +0.000 OA
ATOM     32  N   ALA A  11       4.662  -0.220   0.000  0.00  0.00    +0.000 NA
ATOM     33  CA  ALA A  11       5.397   0.220   0.000  0.00  0.00    +0.000 C 
ATOM     34  CB  ALA A  11       5.397   1.028   0.000  0.00  0.00    +0.000 C 
ATOM     35  C   ALA A  11       6.131  -0.220   0.000  0.00  0.00    +0.000 C 
ATOM     36  O   ALA A  11       6.131  -1.028   0.000  0.00  0.00    +0.000 OA
ATOM     37  N   CYS A  12       6.829   0.220   0.000  0.00  0.00    +0.000 NA
ATOM     38  CA  CYS A  12       7.563  -0.220   0.000  0.00  0.00    +0.000 C 
ATOM     39  CB  CYS A  12       7.563  -1.028   0.000  0.00  0.00    +0.000 C 
ATOM     40  SG  CYS A  12       9.068  -2.533   0.000  0.00  0.00    +0.000 S 
ATOM     41  C   CYS A  12       8.260   0.220   0.000  0.00  0.00    +0.000 C 
ATOM     42  O   CYS A  12       8.260   1.028   0.000  0.00  0.00    +0.000 OA
ATOM     43  N   THR A  13       8.995  -0.220   0.000  0.00  0.00    +0.000 NA
ATOM     44  CA  THR A  13       9.729   0.220   0.000  0.00  0.00    +0.000 C 
ATOM     45  C   THR A  13      10.426  -0.220   0.000  0.00  0.00    +0.000 C 
ATOM     46  O   THR A  13      10.426  -1.028   0.000  0.00  0.00    +0.000 OA
ATOM     47  N   GLY A  14      11.161   0.220   0.000  0.00  0.00    +0.000 NA
ATOM     48  CA  GLY A  14      11.895  -0.220   0.000  0.00  0.00    +0.000 C 
ATOM     49  C   GLY A  14      12.592   0.220   0.000  0.00  0.00    +0.000 C 
ATOM     50  O   GLY A  14      12.592   1.028   0.000  0.00  0.00    +0.000 OA
ATOM     51  N   CYS A  15      13.327  -0.220   0.000  0.00  0.00    +0.000 NA
ATOM     52  CA  CYS A  15      14.024   0.220   0.000  0.00  0.00    +0.000 C 
ATOM     53  CB  CYS A  15      13.987   1.542   0.000  0.00  0.00    +0.000 C 
ATOM     54  SG  CYS A  15      15.346   2.643   0.000  0.00  0.00    +0.000 S 
ENDROOT
BRANCH  52  55
ATOM     55  C   CYS A  15      14.758  -0.220   0.000  0.00  0.00    +0.000 C 
ATOM     56  O   CYS A  15      14.758  -1.028   0.000  0.00  0.00    +0.000 OA
ATOM     57  N   LEU A  16      15.493   0.220   0.000  0.00  0.00    +0.000 NA
BRANCH  57  58
ATOM     58  CA  LEU A  16      16.190  -0.220   0.000  0.00  0.00    +0.000 C 
BRANCH  58  59
ATOM     59  C   LEU A  16      16.190  -1.028   0.000  0.00  0.00    +0.000 C 
ATOM     60  O   LEU A  16      16.924  -1.432   0.000  0.00  0.00    +0.000 OA
ATOM     61  OXT LEU A  16      15.493  -1.432   0.000  0.00  0.00    +0.000 OA
ENDBRANCH  58  59
BRANCH  58  62
ATOM     62  CB  LEU A  16      16.924   0.220   0.000  0.00  0.00    +0.000 C 
BRANCH  62  63
ATOM     63  CG  LEU A  16      17.622  -0.220   0.000  0.00  0.00    +0.000 C 
ATOM     64  CD1 LEU A  16      18.356   0.220   0.000  0.00  0.00    +0.000 C 
ATOM     65  CD2 LEU A  16      17.622  -1.028   0.000  0.00  0.00    +0.000 C 
ENDBRANCH  62  63
ENDBRANCH  58  62
ENDBRANCH  57  58
ENDBRANCH  52  55
BRANCH  44  66
ATOM     66  CB  THR A  13       9.729   1.028   0.000  0.00  0.00    +0.000 C 
ATOM     67  OG1 THR A  13      10.426   1.468   0.000  0.00  0.00    +0.000 OA
ATOM     68  CG2 THR A  13       8.995   1.468   0.000  0.00  0.00    +0.000 C 
ENDBRANCH  44  66
BRANCH  29  69
ATOM     69  CB  VAL A  10       3.231  -1.028   0.000  0.00  0.00    +0.000 C 
ATOM     70  CG1 VAL A  10       3.965  -1.432   0.000  0.00  0.00    +0.000 C 
ATOM     71  CG2 VAL A  10       2.533  -1.432   0.000  0.00  0.00    +0.000 C 
ENDBRANCH  29  69
BRANCH  21  72
ATOM     72  CB  VAL A   8      -1.065  -1.028   0.000  0.00  0.00    +0.000 C 
ATOM     73  CG1 VAL A   8      -0.367  -1.432   0.000  0.00  0.00    +0.000 C 
ATOM     74  CG2 VAL A   8      -1.799  -1.432   0.000  0.00  0.00    +0.000 C 
ENDBRANCH  21  72
BRANCH   1  77
ATOM     75  C   GLU A   3     -11.161  -0.220   0.000  0.00  0.00    +0.000 C 
ATOM     76  O   GLU A   3     -11.161  -1.028   0.000  0.00  0.00    +0.000 OA
ATOM     77  N   CYS A   4     -10.426   0.220   0.000  0.00  0.00    +0.000 NA
BRANCH  75  78
ATOM     78  CA  GLU A   3     -11.895   0.220   0.000  0.00  0.00    +0.000 C 
BRANCH  78  81
ATOM     79  C   ASP A   2     -13.327   0.220   0.000  0.00  0.00    +0.000 C 
ATOM     80  O   ASP A   2     -13.327   1.028   0.000  0.00  0.00    +0.000 OA
ATOM     81  N   GLU A   3     -12.592  -0.220   0.000  0.00  0.00    +0.000 NA
BRANCH  79  82
ATOM     82  CA  ASP A   2     -14.024  -0.220   0.000  0.00  0.00    +0.000 C 
BRANCH  82  85
ATOM     83  C   ASN A   1     -15.493  -0.220   0.000  0.00  0.00    +0.000 C 
ATOM     84  O   ASN A   1     -15.493  -1.028   0.000  0.00  0.00    +0.000 OA
ATOM     85  N   ASP A   2     -14.758   0.220   0.000  0.00  0.00    +0.000 NA
BRANCH  83  87
ATOM     86  N   ASN A   1     -16.190   1.028   0.000  0.00  0.00    +0.000 NA
ATOM     87  CA  ASN A   1     -16.190   0.220   0.000  0.00  0.00    +0.000 C 
BRANCH  87  88
ATOM     88  CB  ASN A   1     -16.924  -0.220   0.000  0.00  0.00    +0.000 C 
BRANCH  88  89
ATOM     89  CG  ASN A   1     -17.622   0.220   0.000  0.00  0.00    +0.000 C 
ATOM     90  ND2 ASN A   1     -18.356  -0.220   0.000  0.00  0.00    +0.000 NA
ATOM     91  OD1 ASN A   1     -17.622   1.028   0.000  0.00  0.00    +0.000 OA
ENDBRANCH  88  89
ENDBRANCH  87  88
ENDBRANCH  83  87
ENDBRANCH  82  85
BRANCH  82  92
ATOM     92  CB  ASP A   2     -14.024  -1.028   0.000  0.00  0.00    +0.000 C 
BRANCH  92  93
ATOM     93  CG  ASP A   2     -13.327  -1.432   0.000  0.00  0.00    +0.000 C 
ATOM     94  OD1 ASP A   2     -12.592  -1.028   0.000  0.00  0.00    +0.000 OA
ATOM     95  OD2 ASP A   2     -13.327  -2.276   0.000  0.00  0.00    +0.000 OA
ENDBRANCH  92  93
ENDBRANCH  82  92
ENDBRANCH  79  82
ENDBRANCH  78  81
BRANCH  78  96
ATOM     96  CB  GLU A   3     -11.895   1.028   0.000  0.00  0.00    +0.000 C 
BRANCH  96  97
ATOM     97  CG  GLU A   3     -11.161   1.468   0.000  0.00  0.00    +0.000 C 
BRANCH  97  98
ATOM     98  CD  GLU A   3     -11.161   2.276   0.000  0.00  0.00    +0.000 C 
ATOM     99  OE1 GLU A   3     -11.895   2.717   0.000  0.00  0.00    +0.000 OA
ATOM    100  OE2 GLU A   3     -10.426   2.717   0.000  0.00  0.00    +0.000 OA
ENDBRANCH  97  98
ENDBRANCH  96  97
ENDBRANCH  78  96
ENDBRANCH  75  78
ENDBRANCH   1  77
BRANCH  11 101
ATOM    101  CB  LEU A   6      -5.397  -1.028   0.000  0.00  0.00    +0.000 C 
BRANCH 101 102
ATOM    102  CG  LEU A   6      -4.662  -1.432   0.000  0.00  0.00    +0.000 C 
ATOM    103  CD1 LEU A   6      -3.965  -1.028   0.000  0.00  0.00    +0.000 C 
ATOM    104  CD2 LEU A   6      -4.662  -2.276   0.000  0.00  0.00    +0.000 C 
ENDBRANCH 101 102
ENDBRANCH  11 101
BRANCH  25 105
ATOM    105  CB  ASN A   9       1.065   1.028   0.000  0.00  0.00    +0.000 C 
BRANCH 105 106
ATOM    106  CG  ASN A   9       1.799   1.468   0.000  0.00  0.00    +0.000 C 
ATOM    107  ND2 ASN A   9       1.799   2.276   0.000  0.00  0.00    +0.000 NA
ATOM    108  OD1 ASN A   9       2.533   1.028   0.000  0.00  0.00    +0.000 OA
ENDBRANCH 105 106
ENDBRANCH  25 105
BRANCH   7 109
ATOM    109  CB  GLU A   5      -7.563   1.028   0.000  0.00  0.00    +0.000 C 
BRANCH 109 110
ATOM    110  CG  GLU A   5      -6.829   1.468   0.000  0.00  0.00    +0.000 C 
BRANCH 110 111
ATOM    111  CD  GLU A   5      -6.829   2.276   0.000  0.00  0.00    +0.000 C 
ATOM    112  OE1 GLU A   5      -7.563   2.717   0.000  0.00  0.00    +0.000 OA
ATOM    113  OE2 GLU A   5      -6.131   2.717   0.000  0.00  0.00    +0.000 OA
ENDBRANCH 110 111
ENDBRANCH 109 110
ENDBRANCH   7 109
TORSDOF 28
