REMARK  Name = 
REMARK  19 active torsions:
REMARK  status: ('A' for Active; 'I' for Inactive)
REMARK    1  A    between atoms: C_1  and  N_4
REMARK    2  A    between atoms: C_5  and  C_11
REMARK    3  A    between atoms: C_9  and  C_12
REMARK    4  A    between atoms: C_12  and  C_17
REMARK    5  A    between atoms: C_17  and  O_18
REMARK    6  A    between atoms: O_18  and  C_19
REMARK    7  A    between atoms: C_19  and  C_20
REMARK    8  A    between atoms: C_20  and  O_21
REMARK    9  A    between atoms: O_21  and  C_22
REMARK   10  A    between atoms: C_22  and  C_23
REMARK   11  A    between atoms: C_23  and  O_24
REMARK   12  A    between atoms: O_24  and  C_25
REMARK   13  A    between atoms: C_25  and  C_26
REMARK   14  A    between atoms: C_26  and  O_27
REMARK   15  A    between atoms: O_27  and  C_28
REMARK   16  A    between atoms: C_28  and  C_29
REMARK   17  A    between atoms: C_29  and  C_30
REMARK   18  A    between atoms: N_31  and  C_33
REMARK   19  A    between atoms: C_36  and  C_41
REMARK                            x       y       z     vdW  Elec       q    Type
REMARK                         _______ _______ _______ _____ _____    ______ ____
ROOT
ATOM      1  C   UNL     1       0.003   0.411   0.000  0.00  0.00    +0.000 C 
ENDROOT
BRANCH   1   2
ATOM      2  O   UNL     1      -0.699   0.800   0.000  0.00  0.00    +0.000 OA
BRANCH   2   3
ATOM      3  C   UNL     1      -1.427   0.411   0.000  0.00  0.00    +0.000 C 
BRANCH   3   4
ATOM      4  C   UNL     1      -2.154   0.800   0.000  0.00  0.00    +0.000 C 
BRANCH   4   5
ATOM      5  O   UNL     1      -2.882   0.448   0.000  0.00  0.00    +0.000 OA
BRANCH   5   6
ATOM      6  C   UNL     1      -3.597   0.800   0.000  0.00  0.00    +0.000 C 
BRANCH   6   7
ATOM      7  C   UNL     1      -4.325   0.411   0.000  0.00  0.00    +0.000 C 
BRANCH   7   9
ATOM      8  N   UNL     1      -5.792   0.448   0.000  0.00  0.00    +0.000 NA
ATOM      9  C   UNL     1      -5.090   0.837   0.000  0.00  0.00    +0.000 C 
ATOM     10  O   UNL     1      -5.090   1.678   0.000  0.00  0.00    +0.000 OA
BRANCH   8  11
ATOM     11  C   UNL     1      -6.520   0.837   0.000  0.00  0.00    +0.000 A 
ATOM     12  C   UNL     1      -7.247   0.448   0.000  0.00  0.00    +0.000 A 
ATOM     13  C   UNL     1      -6.520   1.678   0.000  0.00  0.00    +0.000 A 
ATOM     14  C   UNL     1      -7.975   0.837   0.000  0.00  0.00    +0.000 A 
ATOM     15  I   UNL     1      -7.247  -0.386   0.000  0.00  0.00    +0.000 I 
ATOM     16  C   UNL     1      -7.247   2.073   0.000  0.00  0.00    +0.000 A 
ATOM     17  I   UNL     1      -5.755   2.073   0.000  0.00  0.00    +0.000 I 
ATOM     18  C   UNL     1      -7.975   1.678   0.000  0.00  0.00    +0.000 A 
ATOM     19  I   UNL     1      -8.690   2.111   0.000  0.00  0.00    +0.000 I 
BRANCH  14  20
ATOM     20  C   UNL     1      -8.690   0.448   0.000  0.00  0.00    +0.000 C 
ATOM     21  O   UNL     1      -8.690  -0.348   0.000  0.00  0.00    +0.000 OA
ATOM     22  O   UNL     1      -9.430   0.856   0.000  0.00  0.00    +0.000 OA
ENDBRANCH  14  20
ENDBRANCH   8  11
ENDBRANCH   7   9
ENDBRANCH   6   7
ENDBRANCH   5   6
ENDBRANCH   4   5
ENDBRANCH   3   4
ENDBRANCH   2   3
ENDBRANCH   1   2
BRANCH   1  23
ATOM     23  C   UNL     1       0.712   0.800   0.000  0.00  0.00    +0.000 C 
BRANCH  23  24
ATOM     24  O   UNL     1       1.427   0.411   0.000  0.00  0.00    +0.000 OA
BRANCH  24  25
ATOM     25  C   UNL     1       2.167   0.800   0.000  0.00  0.00    +0.000 C 
BRANCH  25  26
ATOM     26  C   UNL     1       2.895   0.411   0.000  0.00  0.00    +0.000 C 
BRANCH  26  27
ATOM     27  O   UNL     1       3.610   0.800   0.000  0.00  0.00    +0.000 OA
BRANCH  27  28
ATOM     28  C   UNL     1       4.337   0.411   0.000  0.00  0.00    +0.000 C 
BRANCH  28  29
ATOM     29  C   UNL     1       5.096   0.800   0.000  0.00  0.00    +0.000 C 
BRANCH  29  30
ATOM     30  C   UNL     1       5.805   0.411   0.000  0.00  0.00    +0.000 C 
ATOM     31  N   UNL     1       6.532   0.775   0.000  0.00  0.00    +0.000 NA
ATOM     32  O   UNL     1       5.805  -0.411   0.000  0.00  0.00    +0.000 OA
BRANCH  31  33
ATOM     33  C   UNL     1       7.260   0.380   0.000  0.00  0.00    +0.000 A 
ATOM     34  C   UNL     1       7.260  -0.417   0.000  0.00  0.00    +0.000 A 
ATOM     35  C   UNL     1       7.988   0.768   0.000  0.00  0.00    +0.000 A 
ATOM     36  C   UNL     1       7.988  -0.862   0.000  0.00  0.00    +0.000 A 
ATOM     37  I   UNL     1       6.532  -0.837   0.000  0.00  0.00    +0.000 I 
ATOM     38  C   UNL     1       8.703   0.380   0.000  0.00  0.00    +0.000 A 
ATOM     39  I   UNL     1       8.032   1.590   0.000  0.00  0.00    +0.000 I 
ATOM     40  C   UNL     1       8.703  -0.417   0.000  0.00  0.00    +0.000 A 
ATOM     41  I   UNL     1       9.430  -0.862   0.000  0.00  0.00    +0.000 I 
BRANCH  36  42
ATOM     42  C   UNL     1       7.988  -1.690   0.000  0.00  0.00    +0.000 C 
ATOM     43  O   UNL     1       7.260  -2.073   0.000  0.00  0.00    +0.000 OA
ATOM     44  O   UNL     1       8.703  -2.111   0.000  0.00  0.00    +0.000 OA
ENDBRANCH  36  42
ENDBRANCH  31  33
ENDBRANCH  29  30
ENDBRANCH  28  29
ENDBRANCH  27  28
ENDBRANCH  26  27
ENDBRANCH  25  26
ENDBRANCH  24  25
ENDBRANCH  23  24
ENDBRANCH   1  23
TORSDOF 19
