REMARK  Name = 
REMARK  11 active torsions:
REMARK  status: ('A' for Active; 'I' for Inactive)
REMARK    1  A    between atoms: C_2  and  C_11
REMARK    2  A    between atoms: C_4  and  N_10
REMARK    3  A    between atoms: C_6  and  C_19
REMARK    4  A    between atoms: N_10  and  C_28
REMARK    5  A    between atoms: N_12  and  C_13
REMARK    6  A    between atoms: C_13  and  C_14
REMARK    7  A    between atoms: C_14  and  C_15
REMARK    8  A    between atoms: N_20  and  C_22
REMARK    9  A    between atoms: C_22  and  C_23
REMARK   10  A    between atoms: C_28  and  C_29
REMARK   11  A    between atoms: C_29  and  C_30
REMARK                            x       y       z     vdW  Elec       q    Type
REMARK                         _______ _______ _______ _____ _____    ______ ____
ROOT
ATOM      1  C   UNL     1      -0.003   0.826   0.000  0.00  0.00    +0.000 A 
ATOM      2  C   UNL     1      -0.003   0.001   0.000  0.00  0.00    +0.000 A 
ATOM      3  C   UNL     1       0.712  -0.412   0.000  0.00  0.00    +0.000 A 
ATOM      4  C   UNL     1       1.426   0.001   0.000  0.00  0.00    +0.000 A 
ATOM      5  C   UNL     1       1.426   0.826   0.000  0.00  0.00    +0.000 A 
ATOM      6  C   UNL     1       0.712   1.238   0.000  0.00  0.00    +0.000 A 
ATOM      7  I   UNL     1       2.142   1.238   0.000  0.00  0.00    +0.000 I 
ATOM      8  I   UNL     1      -0.717   1.238   0.000  0.00  0.00    +0.000 I 
ATOM      9  I   UNL     1       0.712  -1.237   0.000  0.00  0.00    +0.000 I 
ENDROOT
BRANCH   4  10
ATOM     10  N   UNL     1       2.142  -0.412   0.000  0.00  0.00    +0.000 N 
ATOM     11  C   UNL     1       2.858   0.002   0.000  0.00  0.00    +0.000 C 
ATOM     12  C   UNL     1       3.575  -0.411   0.000  0.00  0.00    +0.000 C 
ATOM     13  O   UNL     1       2.857   0.825   0.000  0.00  0.00    +0.000 OA
BRANCH  10  14
ATOM     14  C   UNL     1       2.142  -1.238   0.000  0.00  0.00    +0.000 C 
BRANCH  14  15
ATOM     15  C   UNL     1       2.859  -1.651   0.000  0.00  0.00    +0.000 C 
ATOM     16  O   UNL     1       2.859  -2.476   0.000  0.00  0.00    +0.000 OA
BRANCH  15  17
ATOM     17  C   UNL     1       3.574  -1.238   0.000  0.00  0.00    +0.000 C 
ATOM     18  O   UNL     1       4.290  -1.650   0.000  0.00  0.00    +0.000 OA
ENDBRANCH  15  17
ENDBRANCH  14  15
ENDBRANCH  10  14
ENDBRANCH   4  10
BRANCH   2  19
ATOM     19  C   UNL     1      -0.717  -0.412   0.000  0.00  0.00    +0.000 C 
ATOM     20  N   UNL     1      -1.432   0.001   0.000  0.00  0.00    +0.000 NA
ATOM     21  O   UNL     1      -0.717  -1.238   0.000  0.00  0.00    +0.000 OA
BRANCH  20  22
ATOM     22  C   UNL     1      -2.146  -0.412   0.000  0.00  0.00    +0.000 C 
BRANCH  22  23
ATOM     23  C   UNL     1      -2.861   0.001   0.000  0.00  0.00    +0.000 C 
ATOM     24  O   UNL     1      -2.861   0.825   0.000  0.00  0.00    +0.000 OA
BRANCH  23  25
ATOM     25  C   UNL     1      -3.575  -0.412   0.000  0.00  0.00    +0.000 C 
ATOM     26  O   UNL     1      -4.290   0.001   0.000  0.00  0.00    +0.000 OA
ENDBRANCH  23  25
ENDBRANCH  22  23
ENDBRANCH  20  22
ENDBRANCH   2  19
BRANCH   6  27
ATOM     27  C   UNL     1       0.712   2.063   0.000  0.00  0.00    +0.000 C 
ATOM     28  N   UNL     1       1.428   2.476   0.000  0.00  0.00    +0.000 NA
ATOM     29  O   UNL     1      -0.002   2.474   0.000  0.00  0.00    +0.000 OA
BRANCH  28  30
ATOM     30  C   UNL     1       2.143   2.063   0.000  0.00  0.00    +0.000 C 
BRANCH  30  31
ATOM     31  C   UNL     1       2.858   2.475   0.000  0.00  0.00    +0.000 C 
ATOM     32  O   UNL     1       3.572   2.063   0.000  0.00  0.00    +0.000 OA
ENDBRANCH  30  31
ENDBRANCH  28  30
ENDBRANCH   6  27
TORSDOF 11
