REMARK  Name = 
REMARK  4 active torsions:
REMARK  status: ('A' for Active; 'I' for Inactive)
REMARK    1  A    between atoms: C_4  and  S_32
REMARK    2  A    between atoms: C_6  and  C_7
REMARK    3  A    between atoms: C_7  and  C_21
REMARK    4  A    between atoms: C_25  and  S_27
REMARK                            x       y       z     vdW  Elec       q    Type
REMARK                         _______ _______ _______ _____ _____    ______ ____
ROOT
ATOM      1  C   UNL     1      -0.143  -1.365   0.000  0.00  0.00    +0.000 C 
ATOM      2  C   UNL     1       0.641  -1.110   0.000  0.00  0.00    +0.000 A 
ATOM      3  C   UNL     1       0.641  -0.285   0.000  0.00  0.00    +0.000 A 
ATOM      4  C   UNL     1       1.356   0.127   0.000  0.00  0.00    +0.000 A 
ATOM      5  C   UNL     1       2.070  -0.285   0.000  0.00  0.00    +0.000 A 
ATOM      6  C   UNL     1       2.070  -1.110   0.000  0.00  0.00    +0.000 A 
ATOM      7  C   UNL     1       1.356  -1.523   0.000  0.00  0.00    +0.000 A 
ATOM      8 BR   UNL     1       1.356  -2.348   0.000  0.00  0.00    +0.000 Br
ATOM      9 BR   UNL     1       2.784  -1.523   0.000  0.00  0.00    +0.000 Br
ATOM     10 BR   UNL     1       2.784   0.127   0.000  0.00  0.00    +0.000 Br
ATOM     11 BR   UNL     1       1.356   0.952   0.000  0.00  0.00    +0.000 Br
ATOM     12  C   UNL     1      -0.143  -0.030   0.000  0.00  0.00    +0.000 C 
ATOM     13  O   UNL     1      -0.398   0.754   0.000  0.00  0.00    +0.000 OA
ATOM     14  O   UNL     1      -0.628  -0.698   0.000  0.00  0.00    +0.000 OA
ENDROOT
BRANCH   1  20
ATOM     15  C   UNL     1      -1.572  -1.365   0.000  0.00  0.00    +0.000 A 
ATOM     16  C   UNL     1      -2.287  -1.778   0.000  0.00  0.00    +0.000 A 
ATOM     17  C   UNL     1      -2.287  -2.603   0.000  0.00  0.00    +0.000 A 
ATOM     18  C   UNL     1      -1.572  -3.015   0.000  0.00  0.00    +0.000 A 
ATOM     19  C   UNL     1      -0.858  -2.603   0.000  0.00  0.00    +0.000 A 
ATOM     20  C   UNL     1      -0.858  -1.778   0.000  0.00  0.00    +0.000 A 
ATOM     21  O   UNL     1      -3.001  -3.015   0.000  0.00  0.00    +0.000 OA
BRANCH  18  22
ATOM     22  S   UNL     1      -1.572  -3.840   0.000  0.00  0.00    +0.000 S 
ATOM     23  O   UNL     1      -1.572  -4.665   0.000  0.00  0.00    +0.000 OA
ATOM     24  O   UNL     1      -0.747  -3.840   0.000  0.00  0.00    +0.000 OA
ATOM     25  O   UNL     1      -2.397  -3.840   0.000  0.00  0.00    +0.000 OA
ENDBRANCH  18  22
ENDBRANCH   1  20
BRANCH   1  26
ATOM     26  C   UNL     1       0.192  -2.119   0.000  0.00  0.00    +0.000 A 
ATOM     27  C   UNL     1      -0.293  -2.787   0.000  0.00  0.00    +0.000 A 
ATOM     28  C   UNL     1       0.043  -3.540   0.000  0.00  0.00    +0.000 A 
ATOM     29  C   UNL     1       0.863  -3.626   0.000  0.00  0.00    +0.000 A 
ATOM     30  C   UNL     1       1.348  -2.959   0.000  0.00  0.00    +0.000 A 
ATOM     31  C   UNL     1       1.012  -2.205   0.000  0.00  0.00    +0.000 A 
ATOM     32  O   UNL     1       1.199  -4.380   0.000  0.00  0.00    +0.000 OA
BRANCH  30  33
ATOM     33  S   UNL     1       2.169  -3.045   0.000  0.00  0.00    +0.000 S 
ATOM     34  O   UNL     1       2.989  -3.131   0.000  0.00  0.00    +0.000 OA
ATOM     35  O   UNL     1       2.255  -2.225   0.000  0.00  0.00    +0.000 OA
ATOM     36  O   UNL     1       2.082  -3.866   0.000  0.00  0.00    +0.000 OA
ENDBRANCH  30  33
ENDBRANCH   1  26
TORSDOF 4
