REMARK  Name = 
REMARK  4 active torsions:
REMARK  status: ('A' for Active; 'I' for Inactive)
REMARK    1  A    between atoms: O_2  and  C_3
REMARK    2  A    between atoms: C_5  and  C_6
REMARK    3  A    between atoms: C_12  and  C_14
REMARK    4  A    between atoms: C_25  and  N_28
REMARK                            x       y       z     vdW  Elec       q    Type
REMARK                         _______ _______ _______ _____ _____    ______ ____
ROOT
ATOM      1  C   UNL     1      -0.941   0.680   0.000  0.00  0.00    +0.000 C 
ATOM      2  O   UNL     1      -0.154   0.433   0.000  0.00  0.00    +0.000 OA
ATOM      3  N   UNL     1      -1.548   0.122   0.000  0.00  0.00    +0.000 N 
ATOM      4  C   UNL     1      -2.357   0.285   0.000  0.00  0.00    +0.000 C 
ATOM      5  C   UNL     1      -2.762  -0.434   0.000  0.00  0.00    +0.000 C 
ATOM      6  C   UNL     1      -2.204  -1.041   0.000  0.00  0.00    +0.000 C 
ATOM      7  C   UNL     1      -1.453  -0.698   0.000  0.00  0.00    +0.000 C 
ATOM      8  C   UNL     1      -1.026  -1.404   0.000  0.00  0.00    +0.000 C 
ENDROOT
BRANCH   7   9
ATOM      9  C   UNL     1      -0.628  -0.698   0.000  0.00  0.00    +0.000 A 
ATOM     10  N   UNL     1      -0.143  -1.365   0.000  0.00  0.00    +0.000 NA
ATOM     11  C   UNL     1       0.641  -1.110   0.000  0.00  0.00    +0.000 A 
ATOM     12  C   UNL     1       0.641  -0.285   0.000  0.00  0.00    +0.000 A 
ATOM     13  N   UNL     1      -0.143  -0.030   0.000  0.00  0.00    +0.000 NA
ATOM     14  C   UNL     1       1.356   0.127   0.000  0.00  0.00    +0.000 A 
ATOM     15  C   UNL     1       2.070  -0.285   0.000  0.00  0.00    +0.000 A 
ATOM     16  C   UNL     1       2.070  -1.110   0.000  0.00  0.00    +0.000 A 
ATOM     17 CL   UNL     1       2.784  -1.523   0.000  0.00  0.00    +0.000 Cl
ATOM     18  C   UNL     1       1.356  -1.523   0.000  0.00  0.00    +0.000 A 
ATOM     19  C   UNL     1       1.356  -2.348   0.000  0.00  0.00    +0.000 C 
ENDBRANCH   7   9
BRANCH   1  22
ATOM     20  C   UNL     1      -2.088   2.537   0.000  0.00  0.00    +0.000 A 
ATOM     21  C   UNL     1      -1.908   1.732   0.000  0.00  0.00    +0.000 A 
ATOM     22  C   UNL     1      -1.121   1.485   0.000  0.00  0.00    +0.000 A 
ATOM     23  C   UNL     1      -0.514   2.044   0.000  0.00  0.00    +0.000 A 
ATOM     24  C   UNL     1      -0.694   2.849   0.000  0.00  0.00    +0.000 A 
ATOM     25  C   UNL     1      -1.481   3.095   0.000  0.00  0.00    +0.000 A 
BRANCH  23  26
ATOM     26  N   UNL     1       0.274   1.797   0.000  0.00  0.00    +0.000 N 
ATOM     27  N   UNL     1       0.936   2.289   0.000  0.00  0.00    +0.000 NA
ATOM     28  C   UNL     1       1.608   1.811   0.000  0.00  0.00    +0.000 A 
ATOM     29  C   UNL     1       1.362   1.024   0.000  0.00  0.00    +0.000 A 
ATOM     30  N   UNL     1       0.537   1.015   0.000  0.00  0.00    +0.000 NA
ENDBRANCH  23  26
BRANCH  20  32
ATOM     31  C   UNL     1      -3.483   2.225   0.000  0.00  0.00    +0.000 C 
ATOM     32  O   UNL     1      -2.875   2.784   0.000  0.00  0.00    +0.000 OA
ENDBRANCH  20  32
ENDBRANCH   1  22
TORSDOF 4
