REMARK  Name = 
REMARK  5 active torsions:
REMARK  status: ('A' for Active; 'I' for Inactive)
REMARK    1  A    between atoms: C_2  and  C_27
REMARK    2  A    between atoms: C_27  and  C_30
REMARK    3  A    between atoms: C_30  and  C_32
REMARK    4  A    between atoms: C_32  and  C_33
REMARK    5  A    between atoms: C_33  and  C_34
REMARK                            x       y       z     vdW  Elec       q    Type
REMARK                         _______ _______ _______ _____ _____    ______ ____
ROOT
ATOM      1  C   UNL     1       3.068  -2.490   0.000  0.00  0.00    +0.000 C 
ATOM      2  C   UNL     1       2.839  -1.697   0.000  0.00  0.00    +0.000 C 
ATOM      3  C   UNL     1       3.522  -1.234   0.000  0.00  0.00    +0.000 C 
ATOM      4  C   UNL     1       4.173  -1.740   0.000  0.00  0.00    +0.000 C 
ATOM      5  O   UNL     1       4.371  -0.939   0.000  0.00  0.00    +0.000 OA
ATOM      6  C   UNL     1       4.985  -1.595   0.000  0.00  0.00    +0.000 C 
ATOM      7  C   UNL     1       5.266  -0.819   0.000  0.00  0.00    +0.000 C 
ATOM      8  C   UNL     1       6.078  -0.674   0.000  0.00  0.00    +0.000 C 
ATOM      9  O   UNL     1       6.358   0.102   0.000  0.00  0.00    +0.000 OA
ATOM     10  C   UNL     1       6.609  -1.305   0.000  0.00  0.00    +0.000 C 
ATOM     11  C   UNL     1       7.422  -1.159   0.000  0.00  0.00    +0.000 C 
ATOM     12  C   UNL     1       7.953  -1.790   0.000  0.00  0.00    +0.000 C 
ATOM     13  O   UNL     1       8.765  -1.645   0.000  0.00  0.00    +0.000 OA
ATOM     14  C   UNL     1       7.673  -2.566   0.000  0.00  0.00    +0.000 C 
ATOM     15  O   UNL     1       8.205  -3.197   0.000  0.00  0.00    +0.000 OA
ATOM     16  C   UNL     1       6.861  -2.711   0.000  0.00  0.00    +0.000 C 
ATOM     17  C   UNL     1       6.329  -2.081   0.000  0.00  0.00    +0.000 C 
ATOM     18  C   UNL     1       6.049  -2.857   0.000  0.00  0.00    +0.000 C 
ATOM     19  C   UNL     1       5.517  -2.226   0.000  0.00  0.00    +0.000 C 
ATOM     20  C   UNL     1       5.237  -3.002   0.000  0.00  0.00    +0.000 C 
ATOM     21  C   UNL     1       4.425  -3.147   0.000  0.00  0.00    +0.000 C 
ATOM     22  C   UNL     1       3.893  -2.516   0.000  0.00  0.00    +0.000 C 
ATOM     23  C   UNL     1       3.533  -3.259   0.000  0.00  0.00    +0.000 C 
ENDROOT
BRANCH   1  24
ATOM     24  C   UNL     1       2.562  -3.141   0.000  0.00  0.00    +0.000 C 
ATOM     25  C   UNL     1       1.911  -2.635   0.000  0.00  0.00    +0.000 C 
ATOM     26  O   UNL     1       3.213  -3.647   0.000  0.00  0.00    +0.000 OA
BRANCH  24  27
ATOM     27  C   UNL     1       2.056  -3.792   0.000  0.00  0.00    +0.000 C 
ATOM     28  O   UNL     1       1.238  -3.679   0.000  0.00  0.00    +0.000 OA
BRANCH  27  29
ATOM     29  C   UNL     1       2.366  -4.556   0.000  0.00  0.00    +0.000 C 
BRANCH  29  30
ATOM     30  C   UNL     1       1.860  -5.208   0.000  0.00  0.00    +0.000 C 
BRANCH  30  31
ATOM     31  C   UNL     1       2.171  -5.972   0.000  0.00  0.00    +0.000 C 
ATOM     32  C   UNL     1       2.482  -6.736   0.000  0.00  0.00    +0.000 C 
ATOM     33  C   UNL     1       1.407  -6.283   0.000  0.00  0.00    +0.000 C 
ATOM     34  O   UNL     1       2.935  -5.661   0.000  0.00  0.00    +0.000 OA
ENDBRANCH  30  31
ENDBRANCH  29  30
ENDBRANCH  27  29
ENDBRANCH  24  27
ENDBRANCH   1  24
TORSDOF 5
