REMARK  Name = 
REMARK  14 active torsions:
REMARK  status: ('A' for Active; 'I' for Inactive)
REMARK    1  A    between atoms: C_7  and  C_39
REMARK    2  A    between atoms: N_9  and  C_12
REMARK    3  A    between atoms: C_12  and  C_13
REMARK    4  A    between atoms: N_17  and  C_18
REMARK    5  A    between atoms: C_18  and  C_19
REMARK    6  A    between atoms: C_19  and  C_20
REMARK    7  A    between atoms: C_20  and  C_21
REMARK    8  A    between atoms: C_21  and  C_22
REMARK    9  A    between atoms: C_25  and  O_28
REMARK   10  A    between atoms: O_28  and  C_29
REMARK   11  A    between atoms: C_29  and  C_30
REMARK   12  A    between atoms: C_30  and  C_31
REMARK   13  A    between atoms: C_31  and  N_32
REMARK   14  A    between atoms: C_39  and  C_40
REMARK                            x       y       z     vdW  Elec       q    Type
REMARK                         _______ _______ _______ _____ _____    ______ ____
ROOT
ATOM      1  C   UNL     1       2.858  -2.475   0.000  0.00  0.00    +0.000 C 
ATOM      2  C   UNL     1       2.190  -2.960   0.000  0.00  0.00    +0.000 C 
ATOM      3  C   UNL     1       2.445  -3.744   0.000  0.00  0.00    +0.000 C 
ATOM      4  C   UNL     1       3.270  -3.744   0.000  0.00  0.00    +0.000 C 
ATOM      5  N   UNL     1       3.525  -2.960   0.000  0.00  0.00    +0.000 NA
ENDROOT
BRANCH   1   6
ATOM      6  C   UNL     1       2.858  -1.650   0.000  0.00  0.00    +0.000 C 
BRANCH   6  15
ATOM      7  C   UNL     1      -0.715  -0.412   0.000  0.00  0.00    +0.000 A 
ATOM      8  C   UNL     1      -0.715  -1.238   0.000  0.00  0.00    +0.000 A 
ATOM      9  C   UNL     1       0.000  -1.650   0.000  0.00  0.00    +0.000 A 
ATOM     10  C   UNL     1       0.715  -1.238   0.000  0.00  0.00    +0.000 A 
ATOM     11  C   UNL     1       0.715  -0.412   0.000  0.00  0.00    +0.000 A 
ATOM     12  C   UNL     1       0.000   0.000   0.000  0.00  0.00    +0.000 A 
ATOM     13  C   UNL     1       1.429   0.000   0.000  0.00  0.00    +0.000 A 
ATOM     14  N   UNL     1       2.143  -0.412   0.000  0.00  0.00    +0.000 NA
ATOM     15  N   UNL     1       2.143  -1.238   0.000  0.00  0.00    +0.000 N 
ATOM     16  C   UNL     1       1.429  -1.650   0.000  0.00  0.00    +0.000 A 
ATOM     17  O   UNL     1       1.429  -2.475   0.000  0.00  0.00    +0.000 OA
BRANCH  13  18
ATOM     18  C   UNL     1       1.429   0.825   0.000  0.00  0.00    +0.000 C 
BRANCH  18  19
ATOM     19  C   UNL     1       2.143   1.238   0.000  0.00  0.00    +0.000 A 
ATOM     20  C   UNL     1       2.143   2.062   0.000  0.00  0.00    +0.000 A 
ATOM     21  C   UNL     1       2.858   2.475   0.000  0.00  0.00    +0.000 A 
ATOM     22  C   UNL     1       3.572   2.062   0.000  0.00  0.00    +0.000 A 
ATOM     23  C   UNL     1       3.572   1.238   0.000  0.00  0.00    +0.000 A 
ATOM     24  C   UNL     1       2.858   0.825   0.000  0.00  0.00    +0.000 A 
ATOM     25 CL   UNL     1       4.287   2.475   0.000  0.00  0.00    +0.000 Cl
ENDBRANCH  18  19
ENDBRANCH  13  18
ENDBRANCH   6  15
ENDBRANCH   1   6
BRANCH   5  26
ATOM     26  C   UNL     1       4.310  -2.705   0.000  0.00  0.00    +0.000 C 
BRANCH  26  27
ATOM     27  C   UNL     1       4.923  -3.257   0.000  0.00  0.00    +0.000 C 
BRANCH  27  28
ATOM     28  C   UNL     1       5.708  -3.002   0.000  0.00  0.00    +0.000 C 
BRANCH  28  29
ATOM     29  C   UNL     1       6.321  -3.554   0.000  0.00  0.00    +0.000 C 
BRANCH  29  30
ATOM     30  C   UNL     1       6.149  -4.361   0.000  0.00  0.00    +0.000 A 
ATOM     31  C   UNL     1       6.762  -4.913   0.000  0.00  0.00    +0.000 A 
ATOM     32  C   UNL     1       6.591  -5.720   0.000  0.00  0.00    +0.000 A 
ATOM     33  C   UNL     1       5.806  -5.975   0.000  0.00  0.00    +0.000 A 
ATOM     34  C   UNL     1       5.193  -5.423   0.000  0.00  0.00    +0.000 A 
ATOM     35  C   UNL     1       5.365  -4.616   0.000  0.00  0.00    +0.000 A 
BRANCH  33  36
ATOM     36  O   UNL     1       5.635  -6.782   0.000  0.00  0.00    +0.000 OA
BRANCH  36  37
ATOM     37  C   UNL     1       4.850  -7.037   0.000  0.00  0.00    +0.000 C 
BRANCH  37  38
ATOM     38  C   UNL     1       4.678  -7.844   0.000  0.00  0.00    +0.000 C 
BRANCH  38  39
ATOM     39  C   UNL     1       3.894  -8.099   0.000  0.00  0.00    +0.000 C 
BRANCH  39  40
ATOM     40  N   UNL     1       3.722  -8.906   0.000  0.00  0.00    +0.000 NA
ATOM     41  C   UNL     1       4.375  -9.411   0.000  0.00  0.00    +0.000 C 
ATOM     42  C   UNL     1       4.387 -10.235   0.000  0.00  0.00    +0.000 C 
ATOM     43  C   UNL     1       3.750 -10.759   0.000  0.00  0.00    +0.000 C 
ATOM     44  C   UNL     1       2.943 -10.588   0.000  0.00  0.00    +0.000 C 
ATOM     45  C   UNL     1       2.574  -9.850   0.000  0.00  0.00    +0.000 C 
ATOM     46  C   UNL     1       2.921  -9.101   0.000  0.00  0.00    +0.000 C 
ENDBRANCH  39  40
ENDBRANCH  38  39
ENDBRANCH  37  38
ENDBRANCH  36  37
ENDBRANCH  33  36
ENDBRANCH  29  30
ENDBRANCH  28  29
ENDBRANCH  27  28
ENDBRANCH  26  27
ENDBRANCH   5  26
TORSDOF 14
