REMARK  Name = 
REMARK  5 active torsions:
REMARK  status: ('A' for Active; 'I' for Inactive)
REMARK    1  A    between atoms: C_2  and  C_5
REMARK    2  A    between atoms: C_8  and  C_10
REMARK    3  A    between atoms: C_10  and  S_11
REMARK    4  A    between atoms: S_11  and  C_12
REMARK    5  A    between atoms: C_18  and  C_20
REMARK                            x       y       z     vdW  Elec       q    Type
REMARK                         _______ _______ _______ _____ _____    ______ ____
ROOT
ATOM      1  C   UNL     1       0.685  -8.217   0.000  0.00  0.00    +0.000 A 
ATOM      2  C   UNL     1       0.940  -9.002   0.000  0.00  0.00    +0.000 A 
ATOM      3  N   UNL     1       0.273  -9.487   0.000  0.00  0.00    +0.000 NA
ATOM      4  C   UNL     1      -0.395  -9.002   0.000  0.00  0.00    +0.000 A 
ATOM      5  S   UNL     1      -0.140  -8.217   0.000  0.00  0.00    +0.000 S 
ATOM      6  N   UNL     1      -1.179  -9.257   0.000  0.00  0.00    +0.000 NA
ATOM      7  C   UNL     1      -1.351 -10.064   0.000  0.00  0.00    +0.000 C 
ATOM      8  O   UNL     1      -0.738 -10.616   0.000  0.00  0.00    +0.000 OA
ENDROOT
BRANCH   7   9
ATOM      9  C   UNL     1      -2.135 -10.319   0.000  0.00  0.00    +0.000 C 
ATOM     10  C   UNL     1      -2.307 -11.126   0.000  0.00  0.00    +0.000 C 
ATOM     11  C   UNL     1      -3.091 -11.381   0.000  0.00  0.00    +0.000 C 
ATOM     12  N   UNL     1      -3.704 -10.829   0.000  0.00  0.00    +0.000 NA
ATOM     13  C   UNL     1      -3.533 -10.022   0.000  0.00  0.00    +0.000 C 
ATOM     14  C   UNL     1      -2.748  -9.767   0.000  0.00  0.00    +0.000 C 
ENDBRANCH   7   9
BRANCH   1  15
ATOM     15  S   UNL     1       1.170  -7.550   0.000  0.00  0.00    +0.000 S 
BRANCH  15  16
ATOM     16  C   UNL     1       1.991  -7.636   0.000  0.00  0.00    +0.000 C 
BRANCH  16  20
ATOM     17  C   UNL     1       2.888  -5.699   0.000  0.00  0.00    +0.000 A 
ATOM     18  C   UNL     1       3.556  -6.184   0.000  0.00  0.00    +0.000 A 
ATOM     19  N   UNL     1       3.301  -6.969   0.000  0.00  0.00    +0.000 NA
ATOM     20  C   UNL     1       2.476  -6.969   0.000  0.00  0.00    +0.000 A 
ATOM     21  O   UNL     1       2.221  -6.184   0.000  0.00  0.00    +0.000 OA
BRANCH  17  23
ATOM     22  C   UNL     1       2.888  -4.049   0.000  0.00  0.00    +0.000 C 
ATOM     23  C   UNL     1       2.888  -4.874   0.000  0.00  0.00    +0.000 C 
ATOM     24  C   UNL     1       2.063  -4.874   0.000  0.00  0.00    +0.000 C 
ATOM     25  C   UNL     1       3.713  -4.874   0.000  0.00  0.00    +0.000 C 
ENDBRANCH  17  23
ENDBRANCH  16  20
ENDBRANCH  15  16
ENDBRANCH   1  15
TORSDOF 5
