REMARK  Name = 
REMARK  5 active torsions:
REMARK  status: ('A' for Active; 'I' for Inactive)
REMARK    1  A    between atoms: C_1  and  N_5
REMARK    2  A    between atoms: C_2  and  O_13
REMARK    3  A    between atoms: N_5  and  S_15
REMARK    4  A    between atoms: C_9  and  N_19
REMARK    5  A    between atoms: O_13  and  C_14
REMARK                            x       y       z     vdW  Elec       q    Type
REMARK                         _______ _______ _______ _____ _____    ______ ____
ROOT
ATOM      1  C   UNL     1      -1.227   1.203   0.000  0.00  0.00    +0.000 A 
ATOM      2  C   UNL     1      -1.228   0.378   0.000  0.00  0.00    +0.000 A 
ATOM      3  C   UNL     1      -0.513  -0.035   0.000  0.00  0.00    +0.000 A 
ATOM      4  C   UNL     1      -0.515   1.613   0.000  0.00  0.00    +0.000 A 
ATOM      5  C   UNL     1       0.195   1.208   0.000  0.00  0.00    +0.000 A 
ATOM      6  C   UNL     1       0.200   0.376   0.000  0.00  0.00    +0.000 A 
ATOM      7  C   UNL     1       0.922  -0.033   0.000  0.00  0.00    +0.000 A 
ATOM      8  C   UNL     1       1.634   0.388   0.000  0.00  0.00    +0.000 A 
ATOM      9  C   UNL     1       1.625   1.222   0.000  0.00  0.00    +0.000 A 
ATOM     10  O   UNL     1       0.903   1.628   0.000  0.00  0.00    +0.000 OA
ATOM     11  O   UNL     1       0.913  -0.906   0.000  0.00  0.00    +0.000 OA
ENDROOT
BRANCH   8  12
ATOM     12  N   UNL     1       2.246  -0.227   0.000  0.00  0.00    +0.000 NA
ATOM     13  C   UNL     1       2.967   0.195   0.000  0.00  0.00    +0.000 C 
ATOM     14  O   UNL     1       3.689  -0.222   0.000  0.00  0.00    +0.000 OA
ENDBRANCH   8  12
BRANCH   1  15
ATOM     15  N   UNL     1      -1.947   1.617   0.000  0.00  0.00    +0.000 NA
BRANCH  15  16
ATOM     16  S   UNL     1      -2.816   1.625   0.000  0.00  0.00    +0.000 S 
ATOM     17  C   UNL     1      -3.689   1.629   0.000  0.00  0.00    +0.000 C 
ATOM     18  O   UNL     1      -2.820   0.752   0.000  0.00  0.00    +0.000 OA
ATOM     19  O   UNL     1      -2.820   2.494   0.000  0.00  0.00    +0.000 OA
ENDBRANCH  15  16
ENDBRANCH   1  15
BRANCH   2  20
ATOM     20  O   UNL     1      -1.947  -0.028   0.000  0.00  0.00    +0.000 OA
BRANCH  20  21
ATOM     21  C   UNL     1      -1.951  -0.851   0.000  0.00  0.00    +0.000 A 
ATOM     22  C   UNL     1      -2.668  -1.257   0.000  0.00  0.00    +0.000 A 
ATOM     23  C   UNL     1      -2.672  -2.078   0.000  0.00  0.00    +0.000 A 
ATOM     24  C   UNL     1      -1.962  -2.494   0.000  0.00  0.00    +0.000 A 
ATOM     25  C   UNL     1      -1.245  -2.082   0.000  0.00  0.00    +0.000 A 
ATOM     26  C   UNL     1      -1.244  -1.262   0.000  0.00  0.00    +0.000 A 
ENDBRANCH  20  21
ENDBRANCH   2  20
TORSDOF 5
