REMARK  Name = 
REMARK  7 active torsions:
REMARK  status: ('A' for Active; 'I' for Inactive)
REMARK    1  A    between atoms: C_2  and  C_4
REMARK    2  A    between atoms: C_4  and  C_5
REMARK    3  A    between atoms: C_4  and  C_23
REMARK    4  A    between atoms: C_10  and  O_19
REMARK    5  A    between atoms: C_11  and  O_15
REMARK    6  A    between atoms: O_15  and  C_16
REMARK    7  A    between atoms: O_19  and  C_20
REMARK                            x       y       z     vdW  Elec       q    Type
REMARK                         _______ _______ _______ _____ _____    ______ ____
ROOT
ATOM      1  C   UNL     1       0.715  -1.238   0.000  0.00  0.00    +0.000 A 
ATOM      2  C   UNL     1       0.715  -0.412   0.000  0.00  0.00    +0.000 A 
ATOM      3  C   UNL     1       1.429   0.000   0.000  0.00  0.00    +0.000 A 
ATOM      4  C   UNL     1       2.143  -0.412   0.000  0.00  0.00    +0.000 A 
ATOM      5  C   UNL     1       2.858   0.000   0.000  0.00  0.00    +0.000 A 
ATOM      6  C   UNL     1       3.572  -0.412   0.000  0.00  0.00    +0.000 A 
ATOM      7  C   UNL     1       3.572  -1.238   0.000  0.00  0.00    +0.000 A 
ATOM      8  C   UNL     1       2.858  -1.650   0.000  0.00  0.00    +0.000 A 
ATOM      9  C   UNL     1       2.143  -1.238   0.000  0.00  0.00    +0.000 A 
ATOM     10  C   UNL     1       1.429  -1.650   0.000  0.00  0.00    +0.000 A 
ENDROOT
BRANCH   1  11
ATOM     11  C   UNL     1       0.000  -1.650   0.000  0.00  0.00    +0.000 C 
ATOM     12  O   UNL     1      -0.715  -2.062   0.000  0.00  0.00    +0.000 OA
BRANCH  11  13
ATOM     13  C   UNL     1      -0.412  -0.935   0.000  0.00  0.00    +0.000 A 
ATOM     14  C   UNL     1      -0.077  -0.182   0.000  0.00  0.00    +0.000 A 
ATOM     15  N   UNL     1      -0.690   0.370   0.000  0.00  0.00    +0.000 NA
ATOM     16  N   UNL     1      -1.405  -0.042   0.000  0.00  0.00    +0.000 NA
ATOM     17  N   UNL     1      -1.233  -0.849   0.000  0.00  0.00    +0.000 NA
ENDBRANCH  11  13
BRANCH  11  19
ATOM     18  C   UNL     1       1.238  -2.365   0.000  0.00  0.00    +0.000 C 
ATOM     19  C   UNL     1       0.412  -2.365   0.000  0.00  0.00    +0.000 C 
ATOM     20  C   UNL     1       0.000  -3.079   0.000  0.00  0.00    +0.000 C 
ENDBRANCH  11  19
ENDBRANCH   1  11
BRANCH   7  21
ATOM     21  O   UNL     1       4.287  -1.650   0.000  0.00  0.00    +0.000 OA
BRANCH  21  22
ATOM     22  C   UNL     1       5.001  -1.238   0.000  0.00  0.00    +0.000 C 
ATOM     23  F   UNL     1       5.001  -0.412   0.000  0.00  0.00    +0.000 F 
ATOM     24  F   UNL     1       5.716  -1.650   0.000  0.00  0.00    +0.000 F 
ENDBRANCH  21  22
ENDBRANCH   7  21
BRANCH   6  25
ATOM     25  O   UNL     1       4.287   0.000   0.000  0.00  0.00    +0.000 OA
BRANCH  25  26
ATOM     26  C   UNL     1       4.287   0.825   0.000  0.00  0.00    +0.000 C 
ATOM     27  F   UNL     1       3.572   1.238   0.000  0.00  0.00    +0.000 F 
ATOM     28  F   UNL     1       5.001   1.238   0.000  0.00  0.00    +0.000 F 
ENDBRANCH  25  26
ENDBRANCH   6  25
TORSDOF 7
