REMARK  Name = 
REMARK  8 active torsions:
REMARK  status: ('A' for Active; 'I' for Inactive)
REMARK    1  A    between atoms: C_1  and  C_2
REMARK    2  A    between atoms: C_1  and  N_49
REMARK    3  A    between atoms: N_3  and  S_7
REMARK    4  A    between atoms: C_6  and  C_13
REMARK    5  A    between atoms: S_7  and  C_8
REMARK    6  A    between atoms: C_28  and  O_41
REMARK    7  A    between atoms: C_37  and  C_51
REMARK    8  A    between atoms: C_45  and  C_48
REMARK                            x       y       z     vdW  Elec       q    Type
REMARK                         _______ _______ _______ _____ _____    ______ ____
ROOT
ATOM      1  C   UNL     1      -4.541   2.519   0.000  0.00  0.00    +0.000 C 
ATOM      2  C   UNL     1      -3.634   2.890   0.000  0.00  0.00    +0.000 C 
ATOM      3  C   UNL     1      -2.920   2.478   0.000  0.00  0.00    +0.000 C 
ATOM      4  C   UNL     1      -2.205   2.890   0.000  0.00  0.00    +0.000 C 
ATOM      5  C   UNL     1      -1.491   2.478   0.000  0.00  0.00    +0.000 C 
ATOM      6  C   UNL     1      -0.777   2.890   0.000  0.00  0.00    +0.000 C 
ATOM      7  C   UNL     1      -0.062   2.478   0.000  0.00  0.00    +0.000 A 
ATOM      8  C   UNL     1      -0.062   1.653   0.000  0.00  0.00    +0.000 A 
ATOM      9  N   UNL     1       0.652   1.241   0.000  0.00  0.00    +0.000 NA
ATOM     10  C   UNL     1       1.366   1.653   0.000  0.00  0.00    +0.000 A 
ATOM     11  C   UNL     1       1.366   2.478   0.000  0.00  0.00    +0.000 A 
ATOM     12  N   UNL     1       0.652   2.890   0.000  0.00  0.00    +0.000 NA
ATOM     13  C   UNL     1       2.080   1.241   0.000  0.00  0.00    +0.000 A 
ATOM     14  C   UNL     1       2.795   1.653   0.000  0.00  0.00    +0.000 A 
ATOM     15  C   UNL     1       2.795   2.478   0.000  0.00  0.00    +0.000 A 
ATOM     16  C   UNL     1       2.080   2.890   0.000  0.00  0.00    +0.000 A 
ATOM     17  C   UNL     1      -4.541   1.694   0.000  0.00  0.00    +0.000 C 
ATOM     18  C   UNL     1      -5.256   2.107   0.000  0.00  0.00    +0.000 C 
ATOM     19  O   UNL     1      -3.827   1.282   0.000  0.00  0.00    +0.000 OA
ATOM     20  C   UNL     1      -3.827   0.457   0.000  0.00  0.00    +0.000 C 
ATOM     21  N   UNL     1      -3.244  -0.126   0.000  0.00  0.00    +0.000 NA
ATOM     22  O   UNL     1      -4.541   0.044   0.000  0.00  0.00    +0.000 OA
ATOM     23  C   UNL     1      -3.244  -0.951   0.000  0.00  0.00    +0.000 C 
ATOM     24  O   UNL     1      -0.898   1.157   0.000  0.00  0.00    +0.000 OA
ATOM     25  C   UNL     1      -2.529  -1.364   0.000  0.00  0.00    +0.000 C 
ATOM     26  O   UNL     1      -2.529  -2.188   0.000  0.00  0.00    +0.000 OA
ATOM     27  C   UNL     1      -1.577  -0.122   0.000  0.00  0.00    +0.000 C 
ATOM     28  N   UNL     1      -1.577  -0.963   0.000  0.00  0.00    +0.000 N 
ATOM     29  C   UNL     1      -0.870  -1.254   0.000  0.00  0.00    +0.000 C 
ATOM     30  C   UNL     1      -0.283  -0.543   0.000  0.00  0.00    +0.000 C 
ATOM     31  C   UNL     1      -0.777   0.138   0.000  0.00  0.00    +0.000 C 
ENDROOT
BRANCH  23  32
ATOM     32  C   UNL     1      -3.978  -1.375   0.000  0.00  0.00    +0.000 C 
ATOM     33  C   UNL     1      -4.713  -0.951   0.000  0.00  0.00    +0.000 C 
ATOM     34  C   UNL     1      -3.978  -2.224   0.000  0.00  0.00    +0.000 C 
ATOM     35  C   UNL     1      -4.713  -1.800   0.000  0.00  0.00    +0.000 C 
ENDBRANCH  23  32
BRANCH  29  36
ATOM     36  C   UNL     1      -0.034  -1.795   0.000  0.00  0.00    +0.000 C 
ATOM     37  N   UNL     1       0.680  -1.383   0.000  0.00  0.00    +0.000 NA
ATOM     38  O   UNL     1      -0.034  -2.636   0.000  0.00  0.00    +0.000 OA
BRANCH  37  39
ATOM     39  C   UNL     1       1.468  -1.728   0.000  0.00  0.00    +0.000 C 
ATOM     40  C   UNL     1       1.038  -2.460   0.000  0.00  0.00    +0.000 C 
ATOM     41  C   UNL     1       1.856  -2.460   0.000  0.00  0.00    +0.000 C 
BRANCH  39  42
ATOM     42  C   UNL     1       2.157  -1.298   0.000  0.00  0.00    +0.000 C 
ATOM     43  N   UNL     1       2.889  -1.728   0.000  0.00  0.00    +0.000 NA
ATOM     44  O   UNL     1       2.157  -0.437   0.000  0.00  0.00    +0.000 OA
BRANCH  43  45
ATOM     45  S   UNL     1       3.663  -1.298   0.000  0.00  0.00    +0.000 S 
ATOM     46  O   UNL     1       4.094  -0.566   0.000  0.00  0.00    +0.000 OA
ATOM     47  O   UNL     1       3.233  -0.566   0.000  0.00  0.00    +0.000 OA
BRANCH  45  48
ATOM     48  C   UNL     1       4.395  -1.728   0.000  0.00  0.00    +0.000 C 
ATOM     49  C   UNL     1       4.825  -2.460   0.000  0.00  0.00    +0.000 C 
ATOM     50  C   UNL     1       5.256  -1.728   0.000  0.00  0.00    +0.000 C 
ENDBRANCH  45  48
ENDBRANCH  43  45
ENDBRANCH  39  42
BRANCH  41  51
ATOM     51  C   UNL     1       2.631  -2.890   0.000  0.00  0.00    +0.000 C 
ATOM     52  C   UNL     1       3.319  -2.460   0.000  0.00  0.00    +0.000 C 
ENDBRANCH  41  51
ENDBRANCH  37  39
ENDBRANCH  29  36
BRANCH  14  53
ATOM     53  O   UNL     1       3.509   1.241   0.000  0.00  0.00    +0.000 OA
ATOM     54  C   UNL     1       3.509   0.416   0.000  0.00  0.00    +0.000 C 
ENDBRANCH  14  53
TORSDOF 8
