REMARK  Name = 
REMARK  9 active torsions:
REMARK  status: ('A' for Active; 'I' for Inactive)
REMARK    1  A    between atoms: C_10  and  C_14
REMARK    2  A    between atoms: C_11  and  C_18
REMARK    3  A    between atoms: C_12  and  C_15
REMARK    4  A    between atoms: C_13  and  C_17
REMARK    5  A    between atoms: C_13  and  C_19
REMARK    6  A    between atoms: C_15  and  C_19
REMARK    7  A    between atoms: C_16  and  C_18
REMARK    8  A    between atoms: C_16  and  C_20
REMARK    9  A    between atoms: C_19  and  O_24
REMARK                            x       y       z     vdW  Elec       q    Type
REMARK                         _______ _______ _______ _____ _____    ______ ____
ROOT
ATOM      1  C   UNL     1       0.000   4.950   0.000  0.00  0.00    +0.000 C 
ATOM      2  C   UNL     1      -0.715   3.712   0.000  0.00  0.00    +0.000 C 
ATOM      3  C   UNL     1      -0.715   4.537   0.000  0.00  0.00    +0.000 C 
ENDROOT
BRANCH   2   5
ATOM      4  C   UNL     1       0.715   3.712   0.000  0.00  0.00    +0.000 C 
ATOM      5  C   UNL     1       0.000   3.300   0.000  0.00  0.00    +0.000 C 
BRANCH   5   6
ATOM      6  C   UNL     1       0.000   2.475   0.000  0.00  0.00    +0.000 C 
BRANCH   6   8
ATOM      7  C   UNL     1      -1.429   2.475   0.000  0.00  0.00    +0.000 C 
ATOM      8  O   UNL     1      -0.715   2.062   0.000  0.00  0.00    +0.000 OA
ENDBRANCH   6   8
BRANCH   6   9
ATOM      9  C   UNL     1       0.715   2.062   0.000  0.00  0.00    +0.000 C 
BRANCH   9  15
ATOM     10  C   UNL     1       0.715  -0.412   0.000  0.00  0.00    +0.000 A 
ATOM     11  C   UNL     1       1.429   0.000   0.000  0.00  0.00    +0.000 A 
ATOM     12  C   UNL     1       0.000   0.000   0.000  0.00  0.00    +0.000 A 
ATOM     13  C   UNL     1       1.429   0.825   0.000  0.00  0.00    +0.000 A 
ATOM     14  C   UNL     1       0.000   0.825   0.000  0.00  0.00    +0.000 A 
ATOM     15  C   UNL     1       0.715   1.237   0.000  0.00  0.00    +0.000 A 
ENDBRANCH   9  15
ENDBRANCH   6   9
ENDBRANCH   5   6
ENDBRANCH   2   5
BRANCH   3  16
ATOM     16  C   UNL     1      -1.429   4.950   0.000  0.00  0.00    +0.000 C 
ATOM     17  C   UNL     1      -1.429   5.775   0.000  0.00  0.00    +0.000 C 
BRANCH  17  18
ATOM     18  C   UNL     1      -2.143   6.188   0.000  0.00  0.00    +0.000 C 
ATOM     19  N   UNL     1      -2.143   7.013   0.000  0.00  0.00    +0.000 NA
BRANCH  18  21
ATOM     20  C   UNL     1      -2.858   4.950   0.000  0.00  0.00    +0.000 C 
ATOM     21  C   UNL     1      -2.858   5.775   0.000  0.00  0.00    +0.000 C 
BRANCH  21  22
ATOM     22  C   UNL     1      -3.572   6.188   0.000  0.00  0.00    +0.000 C 
ATOM     23  O   UNL     1      -4.287   5.775   0.000  0.00  0.00    +0.000 OA
ATOM     24  O   UNL     1      -3.572   7.013   0.000  0.00  0.00    +0.000 OA
ENDBRANCH  21  22
ENDBRANCH  18  21
ENDBRANCH  17  18
ENDBRANCH   3  16
TORSDOF 9
