REMARK  Name = 
REMARK  2 active torsions:
REMARK  status: ('A' for Active; 'I' for Inactive)
REMARK    1  A    between atoms: C_6  and  N_7
REMARK    2  A    between atoms: N_7  and  C_8
REMARK                            x       y       z     vdW  Elec       q    Type
REMARK                         _______ _______ _______ _____ _____    ______ ____
ROOT
ATOM      1  C   UNL     1       2.103  -2.003   0.000  0.00  0.00    +0.000 C 
ATOM      2  N   UNL     1       1.848  -1.219   0.000  0.00  0.00    +0.000 N 
ATOM      3  C   UNL     1       2.333  -0.551   0.000  0.00  0.00    +0.000 A 
ATOM      4  N   UNL     1       1.848   0.116   0.000  0.00  0.00    +0.000 NA
ATOM      5  C   UNL     1       1.063  -0.139   0.000  0.00  0.00    +0.000 A 
ATOM      6  C   UNL     1       0.349   0.274   0.000  0.00  0.00    +0.000 A 
ATOM      7  N   UNL     1      -0.366  -0.139   0.000  0.00  0.00    +0.000 NA
ATOM      8  C   UNL     1      -0.366  -0.964   0.000  0.00  0.00    +0.000 A 
ATOM      9  N   UNL     1      -1.080  -1.376   0.000  0.00  0.00    +0.000 N 
ATOM     10  N   UNL     1      -1.834  -1.041   0.000  0.00  0.00    +0.000 NA
ATOM     11  C   UNL     1      -2.386  -1.654   0.000  0.00  0.00    +0.000 A 
ATOM     12  C   UNL     1      -3.207  -1.567   0.000  0.00  0.00    +0.000 C 
ATOM     13  C   UNL     1      -1.974  -2.368   0.000  0.00  0.00    +0.000 A 
ATOM     14  C   UNL     1      -1.167  -2.197   0.000  0.00  0.00    +0.000 A 
ATOM     15  C   UNL     1      -0.553  -2.749   0.000  0.00  0.00    +0.000 C 
ATOM     16  N   UNL     1       0.349  -1.376   0.000  0.00  0.00    +0.000 NA
ATOM     17  C   UNL     1       1.063  -0.964   0.000  0.00  0.00    +0.000 A 
ENDROOT
BRANCH   6  18
ATOM     18  N   UNL     1       0.349   1.099   0.000  0.00  0.00    +0.000 NA
BRANCH  18  19
ATOM     19  C   UNL     1       1.063   1.511   0.000  0.00  0.00    +0.000 A 
ATOM     20  C   UNL     1       1.778   1.099   0.000  0.00  0.00    +0.000 A 
ATOM     21  C   UNL     1       2.492   1.511   0.000  0.00  0.00    +0.000 A 
ATOM     22  C   UNL     1       2.492   2.336   0.000  0.00  0.00    +0.000 A 
ATOM     23 CL   UNL     1       3.207   2.749   0.000  0.00  0.00    +0.000 Cl
ATOM     24  C   UNL     1       1.778   2.749   0.000  0.00  0.00    +0.000 A 
ATOM     25  C   UNL     1       1.063   2.336   0.000  0.00  0.00    +0.000 A 
ENDBRANCH  18  19
ENDBRANCH   6  18
TORSDOF 2
