REMARK  Name = 
REMARK  3 active torsions:
REMARK  status: ('A' for Active; 'I' for Inactive)
REMARK    1  A    between atoms: CG_3  and  CB_5
REMARK    2  A    between atoms: CB_5  and  CA_6
REMARK    3  A    between atoms: CA_6  and  C_7
REMARK                            x       y       z     vdW  Elec       q    Type
REMARK                         _______ _______ _______ _____ _____    ______ ____
ROOT
ATOM      1 CL   UNL     1       3.059   2.111   0.000  0.00  0.00    +0.000 Cl
ENDROOT
TORSDOF 0
REMARK  Name = 
REMARK  3 active torsions:
REMARK  status: ('A' for Active; 'I' for Inactive)
REMARK    1  A    between atoms: CG_3  and  CB_5
REMARK    2  A    between atoms: CB_5  and  CA_6
REMARK    3  A    between atoms: CA_6  and  C_7
REMARK                            x       y       z     vdW  Elec       q    Type
REMARK                         _______ _______ _______ _____ _____    ______ ____
ROOT
ATOM      1  CA  ASP A   1      -1.624  -0.057   0.000  0.00  0.00    +0.000 C 
ATOM      2  N   ASP A   1      -2.334   0.354   0.000  0.00  0.00    +0.000 NA
ENDROOT
BRANCH   1   3
ATOM      3  C   ASP A   1      -0.913   0.354   0.000  0.00  0.00    +0.000 C 
ATOM      4  O   ASP A   1      -0.202  -0.057   0.000  0.00  0.00    +0.000 OA
ATOM      5  OXT ASP A   1      -0.913   1.176   0.000  0.00  0.00    +0.000 OA
ENDBRANCH   1   3
BRANCH   1   6
ATOM      6  CB  ASP A   1      -1.624  -0.883   0.000  0.00  0.00    +0.000 C 
BRANCH   6   8
ATOM      7  OD1 ASP A   1      -3.059  -0.878   0.000  0.00  0.00    +0.000 OA
ATOM      8  CG  ASP A   1      -2.344  -1.289   0.000  0.00  0.00    +0.000 C 
ATOM      9  OD2 ASP A   1      -2.344  -2.111   0.000  0.00  0.00    +0.000 OA
ENDBRANCH   6   8
ENDBRANCH   1   6
TORSDOF 3
REMARK  Name = 
REMARK  3 active torsions:
REMARK  status: ('A' for Active; 'I' for Inactive)
REMARK    1  A    between atoms: CG_3  and  CB_5
REMARK    2  A    between atoms: CB_5  and  CA_6
REMARK    3  A    between atoms: CA_6  and  C_7
REMARK                            x       y       z     vdW  Elec       q    Type
REMARK                         _______ _______ _______ _____ _____    ______ ____
ROOT
ATOM      1 MG   UNL     1       1.534  -0.597   0.000  0.00  0.00    +0.000 Mg
ENDROOT
TORSDOF 0
