REMARK  Name = 
REMARK  8 active torsions:
REMARK  status: ('A' for Active; 'I' for Inactive)
REMARK    1  A    between atoms: C_7  and  O_68
REMARK    2  A    between atoms: C_19  and  O_63
REMARK    3  A    between atoms: C_27  and  C_44
REMARK    4  A    between atoms: C_44  and  C_46
REMARK    5  A    between atoms: C_46  and  C_47
REMARK    6  A    between atoms: C_50  and  O_55
REMARK    7  A    between atoms: C_51  and  O_53
REMARK    8  A    between atoms: O_55  and  P_56
REMARK                            x       y       z     vdW  Elec       q    Type
REMARK                         _______ _______ _______ _____ _____    ______ ____
ROOT
ATOM      1  C   UNL     1       8.137  -2.528   0.000  0.00  0.00    +0.000 C 
ATOM      2  C   UNL     1       7.380  -2.198   0.000  0.00  0.00    +0.000 C 
ATOM      3  C   UNL     1       6.717  -2.688   0.000  0.00  0.00    +0.000 C 
ATOM      4  C   UNL     1       5.961  -2.358   0.000  0.00  0.00    +0.000 C 
ATOM      5  C   UNL     1       5.868  -1.538   0.000  0.00  0.00    +0.000 C 
ATOM      6  C   UNL     1       5.112  -1.208   0.000  0.00  0.00    +0.000 C 
ATOM      7  C   UNL     1       4.448  -1.698   0.000  0.00  0.00    +0.000 C 
ATOM      8  C   UNL     1       3.692  -1.369   0.000  0.00  0.00    +0.000 C 
ATOM      9  C   UNL     1       3.028  -1.859   0.000  0.00  0.00    +0.000 C 
ATOM     10  C   UNL     1       2.272  -1.529   0.000  0.00  0.00    +0.000 C 
ATOM     11  C   UNL     1       1.608  -2.019   0.000  0.00  0.00    +0.000 C 
ATOM     12  C   UNL     1       0.852  -1.689   0.000  0.00  0.00    +0.000 C 
ATOM     13  C   UNL     1       0.712  -0.797   0.000  0.00  0.00    +0.000 C 
ATOM     14  C   UNL     1       0.095  -0.249   0.000  0.00  0.00    +0.000 C 
ATOM     15  C   UNL     1       0.425   0.507   0.000  0.00  0.00    +0.000 C 
ATOM     16  C   UNL     1       1.246   0.427   0.000  0.00  0.00    +0.000 C 
ATOM     17  C   UNL     1       1.995   0.931   0.000  0.00  0.00    +0.000 C 
ATOM     18  O   UNL     1       1.920   1.752   0.000  0.00  0.00    +0.000 OA
ATOM     19  C   UNL     1       2.751   0.601   0.000  0.00  0.00    +0.000 C 
ATOM     20  C   UNL     1       3.415   1.091   0.000  0.00  0.00    +0.000 C 
ATOM     21  C   UNL     1       4.171   0.761   0.000  0.00  0.00    +0.000 C 
ATOM     22  C   UNL     1       4.835   1.251   0.000  0.00  0.00    +0.000 C 
ATOM     23  C   UNL     1       5.591   0.921   0.000  0.00  0.00    +0.000 C 
ATOM     24  C   UNL     1       6.255   1.411   0.000  0.00  0.00    +0.000 C 
ATOM     25  O   UNL     1       6.162   2.231   0.000  0.00  0.00    +0.000 OA
ATOM     26  C   UNL     1       7.011   1.081   0.000  0.00  0.00    +0.000 C 
ATOM     27  C   UNL     1       7.675   1.571   0.000  0.00  0.00    +0.000 C 
ATOM     28  O   UNL     1       8.431   1.241   0.000  0.00  0.00    +0.000 OA
ATOM     29  C   UNL     1       8.523   0.421   0.000  0.00  0.00    +0.000 C 
ATOM     30  O   UNL     1       7.859  -0.068   0.000  0.00  0.00    +0.000 OA
ATOM     31  C   UNL     1       9.279   0.092   0.000  0.00  0.00    +0.000 C 
ATOM     32  C   UNL     1       9.943   0.582   0.000  0.00  0.00    +0.000 C 
ATOM     33  C   UNL     1      10.699   0.252   0.000  0.00  0.00    +0.000 C 
ATOM     34  C   UNL     1      10.792  -0.568   0.000  0.00  0.00    +0.000 C 
ATOM     35  C   UNL     1      10.128  -1.058   0.000  0.00  0.00    +0.000 C 
ATOM     36  N   UNL     1       9.372  -0.728   0.000  0.00  0.00    +0.000 N 
ATOM     37  C   UNL     1       8.708  -1.218   0.000  0.00  0.00    +0.000 C 
ATOM     38  O   UNL     1       8.800  -2.038   0.000  0.00  0.00    +0.000 OA
ATOM     39  C   UNL     1       7.952  -0.888   0.000  0.00  0.00    +0.000 C 
ATOM     40  O   UNL     1       7.395  -0.279   0.000  0.00  0.00    +0.000 OA
ATOM     41  C   UNL     1       7.288  -1.378   0.000  0.00  0.00    +0.000 C 
ATOM     42  O   UNL     1       6.532  -1.048   0.000  0.00  0.00    +0.000 OA
ATOM     43  O   UNL     1       8.044  -1.708   0.000  0.00  0.00    +0.000 OA
ATOM     44  C   UNL     1       5.683   0.101   0.000  0.00  0.00    +0.000 C 
ATOM     45  C   UNL     1       4.263  -0.059   0.000  0.00  0.00    +0.000 C 
ATOM     46  O   UNL     1       3.322   1.911   0.000  0.00  0.00    +0.000 OA
ATOM     47  C   UNL     1       1.448  -0.373   0.000  0.00  0.00    +0.000 C 
ATOM     48  C   UNL     1      -0.711  -0.427   0.000  0.00  0.00    +0.000 C 
ATOM     49  C   UNL     1       3.600  -0.549   0.000  0.00  0.00    +0.000 C 
ENDROOT
BRANCH  27  50
ATOM     50  C   UNL     1       7.582   2.391   0.000  0.00  0.00    +0.000 C 
ATOM     51  C   UNL     1       6.826   2.721   0.000  0.00  0.00    +0.000 C 
BRANCH  50  52
ATOM     52  C   UNL     1       8.246   2.881   0.000  0.00  0.00    +0.000 C 
BRANCH  52  53
ATOM     53  C   UNL     1       9.002   2.551   0.000  0.00  0.00    +0.000 C 
ATOM     54  C   UNL     1       9.095   1.731   0.000  0.00  0.00    +0.000 C 
ATOM     55  C   UNL     1       9.851   1.401   0.000  0.00  0.00    +0.000 C 
ATOM     56  C   UNL     1      10.514   1.891   0.000  0.00  0.00    +0.000 C 
ATOM     57  C   UNL     1      10.422   2.711   0.000  0.00  0.00    +0.000 C 
ATOM     58  C   UNL     1       9.666   3.041   0.000  0.00  0.00    +0.000 C 
BRANCH  57  59
ATOM     59  O   UNL     1      11.086   3.201   0.000  0.00  0.00    +0.000 OA
ATOM     60  C   UNL     1      10.993   4.021   0.000  0.00  0.00    +0.000 C 
ENDBRANCH  57  59
BRANCH  56  61
ATOM     61  O   UNL     1      11.271   1.562   0.000  0.00  0.00    +0.000 OA
BRANCH  61  62
ATOM     62  P   UNL     1      11.934   2.051   0.000  0.00  0.00    +0.000 P 
ATOM     63  O   UNL     1      11.444   2.715   0.000  0.00  0.00    +0.000 OA
ATOM     64  C   UNL     1      12.424   1.388   0.000  0.00  0.00    +0.000 C 
ATOM     65  C   UNL     1      12.598   2.541   0.000  0.00  0.00    +0.000 C 
ENDBRANCH  61  62
ENDBRANCH  56  61
ENDBRANCH  52  53
ENDBRANCH  50  52
ENDBRANCH  27  50
BRANCH  19  66
ATOM     66  O   UNL     1       2.659   1.421   0.000  0.00  0.00    +0.000 OA
ATOM     67  C   UNL     1       2.241   2.132   0.000  0.00  0.00    +0.000 C 
ENDBRANCH  19  66
BRANCH   7  68
ATOM     68  O   UNL     1       4.541  -2.518   0.000  0.00  0.00    +0.000 OA
ATOM     69  C   UNL     1       3.877  -3.008   0.000  0.00  0.00    +0.000 C 
ENDBRANCH   7  68
TORSDOF 8
