REMARK  Name = 
REMARK  39 active torsions:
REMARK  status: ('A' for Active; 'I' for Inactive)
REMARK    1  A    between atoms: CA_2  and  C_3
REMARK    2  A    between atoms: CA_2  and  N_46
REMARK    3  A    between atoms: N_5  and  CA_6
REMARK    4  A    between atoms: CA_6  and  CB_7
REMARK    5  A    between atoms: CA_6  and  C_11
REMARK    6  A    between atoms: CB_7  and  CG_8
REMARK    7  A    between atoms: N_13  and  CA_14
REMARK    8  A    between atoms: CA_14  and  CB_15
REMARK    9  A    between atoms: CA_14  and  C_19
REMARK   10  A    between atoms: CB_15  and  CG_16
REMARK   11  A    between atoms: N_21  and  CA_22
REMARK   12  A    between atoms: CA_22  and  C_24
REMARK   13  A    between atoms: N_26  and  CA_27
REMARK   14  A    between atoms: CA_27  and  C_28
REMARK   15  A    between atoms: N_30  and  CA_31
REMARK   16  A    between atoms: CA_31  and  CB_32
REMARK   17  A    between atoms: CA_31  and  C_36
REMARK   18  A    between atoms: CB_32  and  CG_33
REMARK   19  A    between atoms: N_38  and  CA_39
REMARK   20  A    between atoms: CA_39  and  CB_40
REMARK   21  A    between atoms: CA_39  and  C_43
REMARK   22  A    between atoms: C_47  and  CA_49
REMARK   23  A    between atoms: C_54  and  CA_56
REMARK   24  A    between atoms: CA_56  and  CB_57
REMARK   25  A    between atoms: CA_56  and  N_62
REMARK   26  A    between atoms: CB_57  and  CG_58
REMARK   27  A    between atoms: CG_58  and  CD_59
REMARK   28  A    between atoms: CD_59  and  CE_60
REMARK   29  A    between atoms: C_63  and  CA_65
REMARK   30  A    between atoms: CA_65  and  N_66
REMARK   31  A    between atoms: C_67  and  CA_69
REMARK   32  A    between atoms: C_74  and  CA_76
REMARK   33  A    between atoms: C_81  and  CA_83
REMARK   34  A    between atoms: C_88  and  CA_90
REMARK   35  A    between atoms: CA_90  and  CB_91
REMARK   36  A    between atoms: CA_90  and  N_96
REMARK   37  A    between atoms: CB_91  and  CG_92
REMARK   38  A    between atoms: CG_92  and  CD_93
REMARK   39  A    between atoms: C_97  and  CA_99
REMARK                            x       y       z     vdW  Elec       q    Type
REMARK                         _______ _______ _______ _____ _____    ______ ____
ROOT
ATOM      1  CA  PRO A   8      33.979   7.693   0.000  0.00  0.00    +0.000 C 
ATOM      2  CB  PRO A   8      34.066   8.514   0.000  0.00  0.00    +0.000 C 
ATOM      3  CG  PRO A   8      34.873   8.685   0.000  0.00  0.00    +0.000 C 
ATOM      4  CD  PRO A   8      35.285   7.971   0.000  0.00  0.00    +0.000 C 
ATOM      5  N   PRO A   8      34.733   7.358   0.000  0.00  0.00    +0.000 N 
ATOM      6  C   LYS A   7      34.904   6.551   0.000  0.00  0.00    +0.000 C 
ATOM      7  O   LYS A   7      34.291   5.999   0.000  0.00  0.00    +0.000 OA
ENDROOT
BRANCH   1   9
ATOM      8  N   ALA A   9      32.550   7.693   0.000  0.00  0.00    +0.000 NA
ATOM      9  C   PRO A   8      33.265   7.281   0.000  0.00  0.00    +0.000 C 
ATOM     10  O   PRO A   8      33.265   6.456   0.000  0.00  0.00    +0.000 OA
BRANCH   8  12
ATOM     11  CB  ALA A   9      31.836   6.456   0.000  0.00  0.00    +0.000 C 
ATOM     12  CA  ALA A   9      31.836   7.281   0.000  0.00  0.00    +0.000 C 
BRANCH  12  13
ATOM     13  C   ALA A   9      31.121   7.693   0.000  0.00  0.00    +0.000 C 
ATOM     14  O   ALA A   9      31.121   8.518   0.000  0.00  0.00    +0.000 OA
ATOM     15  N   ASP A  10      30.407   7.281   0.000  0.00  0.00    +0.000 NA
BRANCH  15  16
ATOM     16  CA  ASP A  10      29.692   7.693   0.000  0.00  0.00    +0.000 C 
BRANCH  16  17
ATOM     17  C   ASP A  10      28.978   7.281   0.000  0.00  0.00    +0.000 C 
ATOM     18  O   ASP A  10      28.978   6.456   0.000  0.00  0.00    +0.000 OA
ATOM     19  N   ASP A  11      28.264   7.693   0.000  0.00  0.00    +0.000 NA
BRANCH  19  20
ATOM     20  CA  ASP A  11      27.549   7.281   0.000  0.00  0.00    +0.000 C 
BRANCH  20  21
ATOM     21  C   ASP A  11      26.834   7.693   0.000  0.00  0.00    +0.000 C 
ATOM     22  O   ASP A  11      26.834   8.518   0.000  0.00  0.00    +0.000 OA
ATOM     23  N   ALA A  12      26.120   7.281   0.000  0.00  0.00    +0.000 NA
BRANCH  23  24
ATOM     24  CA  ALA A  12      25.406   7.693   0.000  0.00  0.00    +0.000 C 
ATOM     25  CB  ALA A  12      25.406   8.518   0.000  0.00  0.00    +0.000 C 
BRANCH  24  26
ATOM     26  C   ALA A  12      24.691   7.281   0.000  0.00  0.00    +0.000 C 
ATOM     27  O   ALA A  12      24.691   6.456   0.000  0.00  0.00    +0.000 OA
ATOM     28  N   GLY A  13      23.977   7.693   0.000  0.00  0.00    +0.000 NA
BRANCH  28  29
ATOM     29  CA  GLY A  13      23.262   7.281   0.000  0.00  0.00    +0.000 C 
BRANCH  29  30
ATOM     30  C   GLY A  13      22.548   7.693   0.000  0.00  0.00    +0.000 C 
ATOM     31  O   GLY A  13      22.548   8.518   0.000  0.00  0.00    +0.000 OA
ATOM     32  N   LEU A  14      21.833   7.281   0.000  0.00  0.00    +0.000 NA
BRANCH  32  33
ATOM     33  CA  LEU A  14      21.119   7.693   0.000  0.00  0.00    +0.000 C 
BRANCH  33  34
ATOM     34  C   LEU A  14      20.404   7.281   0.000  0.00  0.00    +0.000 C 
ATOM     35  O   LEU A  14      20.404   6.456   0.000  0.00  0.00    +0.000 OA
ATOM     36  N   VAL A  15      19.690   7.693   0.000  0.00  0.00    +0.000 NA
BRANCH  36  37
ATOM     37  CA  VAL A  15      18.975   7.281   0.000  0.00  0.00    +0.000 C 
BRANCH  37  38
ATOM     38  C   VAL A  15      18.975   6.456   0.000  0.00  0.00    +0.000 C 
ATOM     39  O   VAL A  15      19.690   6.043   0.000  0.00  0.00    +0.000 OA
ATOM     40  OXT VAL A  15      18.261   6.043   0.000  0.00  0.00    +0.000 OA
ENDBRANCH  37  38
BRANCH  37  41
ATOM     41  CB  VAL A  15      18.261   7.693   0.000  0.00  0.00    +0.000 C 
ATOM     42  CG1 VAL A  15      17.546   7.281   0.000  0.00  0.00    +0.000 C 
ATOM     43  CG2 VAL A  15      18.261   8.518   0.000  0.00  0.00    +0.000 C 
ENDBRANCH  37  41
ENDBRANCH  36  37
ENDBRANCH  33  34
BRANCH  33  44
ATOM     44  CB  LEU A  14      21.119   8.518   0.000  0.00  0.00    +0.000 C 
BRANCH  44  45
ATOM     45  CG  LEU A  14      20.404   8.931   0.000  0.00  0.00    +0.000 C 
ATOM     46  CD1 LEU A  14      19.690   8.518   0.000  0.00  0.00    +0.000 C 
ATOM     47  CD2 LEU A  14      20.404   9.756   0.000  0.00  0.00    +0.000 C 
ENDBRANCH  44  45
ENDBRANCH  33  44
ENDBRANCH  32  33
ENDBRANCH  29  30
ENDBRANCH  28  29
ENDBRANCH  24  26
ENDBRANCH  23  24
ENDBRANCH  20  21
BRANCH  20  48
ATOM     48  CB  ASP A  11      27.549   6.456   0.000  0.00  0.00    +0.000 C 
BRANCH  48  49
ATOM     49  CG  ASP A  11      26.834   6.043   0.000  0.00  0.00    +0.000 C 
ATOM     50  OD1 ASP A  11      26.120   6.456   0.000  0.00  0.00    +0.000 OA
ATOM     51  OD2 ASP A  11      26.834   5.218   0.000  0.00  0.00    +0.000 OA
ENDBRANCH  48  49
ENDBRANCH  20  48
ENDBRANCH  19  20
ENDBRANCH  16  17
BRANCH  16  52
ATOM     52  CB  ASP A  10      29.692   8.518   0.000  0.00  0.00    +0.000 C 
BRANCH  52  53
ATOM     53  CG  ASP A  10      28.978   8.931   0.000  0.00  0.00    +0.000 C 
ATOM     54  OD1 ASP A  10      28.264   8.518   0.000  0.00  0.00    +0.000 OA
ATOM     55  OD2 ASP A  10      28.978   9.756   0.000  0.00  0.00    +0.000 OA
ENDBRANCH  52  53
ENDBRANCH  16  52
ENDBRANCH  15  16
ENDBRANCH  12  13
ENDBRANCH   8  12
ENDBRANCH   1   9
BRANCH   6  56
ATOM     56  CA  LYS A   7      35.689   6.296   0.000  0.00  0.00    +0.000 C 
BRANCH  56  57
ATOM     57  N   LYS A   7      35.861   5.489   0.000  0.00  0.00    +0.000 NA
ATOM     58  C   GLY A   6      36.645   5.234   0.000  0.00  0.00    +0.000 C 
ATOM     59  O   GLY A   6      37.258   5.786   0.000  0.00  0.00    +0.000 OA
BRANCH  58  60
ATOM     60  CA  GLY A   6      36.817   4.427   0.000  0.00  0.00    +0.000 C 
BRANCH  60  61
ATOM     61  N   GLY A   6      37.601   4.172   0.000  0.00  0.00    +0.000 NA
ATOM     62  C   PRO A   5      38.215   4.724   0.000  0.00  0.00    +0.000 C 
ATOM     63  O   PRO A   5      38.043   5.531   0.000  0.00  0.00    +0.000 OA
BRANCH  62  64
ATOM     64  CA  PRO A   5      38.999   4.469   0.000  0.00  0.00    +0.000 C 
ATOM     65  CB  PRO A   5      39.666   4.954   0.000  0.00  0.00    +0.000 C 
ATOM     66  CG  PRO A   5      40.334   4.469   0.000  0.00  0.00    +0.000 C 
ATOM     67  CD  PRO A   5      40.079   3.684   0.000  0.00  0.00    +0.000 C 
ATOM     68  N   PRO A   5      39.254   3.684   0.000  0.00  0.00    +0.000 N 
ATOM     69  C   PRO A   4      38.769   3.017   0.000  0.00  0.00    +0.000 C 
ATOM     70  O   PRO A   4      37.949   3.103   0.000  0.00  0.00    +0.000 OA
BRANCH  69  71
ATOM     71  CA  PRO A   4      39.105   2.263   0.000  0.00  0.00    +0.000 C 
ATOM     72  CB  PRO A   4      39.912   2.092   0.000  0.00  0.00    +0.000 C 
ATOM     73  CG  PRO A   4      39.998   1.271   0.000  0.00  0.00    +0.000 C 
ATOM     74  CD  PRO A   4      39.244   0.936   0.000  0.00  0.00    +0.000 C 
ATOM     75  N   PRO A   4      38.692   1.549   0.000  0.00  0.00    +0.000 N 
ATOM     76  C   PRO A   3      37.872   1.463   0.000  0.00  0.00    +0.000 C 
ATOM     77  O   PRO A   3      37.387   2.130   0.000  0.00  0.00    +0.000 OA
BRANCH  76  78
ATOM     78  CA  PRO A   3      37.536   0.709   0.000  0.00  0.00    +0.000 C 
ATOM     79  CB  PRO A   3      37.949  -0.005   0.000  0.00  0.00    +0.000 C 
ATOM     80  CG  PRO A   3      37.397  -0.619   0.000  0.00  0.00    +0.000 C 
ATOM     81  CD  PRO A   3      36.643  -0.283   0.000  0.00  0.00    +0.000 C 
ATOM     82  N   PRO A   3      36.729   0.537   0.000  0.00  0.00    +0.000 N 
ATOM     83  C   GLU A   2      36.116   1.089   0.000  0.00  0.00    +0.000 C 
ATOM     84  O   GLU A   2      36.288   1.897   0.000  0.00  0.00    +0.000 OA
BRANCH  83  85
ATOM     85  CA  GLU A   2      35.331   0.835   0.000  0.00  0.00    +0.000 C 
BRANCH  85  86
ATOM     86  N   GLU A   2      35.160   0.028   0.000  0.00  0.00    +0.000 NA
ATOM     87  C   GLY A   1      34.375  -0.227   0.000  0.00  0.00    +0.000 C 
ATOM     88  O   GLY A   1      33.762   0.325   0.000  0.00  0.00    +0.000 OA
BRANCH  87  89
ATOM     89  CA  GLY A   1      34.204  -1.034   0.000  0.00  0.00    +0.000 C 
ATOM     90  N   GLY A   1      33.419  -1.289   0.000  0.00  0.00    +0.000 NA
ENDBRANCH  87  89
ENDBRANCH  85  86
BRANCH  85  91
ATOM     91  CB  GLU A   2      34.718   1.387   0.000  0.00  0.00    +0.000 C 
BRANCH  91  92
ATOM     92  CG  GLU A   2      33.934   1.132   0.000  0.00  0.00    +0.000 C 
BRANCH  92  93
ATOM     93  CD  GLU A   2      33.321   1.684   0.000  0.00  0.00    +0.000 C 
ATOM     94  OE1 GLU A   2      32.536   1.429   0.000  0.00  0.00    +0.000 OA
ATOM     95  OE2 GLU A   2      33.492   2.491   0.000  0.00  0.00    +0.000 OA
ENDBRANCH  92  93
ENDBRANCH  91  92
ENDBRANCH  85  91
ENDBRANCH  83  85
ENDBRANCH  76  78
ENDBRANCH  69  71
ENDBRANCH  62  64
ENDBRANCH  60  61
ENDBRANCH  58  60
ENDBRANCH  56  57
BRANCH  56  96
ATOM     96  CB  LYS A   7      36.302   6.848   0.000  0.00  0.00    +0.000 C 
BRANCH  96  97
ATOM     97  CG  LYS A   7      36.131   7.655   0.000  0.00  0.00    +0.000 C 
BRANCH  97  98
ATOM     98  CD  LYS A   7      36.744   8.207   0.000  0.00  0.00    +0.000 C 
BRANCH  98  99
ATOM     99  CE  LYS A   7      36.572   9.014   0.000  0.00  0.00    +0.000 C 
ATOM    100  NZ  LYS A   7      37.185   9.566   0.000  0.00  0.00    +0.000 NA
ENDBRANCH  98  99
ENDBRANCH  97  98
ENDBRANCH  96  97
ENDBRANCH  56  96
ENDBRANCH   6  56
TORSDOF 39
