REMARK  Name = 
REMARK  3 active torsions:
REMARK  status: ('A' for Active; 'I' for Inactive)
REMARK    1  A    between atoms: C_9  and  C_29
REMARK    2  A    between atoms: C_11  and  N_14
REMARK    3  A    between atoms: C_15  and  C_17
REMARK                            x       y       z     vdW  Elec       q    Type
REMARK                         _______ _______ _______ _____ _____    ______ ____
ROOT
ATOM      1  C   UNL     1       4.164  -2.133   0.000  0.00  0.00    +0.000 C 
ATOM      2  N   UNL     1       3.405  -2.457   0.000  0.00  0.00    +0.000 N 
ATOM      3  C   UNL     1       3.368  -3.281   0.000  0.00  0.00    +0.000 A 
ATOM      4  C   UNL     1       4.122  -3.617   0.000  0.00  0.00    +0.000 A 
ATOM      5  C   UNL     1       4.208  -4.437   0.000  0.00  0.00    +0.000 A 
ATOM      6  C   UNL     1       3.541  -4.922   0.000  0.00  0.00    +0.000 A 
ATOM      7  C   UNL     1       2.787  -4.587   0.000  0.00  0.00    +0.000 A 
ATOM      8  C   UNL     1       2.701  -3.766   0.000  0.00  0.00    +0.000 A 
ATOM      9  C   UNL     1       1.905  -3.547   0.000  0.00  0.00    +0.000 C 
ATOM     10  N   UNL     1       1.581  -2.788   0.000  0.00  0.00    +0.000 NA
ATOM     11  C   UNL     1       1.972  -2.062   0.000  0.00  0.00    +0.000 C 
ATOM     12  C   UNL     1       2.784  -1.914   0.000  0.00  0.00    +0.000 C 
ATOM     13  O   UNL     1       3.003  -1.119   0.000  0.00  0.00    +0.000 OA
ENDROOT
BRANCH   9  14
ATOM     14  C   UNL     1       1.363  -4.168   0.000  0.00  0.00    +0.000 A 
ATOM     15  C   UNL     1       1.629  -4.949   0.000  0.00  0.00    +0.000 A 
ATOM     16  C   UNL     1       1.086  -5.570   0.000  0.00  0.00    +0.000 A 
ATOM     17  C   UNL     1       0.277  -5.411   0.000  0.00  0.00    +0.000 A 
ATOM     18  C   UNL     1       0.010  -4.630   0.000  0.00  0.00    +0.000 A 
ATOM     19  C   UNL     1       0.553  -4.009   0.000  0.00  0.00    +0.000 A 
ENDBRANCH   9  14
BRANCH  11  20
ATOM     20  N   UNL     1       1.487  -1.394   0.000  0.00  0.00    +0.000 NA
ATOM     21  C   UNL     1       1.823  -0.641   0.000  0.00  0.00    +0.000 C 
ATOM     22  O   UNL     1       2.643  -0.554   0.000  0.00  0.00    +0.000 OA
BRANCH  21  23
ATOM     23  C   UNL     1       1.338   0.027   0.000  0.00  0.00    +0.000 A 
ATOM     24  C   UNL     1       0.513   0.027   0.000  0.00  0.00    +0.000 A 
ATOM     25  C   UNL     1       0.258   0.811   0.000  0.00  0.00    +0.000 A 
ATOM     26  C   UNL     1      -0.496   1.147   0.000  0.00  0.00    +0.000 A 
ATOM     27  C   UNL     1      -0.582   1.968   0.000  0.00  0.00    +0.000 A 
ATOM     28  C   UNL     1       0.085   2.453   0.000  0.00  0.00    +0.000 A 
ATOM     29  C   UNL     1       0.839   2.117   0.000  0.00  0.00    +0.000 A 
ATOM     30  C   UNL     1       0.925   1.296   0.000  0.00  0.00    +0.000 A 
ATOM     31  N   UNL     1       1.593   0.811   0.000  0.00  0.00    +0.000 N 
ATOM     32  C   UNL     1       2.346   1.147   0.000  0.00  0.00    +0.000 C 
ATOM     33  C   UNL     1       2.433   1.968   0.000  0.00  0.00    +0.000 C 
ATOM     34  C   UNL     1       1.765   2.453   0.000  0.00  0.00    +0.000 C 
ENDBRANCH  21  23
ENDBRANCH  11  20
TORSDOF 3
