REMARK  Name = 
REMARK  10 active torsions:
REMARK  status: ('A' for Active; 'I' for Inactive)
REMARK    1  A    between atoms: C_6  and  C_32
REMARK    2  A    between atoms: C_9  and  N_16
REMARK    3  A    between atoms: C_14  and  C_18
REMARK    4  A    between atoms: C_21  and  C_46
REMARK    5  A    between atoms: C_23  and  C_34
REMARK    6  A    between atoms: C_25  and  C_60
REMARK    7  A    between atoms: C_29  and  S_30
REMARK    8  A    between atoms: S_30  and  C_34
REMARK    9  A    between atoms: C_32  and  C_55
REMARK   10  A    between atoms: C_42  and  N_44
REMARK                            x       y       z     vdW  Elec       q    Type
REMARK                         _______ _______ _______ _____ _____    ______ ____
ROOT
ATOM      1  N   UNL     1       1.157  -0.213   0.000  0.00  0.00    +0.000 N 
ATOM      2  C   UNL     1       0.445   0.203   0.000  0.00  0.00    +0.000 C 
ATOM      3  N   UNL     1      -0.267   1.439   0.000  0.00  0.00    +0.000 N 
ATOM      4  C   UNL     1      -0.984   1.024   0.000  0.00  0.00    +0.000 C 
ATOM      5  N   UNL     1      -2.537   1.439   0.000  0.00  0.00    +0.000 N 
ATOM      6  C   UNL     1       0.445   1.024   0.000  0.00  0.00    +0.000 C 
ATOM      7  C   UNL     1       1.157  -1.029   0.000  0.00  0.00    +0.000 C 
ATOM      8  N   UNL     1      -0.267  -1.029   0.000  0.00  0.00    +0.000 NA
ATOM      9  C   UNL     1      -3.848  -1.444   0.000  0.00  0.00    +0.000 C 
ATOM     10  C   UNL     1      -3.264   1.034   0.000  0.00  0.00    +0.000 C 
ATOM     11  C   UNL     1       0.445  -1.444   0.000  0.00  0.00    +0.000 C 
ATOM     12  C   UNL     1      -4.664  -0.969   0.000  0.00  0.00    +0.000 C 
ATOM     13  C   UNL     1      -1.696  -1.029   0.000  0.00  0.00    +0.000 C 
ATOM     14  N   UNL     1      -4.688   1.053   0.000  0.00  0.00    +0.000 NA
ATOM     15  C   UNL     1      -1.706   1.439   0.000  0.00  0.00    +0.000 C 
ATOM     16  O   UNL     1      -2.418  -1.444   0.000  0.00  0.00    +0.000 OA
ATOM     17  C   UNL     1       1.869   0.203   0.000  0.00  0.00    +0.000 C 
ATOM     18  C   UNL     1      -0.984  -1.444   0.000  0.00  0.00    +0.000 C 
ATOM     19  C   UNL     1       1.869  -1.454   0.000  0.00  0.00    +0.000 C 
ATOM     20  C   UNL     1       2.582  -0.213   0.000  0.00  0.00    +0.000 C 
ATOM     21  C   UNL     1       2.582  -1.029   0.000  0.00  0.00    +0.000 C 
ATOM     22  C   UNL     1      -3.961   1.464   0.000  0.00  0.00    +0.000 C 
ATOM     23  C   UNL     1      -3.131  -1.029   0.000  0.00  0.00    +0.000 C 
ATOM     24  O   UNL     1      -0.267  -0.213   0.000  0.00  0.00    +0.000 OA
ATOM     25  O   UNL     1      -0.984   0.203   0.000  0.00  0.00    +0.000 OA
ATOM     26  O   UNL     1      -3.269   0.208   0.000  0.00  0.00    +0.000 OA
ATOM     27  O   UNL     1      -5.386  -1.380   0.000  0.00  0.00    +0.000 OA
ATOM     28  O   UNL     1       0.445  -2.275   0.000  0.00  0.00    +0.000 OA
ATOM     29  O   UNL     1      -1.696  -0.208   0.000  0.00  0.00    +0.000 OA
ATOM     30  O   UNL     1       3.309  -1.444   0.000  0.00  0.00    +0.000 OA
ATOM     31  C   UNL     1      -2.779   2.225   0.000  0.00  0.00    +0.000 C 
ATOM     32  C   UNL     1      -0.267   2.265   0.000  0.00  0.00    +0.000 C 
ATOM     33  C   UNL     1      -1.444   2.220   0.000  0.00  0.00    +0.000 C 
ATOM     34  C   UNL     1      -2.112   2.710   0.000  0.00  0.00    +0.000 C 
ATOM     35  C   UNL     1      -3.131  -0.208   0.000  0.00  0.00    +0.000 C 
ENDROOT
BRANCH  18  36
ATOM     36  C   UNL     1      -0.984  -2.275   0.000  0.00  0.00    +0.000 A 
ATOM     37  C   UNL     1      -0.267  -2.676   0.000  0.00  0.00    +0.000 A 
ATOM     38  C   UNL     1      -1.706  -2.676   0.000  0.00  0.00    +0.000 A 
ATOM     39  C   UNL     1      -1.706  -3.506   0.000  0.00  0.00    +0.000 A 
ATOM     40  C   UNL     1      -0.267  -3.506   0.000  0.00  0.00    +0.000 A 
ATOM     41  C   UNL     1      -0.984  -3.922   0.000  0.00  0.00    +0.000 A 
ENDBRANCH  18  36
BRANCH   9  43
ATOM     42  C   UNL     1      -4.560  -2.685   0.000  0.00  0.00    +0.000 C 
ATOM     43  N   UNL     1      -3.848  -2.275   0.000  0.00  0.00    +0.000 NA
ATOM     44  O   UNL     1      -5.282  -2.275   0.000  0.00  0.00    +0.000 OA
BRANCH  42  45
ATOM     45  C   UNL     1      -4.570  -3.506   0.000  0.00  0.00    +0.000 A 
ATOM     46  N   UNL     1      -5.282  -3.922   0.000  0.00  0.00    +0.000 NA
ATOM     47  C   UNL     1      -3.858  -3.922   0.000  0.00  0.00    +0.000 A 
ATOM     48  O   UNL     1      -3.135  -3.502   0.000  0.00  0.00    +0.000 OA
ATOM     49  C   UNL     1      -5.282  -4.748   0.000  0.00  0.00    +0.000 A 
ATOM     50  C   UNL     1      -3.848  -4.748   0.000  0.00  0.00    +0.000 A 
ATOM     51  C   UNL     1      -4.570  -5.163   0.000  0.00  0.00    +0.000 A 
ENDBRANCH  42  45
ENDBRANCH   9  43
BRANCH  22  52
ATOM     52  C   UNL     1      -3.951   2.285   0.000  0.00  0.00    +0.000 C 
ATOM     53  C   UNL     1      -3.234   2.680   0.000  0.00  0.00    +0.000 C 
ENDBRANCH  22  52
BRANCH  20  54
ATOM     54  C   UNL     1       3.412  -0.213   0.000  0.00  0.00    +0.000 C 
BRANCH  54  55
ATOM     55  S   UNL     1       3.828   0.504   0.000  0.00  0.00    +0.000 S 
BRANCH  55  57
ATOM     56  N   UNL     1       4.520   2.413   0.000  0.00  0.00    +0.000 NA
ATOM     57  C   UNL     1       3.828   1.330   0.000  0.00  0.00    +0.000 C 
ATOM     58  C   UNL     1       3.724   2.072   0.000  0.00  0.00    +0.000 C 
ATOM     59  C   UNL     1       4.659   1.686   0.000  0.00  0.00    +0.000 C 
ATOM     60  C   UNL     1       5.386   1.345   0.000  0.00  0.00    +0.000 C 
ATOM     61  C   UNL     1       4.792   2.700   0.000  0.00  0.00    +0.000 C 
ATOM     62  C   UNL     1       5.237   2.092   0.000  0.00  0.00    +0.000 C 
ATOM     63  C   UNL     1       4.550   3.294   0.000  0.00  0.00    +0.000 C 
ENDBRANCH  55  57
ENDBRANCH  54  55
ENDBRANCH  20  54
BRANCH   6  64
ATOM     64  C   UNL     1       1.157   1.449   0.000  0.00  0.00    +0.000 C 
BRANCH  64  68
ATOM     65  C   UNL     1       1.157   3.917   0.000  0.00  0.00    +0.000 A 
ATOM     66  C   UNL     1       1.879   3.502   0.000  0.00  0.00    +0.000 A 
ATOM     67  C   UNL     1       0.445   3.502   0.000  0.00  0.00    +0.000 A 
ATOM     68  C   UNL     1       1.157   2.265   0.000  0.00  0.00    +0.000 A 
ATOM     69  C   UNL     1       0.445   2.680   0.000  0.00  0.00    +0.000 A 
ATOM     70  C   UNL     1       1.879   2.680   0.000  0.00  0.00    +0.000 A 
BRANCH  65  71
ATOM     71  N   UNL     1       1.157   4.743   0.000  0.00  0.00    +0.000 N 
ATOM     72  C   UNL     1       0.445   5.158   0.000  0.00  0.00    +0.000 C 
ATOM     73  C   UNL     1       1.869   5.163   0.000  0.00  0.00    +0.000 C 
ENDBRANCH  65  71
ENDBRANCH  64  68
ENDBRANCH   6  64
TORSDOF 10
