REMARK  Name = 
REMARK  12 active torsions:
REMARK  status: ('A' for Active; 'I' for Inactive)
REMARK    1  A    between atoms: C_11  and  C_29
REMARK    2  A    between atoms: C_12  and  C_30
REMARK    3  A    between atoms: C_13  and  C_40
REMARK    4  A    between atoms: C_26  and  C_34
REMARK    5  A    between atoms: C_26  and  C_35
REMARK    6  A    between atoms: C_27  and  C_34
REMARK    7  A    between atoms: C_27  and  C_36
REMARK    8  A    between atoms: C_29  and  C_31
REMARK    9  A    between atoms: C_29  and  C_38
REMARK   10  A    between atoms: C_30  and  C_35
REMARK   11  A    between atoms: C_30  and  C_37
REMARK   12  A    between atoms: C_33  and  C_39
REMARK                            x       y       z     vdW  Elec       q    Type
REMARK                         _______ _______ _______ _____ _____    ______ ____
ROOT
ATOM      1  C   UNL     1       2.920   1.841   0.000  0.00  0.00    +0.000 C 
ATOM      2  C   UNL     1       0.445   0.412   0.000  0.00  0.00    +0.000 C 
ATOM      3  C   UNL     1      -0.457   4.414   0.000  0.00  0.00    +0.000 C 
ATOM      4  C   UNL     1      -0.793   1.127   0.000  0.00  0.00    +0.000 C 
ATOM      5  C   UNL     1       0.032   1.127   0.000  0.00  0.00    +0.000 C 
ATOM      6  C   UNL     1      -1.785   3.449   0.000  0.00  0.00    +0.000 C 
ATOM      7  C   UNL     1      -1.613   2.642   0.000  0.00  0.00    +0.000 C 
ATOM      8  C   UNL     1       1.682   1.127   0.000  0.00  0.00    +0.000 C 
ATOM      9  C   UNL     1       2.095   1.841   0.000  0.00  0.00    +0.000 C 
ATOM     10  C   UNL     1       0.857   1.127   0.000  0.00  0.00    +0.000 C 
ATOM     11  C   UNL     1      -1.206   1.841   0.000  0.00  0.00    +0.000 C 
ATOM     12  C   UNL     1       1.682   2.556   0.000  0.00  0.00    +0.000 C 
ATOM     13  C   UNL     1      -1.071   3.862   0.000  0.00  0.00    +0.000 C 
ATOM     14  C   UNL     1       0.445   1.841   0.000  0.00  0.00    +0.000 C 
ATOM     15  C   UNL     1      -0.793   2.556   0.000  0.00  0.00    +0.000 C 
ATOM     16  O   UNL     1      -2.030   1.841   0.000  0.00  0.00    +0.000 OA
ATOM     17  O   UNL     1       0.857   2.556   0.000  0.00  0.00    +0.000 OA
ATOM     18  O   UNL     1      -0.457   3.310   0.000  0.00  0.00    +0.000 OA
ATOM     19  O   UNL     1       0.032   2.556   0.000  0.00  0.00    +0.000 OA
ENDROOT
BRANCH  13  24
ATOM     20  C   UNL     1      -3.681   5.024   0.000  0.00  0.00    +0.000 C 
ATOM     21  C   UNL     1      -1.220   5.283   0.000  0.00  0.00    +0.000 C 
ATOM     22  C   UNL     1      -1.705   5.950   0.000  0.00  0.00    +0.000 C 
ATOM     23  C   UNL     1      -2.861   5.110   0.000  0.00  0.00    +0.000 C 
ATOM     24  C   UNL     1      -1.555   4.529   0.000  0.00  0.00    +0.000 C 
ATOM     25  C   UNL     1      -2.525   5.864   0.000  0.00  0.00    +0.000 C 
ATOM     26  O   UNL     1      -2.468   6.687   0.000  0.00  0.00    +0.000 OA
ATOM     27  O   UNL     1      -2.376   4.443   0.000  0.00  0.00    +0.000 OA
BRANCH  25  29
ATOM     28  C   UNL     1      -3.899   5.470   0.000  0.00  0.00    +0.000 C 
ATOM     29  C   UNL     1      -3.326   6.064   0.000  0.00  0.00    +0.000 C 
ENDBRANCH  25  29
ENDBRANCH  13  24
BRANCH  12  30
ATOM     30  C   UNL     1       2.095   3.270   0.000  0.00  0.00    +0.000 C 
BRANCH  30  32
ATOM     31  C   UNL     1       2.095   4.699   0.000  0.00  0.00    +0.000 C 
ATOM     32  C   UNL     1       1.682   3.985   0.000  0.00  0.00    +0.000 C 
ENDBRANCH  30  32
BRANCH  30  33
ATOM     33  C   UNL     1       2.920   3.270   0.000  0.00  0.00    +0.000 C 
ATOM     34  O   UNL     1       3.332   2.556   0.000  0.00  0.00    +0.000 OA
BRANCH  33  36
ATOM     35  C   UNL     1       2.920   4.699   0.000  0.00  0.00    +0.000 C 
ATOM     36  C   UNL     1       3.332   3.985   0.000  0.00  0.00    +0.000 C 
BRANCH  36  37
ATOM     37  C   UNL     1       4.157   3.985   0.000  0.00  0.00    +0.000 C 
ATOM     38  O   UNL     1       4.569   4.699   0.000  0.00  0.00    +0.000 OA
BRANCH  37  40
ATOM     39  C   UNL     1       4.157   2.556   0.000  0.00  0.00    +0.000 C 
ATOM     40  C   UNL     1       4.569   3.270   0.000  0.00  0.00    +0.000 C 
BRANCH  40  46
ATOM     41  C   UNL     1       5.394   1.841   0.000  0.00  0.00    +0.000 C 
ATOM     42  C   UNL     1       6.632   2.556   0.000  0.00  0.00    +0.000 C 
ATOM     43  C   UNL     1       7.045   3.270   0.000  0.00  0.00    +0.000 C 
ATOM     44  C   UNL     1       5.807   2.556   0.000  0.00  0.00    +0.000 C 
ATOM     45  C   UNL     1       6.632   3.985   0.000  0.00  0.00    +0.000 C 
ATOM     46  C   UNL     1       5.394   3.270   0.000  0.00  0.00    +0.000 C 
ATOM     47  O   UNL     1       5.807   3.985   0.000  0.00  0.00    +0.000 OA
BRANCH  45  48
ATOM     48  C   UNL     1       7.045   4.699   0.000  0.00  0.00    +0.000 C 
BRANCH  48  49
ATOM     49  C   UNL     1       6.632   5.414   0.000  0.00  0.00    +0.000 C 
ATOM     50  O   UNL     1       5.807   5.414   0.000  0.00  0.00    +0.000 OA
ATOM     51  O   UNL     1       7.045   6.128   0.000  0.00  0.00    +0.000 OA
ENDBRANCH  48  49
BRANCH  48  53
ATOM     52  C   UNL     1       8.282   5.414   0.000  0.00  0.00    +0.000 C 
ATOM     53  C   UNL     1       7.870   4.699   0.000  0.00  0.00    +0.000 C 
ENDBRANCH  48  53
ENDBRANCH  45  48
ENDBRANCH  40  46
ENDBRANCH  37  40
ENDBRANCH  36  37
ENDBRANCH  33  36
ENDBRANCH  30  33
ENDBRANCH  12  30
TORSDOF 12
