REMARK  Name = 
REMARK  4 active torsions:
REMARK  status: ('A' for Active; 'I' for Inactive)
REMARK    1  A    between atoms: C_2  and  O_12
REMARK    2  A    between atoms: O_12  and  C_13
REMARK    3  A    between atoms: C_13  and  C_14
REMARK    4  A    between atoms: C_14  and  C_16
REMARK                            x       y       z     vdW  Elec       q    Type
REMARK                         _______ _______ _______ _____ _____    ______ ____
ROOT
ATOM      1  O   UNL     1      -0.513  -0.696   0.000  0.00  0.00    +0.000 OA
ENDROOT
BRANCH   1   3
ATOM      2  C   UNL     1      -1.800   0.907   0.000  0.00  0.00    +0.000 C 
ATOM      3  C   UNL     1      -0.722   0.094   0.000  0.00  0.00    +0.000 C 
ATOM      4  C   UNL     1      -1.242   0.530   0.000  0.00  0.00    +0.000 C 
ATOM      5  C   UNL     1      -2.229   0.530   0.000  0.00  0.00    +0.000 C 
ATOM      6  N   UNL     1      -2.373   1.355   0.000  0.00  0.00    +0.000 NA
ATOM      7  C   UNL     1      -0.860   0.922   0.000  0.00  0.00    +0.000 C 
ATOM      8  C   UNL     1      -2.757  -0.194   0.000  0.00  0.00    +0.000 C 
ATOM      9  C   UNL     1      -2.129   0.187   0.000  0.00  0.00    +0.000 C 
ATOM     10  C   UNL     1      -2.460   2.347   0.000  0.00  0.00    +0.000 C 
ENDBRANCH   1   3
BRANCH   1  11
ATOM     11  C   UNL     1       0.198  -1.107   0.000  0.00  0.00    +0.000 C 
ATOM     12  O   UNL     1       0.196  -1.932   0.000  0.00  0.00    +0.000 OA
BRANCH  11  13
ATOM     13  C   UNL     1       0.914  -0.698   0.000  0.00  0.00    +0.000 C 
ATOM     14  O   UNL     1       0.916   0.127   0.000  0.00  0.00    +0.000 OA
BRANCH  13  15
ATOM     15  C   UNL     1       1.629  -1.110   0.000  0.00  0.00    +0.000 A 
ATOM     16  C   UNL     1       1.629  -1.935   0.000  0.00  0.00    +0.000 A 
ATOM     17  C   UNL     1       2.343  -2.347   0.000  0.00  0.00    +0.000 A 
ATOM     18  C   UNL     1       3.058  -1.935   0.000  0.00  0.00    +0.000 A 
ATOM     19  C   UNL     1       3.058  -1.110   0.000  0.00  0.00    +0.000 A 
ATOM     20  C   UNL     1       2.343  -0.697   0.000  0.00  0.00    +0.000 A 
ENDBRANCH  13  15
ENDBRANCH  11  13
ENDBRANCH   1  11
TORSDOF 4
