REMARK  Name = 
REMARK  6 active torsions:
REMARK  status: ('A' for Active; 'I' for Inactive)
REMARK    1  A    between atoms: O_2  and  C_3
REMARK    2  A    between atoms: C_8  and  N_9
REMARK    3  A    between atoms: N_9  and  C_10
REMARK    4  A    between atoms: C_13  and  C_15
REMARK    5  A    between atoms: C_13  and  C_18
REMARK    6  A    between atoms: C_31  and  C_33
REMARK                            x       y       z     vdW  Elec       q    Type
REMARK                         _______ _______ _______ _____ _____    ______ ____
ROOT
ATOM      1  C   UNL     1      -0.551   0.954   0.000  0.00  0.00    +0.000 C 
ATOM      2  O   UNL     1      -0.886   0.201   0.000  0.00  0.00    +0.000 OA
ATOM      3  N   UNL     1       0.164   0.542   0.000  0.00  0.00    +0.000 N 
ATOM      4  C   UNL     1       0.164  -0.283   0.000  0.00  0.00    +0.000 C 
ATOM      5  C   UNL     1       0.878  -0.696   0.000  0.00  0.00    +0.000 C 
ATOM      6  C   UNL     1       0.672   0.129   0.000  0.00  0.00    +0.000 C 
ATOM      7  C   UNL     1       0.878   0.954   0.000  0.00  0.00    +0.000 C 
ATOM      8  C   UNL     1       1.593   0.542   0.000  0.00  0.00    +0.000 C 
ATOM      9  N   UNL     1       1.593  -0.283   0.000  0.00  0.00    +0.000 N 
ATOM     10  C   UNL     1       2.307  -0.696   0.000  0.00  0.00    +0.000 A 
ATOM     11  N   UNL     1       3.021  -0.283   0.000  0.00  0.00    +0.000 NA
ATOM     12  C   UNL     1       3.736  -0.696   0.000  0.00  0.00    +0.000 A 
ATOM     13  N   UNL     1       3.736  -1.521   0.000  0.00  0.00    +0.000 NA
ATOM     14  C   UNL     1       3.021  -1.933   0.000  0.00  0.00    +0.000 A 
ATOM     15  C   UNL     1       2.307  -1.521   0.000  0.00  0.00    +0.000 A 
ENDROOT
BRANCH   1  19
ATOM     16  C   UNL     1       0.432   2.683   0.000  0.00  0.00    +0.000 C 
ATOM     17  C   UNL     1      -0.287   3.088   0.000  0.00  0.00    +0.000 C 
ATOM     18  C   UNL     1      -0.894   2.529   0.000  0.00  0.00    +0.000 C 
ATOM     19  C   UNL     1      -0.551   1.779   0.000  0.00  0.00    +0.000 C 
ATOM     20  C   UNL     1       0.269   1.874   0.000  0.00  0.00    +0.000 C 
BRANCH  19  21
ATOM     21  C   UNL     1      -1.257   1.352   0.000  0.00  0.00    +0.000 C 
ATOM     22  C   UNL     1      -1.980   1.749   0.000  0.00  0.00    +0.000 C 
ATOM     23  C   UNL     1      -1.239   0.527   0.000  0.00  0.00    +0.000 C 
ENDBRANCH  19  21
BRANCH  16  24
ATOM     24  N   UNL     1       1.182   3.026   0.000  0.00  0.00    +0.000 NA
BRANCH  24  30
ATOM     25  C   UNL     1       2.604   2.892   0.000  0.00  0.00    +0.000 C 
ATOM     26  C   UNL     1       3.277   2.414   0.000  0.00  0.00    +0.000 C 
ATOM     27  O   UNL     1       3.199   1.593   0.000  0.00  0.00    +0.000 OA
ATOM     28  C   UNL     1       2.449   1.249   0.000  0.00  0.00    +0.000 C 
ATOM     29  C   UNL     1       1.777   1.727   0.000  0.00  0.00    +0.000 C 
ATOM     30  C   UNL     1       1.854   2.548   0.000  0.00  0.00    +0.000 C 
BRANCH  25  32
ATOM     31  C   UNL     1       3.432   4.056   0.000  0.00  0.00    +0.000 C 
ATOM     32  O   UNL     1       2.682   3.713   0.000  0.00  0.00    +0.000 OA
ENDBRANCH  25  32
ENDBRANCH  24  30
ENDBRANCH  16  24
ENDBRANCH   1  19
BRANCH  14  33
ATOM     33  C   UNL     1       3.021  -2.758   0.000  0.00  0.00    +0.000 C 
ATOM     34  F   UNL     1       3.021  -3.583   0.000  0.00  0.00    +0.000 F 
ATOM     35  F   UNL     1       2.196  -2.758   0.000  0.00  0.00    +0.000 F 
ATOM     36  F   UNL     1       3.846  -2.758   0.000  0.00  0.00    +0.000 F 
ENDBRANCH  14  33
TORSDOF 6
