REMARK  Name = 
REMARK  3 active torsions:
REMARK  status: ('A' for Active; 'I' for Inactive)
REMARK    1  A    between atoms: C_1  and  O_4
REMARK    2  A    between atoms: O_4  and  C_8
REMARK    3  A    between atoms: C_5  and  C_10
REMARK                            x       y       z     vdW  Elec       q    Type
REMARK                         _______ _______ _______ _____ _____    ______ ____
ROOT
ATOM      1  C   UNL     1      -0.351   0.826   0.000  0.00  0.00    +0.000 C 
ATOM      2  O   UNL     1      -1.064   1.243   0.000  0.00  0.00    +0.000 OA
ATOM      3  C   UNL     1      -0.351  -0.003   0.000  0.00  0.00    +0.000 C 
ATOM      4  C   UNL     1      -1.784   0.826   0.000  0.00  0.00    +0.000 C 
ATOM      5  C   UNL     1      -1.064  -0.413   0.000  0.00  0.00    +0.000 C 
ATOM      6  O   UNL     1       0.365  -0.413   0.000  0.00  0.00    +0.000 OA
ATOM      7  C   UNL     1      -1.784  -0.003   0.000  0.00  0.00    +0.000 C 
ATOM      8  O   UNL     1      -1.064  -1.243   0.000  0.00  0.00    +0.000 OA
ATOM      9  O   UNL     1      -2.503  -0.417   0.000  0.00  0.00    +0.000 OA
ENDROOT
BRANCH   4  10
ATOM     10  C   UNL     1      -2.503   1.243   0.000  0.00  0.00    +0.000 C 
ATOM     11  O   UNL     1      -3.219   0.826   0.000  0.00  0.00    +0.000 OA
ENDBRANCH   4  10
BRANCH   1  12
ATOM     12  O   UNL     1       0.365   1.240   0.000  0.00  0.00    +0.000 OA
BRANCH  12  13
ATOM     13  C   UNL     1       1.078   0.830   0.000  0.00  0.00    +0.000 A 
ATOM     14  C   UNL     1       1.078   0.007   0.000  0.00  0.00    +0.000 A 
ATOM     15  C   UNL     1       1.794   1.243   0.000  0.00  0.00    +0.000 A 
ATOM     16  C   UNL     1       1.794  -0.403   0.000  0.00  0.00    +0.000 A 
ATOM     17  C   UNL     1       2.506   0.830   0.000  0.00  0.00    +0.000 A 
ATOM     18  C   UNL     1       2.506   0.007   0.000  0.00  0.00    +0.000 A 
ATOM     19  O   UNL     1       3.219  -0.403   0.000  0.00  0.00    +0.000 OA
ENDBRANCH  12  13
ENDBRANCH   1  12
TORSDOF 3
