REMARK  Name = 
REMARK  4 active torsions:
REMARK  status: ('A' for Active; 'I' for Inactive)
REMARK    1  A    between atoms: C_5  and  C_11
REMARK    2  A    between atoms: C_6  and  O_10
REMARK    3  A    between atoms: O_10  and  C_13
REMARK    4  A    between atoms: C_17  and  C_22
REMARK                            x       y       z     vdW  Elec       q    Type
REMARK                         _______ _______ _______ _____ _____    ______ ____
ROOT
ATOM      1  O   UNL     1       0.000   0.000   0.000  0.00  0.00    +0.000 OA
ENDROOT
BRANCH   1   7
ATOM      2  C   UNL     1       0.000   2.475   0.000  0.00  0.00    +0.000 C 
ATOM      3  C   UNL     1       0.715   2.062   0.000  0.00  0.00    +0.000 C 
ATOM      4  O   UNL     1      -0.715   2.062   0.000  0.00  0.00    +0.000 OA
ATOM      5  C   UNL     1       0.715   1.238   0.000  0.00  0.00    +0.000 C 
ATOM      6  C   UNL     1      -0.715   1.238   0.000  0.00  0.00    +0.000 C 
ATOM      7  C   UNL     1       0.000   0.825   0.000  0.00  0.00    +0.000 C 
ATOM      8  O   UNL     1       0.000   3.300   0.000  0.00  0.00    +0.000 OA
ATOM      9  O   UNL     1       1.429   2.475   0.000  0.00  0.00    +0.000 OA
ATOM     10  O   UNL     1       1.429   0.825   0.000  0.00  0.00    +0.000 OA
BRANCH   6  11
ATOM     11  C   UNL     1      -1.429   0.825   0.000  0.00  0.00    +0.000 C 
ATOM     12  O   UNL     1      -2.143   1.238   0.000  0.00  0.00    +0.000 OA
ENDBRANCH   6  11
ENDBRANCH   1   7
BRANCH   1  13
ATOM     13  C   UNL     1      -0.715  -0.412   0.000  0.00  0.00    +0.000 C 
ATOM     14  C   UNL     1      -0.715  -1.238   0.000  0.00  0.00    +0.000 C 
ATOM     15  O   UNL     1      -1.429   0.000   0.000  0.00  0.00    +0.000 OA
ATOM     16  C   UNL     1      -1.429  -1.650   0.000  0.00  0.00    +0.000 C 
ATOM     17  C   UNL     1      -2.143  -0.412   0.000  0.00  0.00    +0.000 C 
ATOM     18  C   UNL     1      -2.143  -1.238   0.000  0.00  0.00    +0.000 C 
ATOM     19  O   UNL     1       0.000  -1.650   0.000  0.00  0.00    +0.000 OA
ATOM     20  O   UNL     1      -1.429  -2.475   0.000  0.00  0.00    +0.000 OA
ATOM     21  O   UNL     1      -2.858  -1.650   0.000  0.00  0.00    +0.000 OA
BRANCH  17  22
ATOM     22  C   UNL     1      -2.858   0.000   0.000  0.00  0.00    +0.000 C 
ATOM     23  O   UNL     1      -3.572  -0.412   0.000  0.00  0.00    +0.000 OA
ENDBRANCH  17  22
ENDBRANCH   1  13
TORSDOF 4
