REMARK  Name = 
REMARK  5 active torsions:
REMARK  status: ('A' for Active; 'I' for Inactive)
REMARK    1  A    between atoms: C_2  and  O_4
REMARK    2  A    between atoms: O_4  and  C_5
REMARK    3  A    between atoms: C_7  and  C_28
REMARK    4  A    between atoms: C_15  and  C_22
REMARK    5  A    between atoms: C_28  and  O_30
REMARK                            x       y       z     vdW  Elec       q    Type
REMARK                         _______ _______ _______ _____ _____    ______ ____
ROOT
ATOM      1  C   UNL     1       2.445  -1.540   0.000  0.00  0.00    +0.000 C 
ATOM      2  C   UNL     1       2.033  -0.825   0.000  0.00  0.00    +0.000 C 
ATOM      3  C   UNL     1       2.445  -0.111   0.000  0.00  0.00    +0.000 C 
ATOM      4  C   UNL     1       3.270  -0.111   0.000  0.00  0.00    +0.000 C 
ATOM      5  C   UNL     1       3.683   0.604   0.000  0.00  0.00    +0.000 C 
ATOM      6  C   UNL     1       4.508   0.604   0.000  0.00  0.00    +0.000 C 
ATOM      7  C   UNL     1       4.920  -0.111   0.000  0.00  0.00    +0.000 C 
ATOM      8  C   UNL     1       5.745  -0.111   0.000  0.00  0.00    +0.000 C 
ATOM      9  O   UNL     1       6.158   0.604   0.000  0.00  0.00    +0.000 OA
ATOM     10  O   UNL     1       6.158  -0.825   0.000  0.00  0.00    +0.000 OA
ATOM     11  C   UNL     1       5.745  -1.540   0.000  0.00  0.00    +0.000 C 
ATOM     12  C   UNL     1       4.920  -1.540   0.000  0.00  0.00    +0.000 C 
ATOM     13  C   UNL     1       4.508  -0.825   0.000  0.00  0.00    +0.000 C 
ATOM     14  C   UNL     1       3.683  -0.825   0.000  0.00  0.00    +0.000 C 
ATOM     15  C   UNL     1       3.270  -1.540   0.000  0.00  0.00    +0.000 C 
ATOM     16  O   UNL     1       3.683  -2.254   0.000  0.00  0.00    +0.000 OA
ATOM     17  C   UNL     1       4.095  -1.540   0.000  0.00  0.00    +0.000 C 
ATOM     18  C   UNL     1       2.858   0.604   0.000  0.00  0.00    +0.000 C 
ENDROOT
BRANCH  11  19
ATOM     19  C   UNL     1       6.158  -2.254   0.000  0.00  0.00    +0.000 A 
ATOM     20  C   UNL     1       6.978  -2.340   0.000  0.00  0.00    +0.000 A 
ATOM     21  C   UNL     1       7.150  -3.147   0.000  0.00  0.00    +0.000 A 
ATOM     22  O   UNL     1       6.435  -3.560   0.000  0.00  0.00    +0.000 OA
ATOM     23  C   UNL     1       5.822  -3.008   0.000  0.00  0.00    +0.000 A 
ENDBRANCH  11  19
BRANCH   3  24
ATOM     24  C   UNL     1       2.033   0.604   0.000  0.00  0.00    +0.000 C 
ATOM     25  O   UNL     1       2.445   1.318   0.000  0.00  0.00    +0.000 OA
BRANCH  24  26
ATOM     26  O   UNL     1       1.208   0.604   0.000  0.00  0.00    +0.000 OA
ATOM     27  C   UNL     1       0.795   1.318   0.000  0.00  0.00    +0.000 C 
ENDBRANCH  24  26
ENDBRANCH   3  24
BRANCH   1  28
ATOM     28  O   UNL     1       2.033  -2.254   0.000  0.00  0.00    +0.000 OA
BRANCH  28  30
ATOM     29  C   UNL     1       0.795  -2.968   0.000  0.00  0.00    +0.000 C 
ATOM     30  C   UNL     1       1.208  -2.254   0.000  0.00  0.00    +0.000 C 
ATOM     31  O   UNL     1       0.795  -1.540   0.000  0.00  0.00    +0.000 OA
ENDBRANCH  28  30
ENDBRANCH   1  28
TORSDOF 5
