REMARK  Name = 
REMARK  13 active torsions:
REMARK  status: ('A' for Active; 'I' for Inactive)
REMARK    1  A    between atoms: C_2  and  C_5
REMARK    2  A    between atoms: C_8  and  C_11
REMARK    3  A    between atoms: N_18  and  C_23
REMARK    4  A    between atoms: C_19  and  C_20
REMARK    5  A    between atoms: C_23  and  C_24
REMARK    6  A    between atoms: C_26  and  O_35
REMARK    7  A    between atoms: C_28  and  O_30
REMARK    8  A    between atoms: O_30  and  C_31
REMARK    9  A    between atoms: C_31  and  C_32
REMARK   10  A    between atoms: C_32  and  O_33
REMARK   11  A    between atoms: O_35  and  C_36
REMARK   12  A    between atoms: C_36  and  C_37
REMARK   13  A    between atoms: C_37  and  O_38
REMARK                            x       y       z     vdW  Elec       q    Type
REMARK                         _______ _______ _______ _____ _____    ______ ____
ROOT
ATOM      1  C   UNL     1       1.139  -0.030   0.000  0.00  0.00    +0.000 A 
ATOM      2  C   UNL     1       1.923  -0.285   0.000  0.00  0.00    +0.000 A 
ATOM      3  C   UNL     1       2.638   0.127   0.000  0.00  0.00    +0.000 A 
ATOM      4  C   UNL     1       3.352  -0.285   0.000  0.00  0.00    +0.000 A 
ATOM      5  C   UNL     1       3.352  -1.110   0.000  0.00  0.00    +0.000 A 
ATOM      6  C   UNL     1       2.638  -1.523   0.000  0.00  0.00    +0.000 A 
ATOM      7  C   UNL     1       1.923  -1.110   0.000  0.00  0.00    +0.000 A 
ATOM      8  N   UNL     1       1.139  -1.365   0.000  0.00  0.00    +0.000 N 
ATOM      9  C   UNL     1       0.654  -0.698   0.000  0.00  0.00    +0.000 A 
ENDROOT
BRANCH   1  13
ATOM     10  C   UNL     1       0.374   2.323   0.000  0.00  0.00    +0.000 A 
ATOM     11  C   UNL     1       1.181   2.152   0.000  0.00  0.00    +0.000 A 
ATOM     12  C   UNL     1       1.436   1.367   0.000  0.00  0.00    +0.000 A 
ATOM     13  C   UNL     1       0.884   0.754   0.000  0.00  0.00    +0.000 A 
ATOM     14  C   UNL     1       0.077   0.926   0.000  0.00  0.00    +0.000 A 
ATOM     15  C   UNL     1      -0.178   1.710   0.000  0.00  0.00    +0.000 A 
BRANCH  10  17
ATOM     16  C   UNL     1      -0.136   3.893   0.000  0.00  0.00    +0.000 C 
ATOM     17  C   UNL     1       0.119   3.108   0.000  0.00  0.00    +0.000 C 
ATOM     18  C   UNL     1      -0.666   2.853   0.000  0.00  0.00    +0.000 C 
ATOM     19  C   UNL     1       0.904   3.363   0.000  0.00  0.00    +0.000 C 
ENDBRANCH  10  17
ENDBRANCH   1  13
BRANCH   9  20
ATOM     20  C   UNL     1      -0.171  -0.698   0.000  0.00  0.00    +0.000 C 
ATOM     21  O   UNL     1      -0.584   0.017   0.000  0.00  0.00    +0.000 OA
ATOM     22  O   UNL     1      -0.584  -1.412   0.000  0.00  0.00    +0.000 OA
ENDBRANCH   9  20
BRANCH   8  23
ATOM     23  C   UNL     1       0.884  -2.150   0.000  0.00  0.00    +0.000 C 
BRANCH  23  24
ATOM     24  C   UNL     1       1.436  -2.763   0.000  0.00  0.00    +0.000 A 
ATOM     25  C   UNL     1       2.243  -2.592   0.000  0.00  0.00    +0.000 A 
ATOM     26  C   UNL     1       2.795  -3.205   0.000  0.00  0.00    +0.000 A 
ATOM     27  C   UNL     1       2.540  -3.989   0.000  0.00  0.00    +0.000 A 
ATOM     28  C   UNL     1       1.733  -4.161   0.000  0.00  0.00    +0.000 A 
ATOM     29  C   UNL     1       1.181  -3.548   0.000  0.00  0.00    +0.000 A 
BRANCH  28  30
ATOM     30  O   UNL     1       1.478  -4.945   0.000  0.00  0.00    +0.000 OA
BRANCH  30  31
ATOM     31  C   UNL     1       0.671  -5.117   0.000  0.00  0.00    +0.000 C 
BRANCH  31  32
ATOM     32  C   UNL     1       0.416  -5.902   0.000  0.00  0.00    +0.000 C 
BRANCH  32  33
ATOM     33  O   UNL     1      -0.391  -6.073   0.000  0.00  0.00    +0.000 OA
ATOM     34  C   UNL     1      -0.646  -6.858   0.000  0.00  0.00    +0.000 C 
ENDBRANCH  32  33
ENDBRANCH  31  32
ENDBRANCH  30  31
ENDBRANCH  28  30
BRANCH  26  35
ATOM     35  O   UNL     1       3.602  -3.033   0.000  0.00  0.00    +0.000 OA
BRANCH  35  36
ATOM     36  C   UNL     1       3.857  -2.248   0.000  0.00  0.00    +0.000 C 
BRANCH  36  37
ATOM     37  C   UNL     1       4.664  -2.077   0.000  0.00  0.00    +0.000 C 
BRANCH  37  38
ATOM     38  O   UNL     1       4.919  -1.292   0.000  0.00  0.00    +0.000 OA
ATOM     39  C   UNL     1       5.726  -1.121   0.000  0.00  0.00    +0.000 C 
ENDBRANCH  37  38
ENDBRANCH  36  37
ENDBRANCH  35  36
ENDBRANCH  26  35
ENDBRANCH  23  24
ENDBRANCH   8  23
TORSDOF 13
