REMARK  Name = 
REMARK  3 active torsions:
REMARK  status: ('A' for Active; 'I' for Inactive)
REMARK    1  A    between atoms: C_1  and  C_7
REMARK    2  A    between atoms: C_5  and  C_21
REMARK    3  A    between atoms: N_8  and  C_12
REMARK                            x       y       z     vdW  Elec       q    Type
REMARK                         _______ _______ _______ _____ _____    ______ ____
ROOT
ATOM      1  C   UNL     1       1.133  -1.081   0.000  0.00  0.00    +0.000 A 
ATOM      2  N   UNL     1       1.220  -0.260   0.000  0.00  0.00    +0.000 N 
ATOM      3  N   UNL     1       1.887  -1.416   0.000  0.00  0.00    +0.000 NA
ATOM      4  C   UNL     1       2.026  -0.089   0.000  0.00  0.00    +0.000 A 
ATOM      5  N   UNL     1       2.439  -0.803   0.000  0.00  0.00    +0.000 NA
ATOM      6  O   UNL     1       2.362   0.665   0.000  0.00  0.00    +0.000 OA
ENDROOT
BRANCH   2   7
ATOM      7  C   UNL     1       0.606   0.292   0.000  0.00  0.00    +0.000 A 
ATOM      8  C   UNL     1      -0.178   0.037   0.000  0.00  0.00    +0.000 A 
ATOM      9  C   UNL     1       0.778   1.099   0.000  0.00  0.00    +0.000 A 
ATOM     10  C   UNL     1      -0.791   0.589   0.000  0.00  0.00    +0.000 A 
ATOM     11  C   UNL     1       0.165   1.651   0.000  0.00  0.00    +0.000 A 
ATOM     12  C   UNL     1      -0.620   1.396   0.000  0.00  0.00    +0.000 A 
ATOM     13  C   UNL     1       0.165   2.476   0.000  0.00  0.00    +0.000 A 
ATOM     14  C   UNL     1      -0.620   2.731   0.000  0.00  0.00    +0.000 A 
ATOM     15  N   UNL     1      -1.105   2.063   0.000  0.00  0.00    +0.000 N 
ATOM     16  C   UNL     1      -1.930   2.063   0.000  0.00  0.00    +0.000 C 
ENDBRANCH   2   7
BRANCH   1  17
ATOM     17  C   UNL     1       0.419  -1.493   0.000  0.00  0.00    +0.000 A 
ATOM     18  C   UNL     1       0.419  -2.318   0.000  0.00  0.00    +0.000 A 
ATOM     19  C   UNL     1      -0.296  -1.081   0.000  0.00  0.00    +0.000 A 
ATOM     20  C   UNL     1      -0.296  -2.731   0.000  0.00  0.00    +0.000 A 
ATOM     21  C   UNL     1      -1.010  -1.493   0.000  0.00  0.00    +0.000 A 
ATOM     22  C   UNL     1      -1.010  -2.318   0.000  0.00  0.00    +0.000 A 
ATOM     23  O   UNL     1      -1.724  -2.731   0.000  0.00  0.00    +0.000 OA
ATOM     24  O   UNL     1       1.133  -2.731   0.000  0.00  0.00    +0.000 OA
BRANCH  21  25
ATOM     25  C   UNL     1      -1.724  -1.081   0.000  0.00  0.00    +0.000 C 
ATOM     26  C   UNL     1      -1.724  -0.256   0.000  0.00  0.00    +0.000 C 
ATOM     27  C   UNL     1      -2.439  -1.493   0.000  0.00  0.00    +0.000 C 
ENDBRANCH  21  25
ENDBRANCH   1  17
TORSDOF 3
