REMARK  Name = 
REMARK  2 active torsions:
REMARK  status: ('A' for Active; 'I' for Inactive)
REMARK    1  A    between atoms: C_25  and  O_26
REMARK    2  A    between atoms: O_26  and  C_27
REMARK                            x       y       z     vdW  Elec       q    Type
REMARK                         _______ _______ _______ _____ _____    ______ ____
ROOT
ATOM      1  C   UNL     1       6.112   1.356   0.000  0.00  0.00    +0.000 C 
ATOM      2  C   UNL     1       6.826   0.944   0.000  0.00  0.00    +0.000 C 
ATOM      3  C   UNL     1       6.655   0.137   0.000  0.00  0.00    +0.000 C 
ATOM      4  O   UNL     1       7.207  -0.476   0.000  0.00  0.00    +0.000 OA
ATOM      5  O   UNL     1       5.835   0.051   0.000  0.00  0.00    +0.000 OA
ATOM      6  C   UNL     1       5.499   0.804   0.000  0.00  0.00    +0.000 C 
ATOM      7  C   UNL     1       4.714   1.059   0.000  0.00  0.00    +0.000 C 
ATOM      8  C   UNL     1       4.542   1.865   0.000  0.00  0.00    +0.000 C 
ATOM      9  C   UNL     1       5.155   2.418   0.000  0.00  0.00    +0.000 C 
ATOM     10  C   UNL     1       4.983   3.225   0.000  0.00  0.00    +0.000 C 
ATOM     11  O   UNL     1       5.940   2.163   0.000  0.00  0.00    +0.000 OA
ATOM     12  C   UNL     1       3.757   2.120   0.000  0.00  0.00    +0.000 C 
ATOM     13  O   UNL     1       3.586   2.927   0.000  0.00  0.00    +0.000 OA
ATOM     14  C   UNL     1       3.145   1.568   0.000  0.00  0.00    +0.000 A 
ATOM     15  C   UNL     1       3.317   0.761   0.000  0.00  0.00    +0.000 A 
ATOM     16  C   UNL     1       4.101   0.506   0.000  0.00  0.00    +0.000 C 
ATOM     17  O   UNL     1       4.273  -0.301   0.000  0.00  0.00    +0.000 OA
ATOM     18  C   UNL     1       2.704   0.208   0.000  0.00  0.00    +0.000 A 
ATOM     19  O   UNL     1       2.876  -0.598   0.000  0.00  0.00    +0.000 OA
ATOM     20  C   UNL     1       1.919   0.463   0.000  0.00  0.00    +0.000 A 
ATOM     21  C   UNL     1       1.306  -0.089   0.000  0.00  0.00    +0.000 C 
ATOM     22  C   UNL     1       0.521   0.165   0.000  0.00  0.00    +0.000 C 
ATOM     23  C   UNL     1       0.349   0.972   0.000  0.00  0.00    +0.000 C 
ATOM     24  C   UNL     1       0.962   1.524   0.000  0.00  0.00    +0.000 C 
ATOM     25  O   UNL     1       0.790   2.331   0.000  0.00  0.00    +0.000 OA
ATOM     26  C   UNL     1       0.942   0.958   0.000  0.00  0.00    +0.000 C 
ATOM     27  C   UNL     1       0.183   0.635   0.000  0.00  0.00    +0.000 C 
ATOM     28  O   UNL     1       1.057   0.420   0.000  0.00  0.00    +0.000 OA
ATOM     29  C   UNL     1       1.747   1.270   0.000  0.00  0.00    +0.000 A 
ATOM     30  C   UNL     1       2.360   1.822   0.000  0.00  0.00    +0.000 A 
ATOM     31  O   UNL     1       2.188   2.629   0.000  0.00  0.00    +0.000 OA
ENDROOT
BRANCH  23  32
ATOM     32  O   UNL     1      -0.435   1.227   0.000  0.00  0.00    +0.000 OA
BRANCH  32  33
ATOM     33  C   UNL     1      -1.048   0.674   0.000  0.00  0.00    +0.000 C 
ATOM     34  C   UNL     1      -0.876  -0.133   0.000  0.00  0.00    +0.000 C 
ATOM     35  C   UNL     1      -1.489  -0.685   0.000  0.00  0.00    +0.000 C 
ATOM     36  C   UNL     1      -2.274  -0.430   0.000  0.00  0.00    +0.000 C 
ATOM     37  O   UNL     1      -2.887  -0.983   0.000  0.00  0.00    +0.000 OA
ATOM     38  C   UNL     1      -2.446   0.377   0.000  0.00  0.00    +0.000 C 
ATOM     39  C   UNL     1      -3.230   0.631   0.000  0.00  0.00    +0.000 C 
ATOM     40  O   UNL     1      -1.833   0.929   0.000  0.00  0.00    +0.000 OA
ENDBRANCH  32  33
ENDBRANCH  23  32
TORSDOF 2
