REMARK  Name = 
REMARK  10 active torsions:
REMARK  status: ('A' for Active; 'I' for Inactive)
REMARK    1  A    between atoms: C_2  and  C_3
REMARK    2  A    between atoms: C_3  and  C_4
REMARK    3  A    between atoms: C_4  and  O_5
REMARK    4  A    between atoms: O_5  and  C_6
REMARK    5  A    between atoms: C_7  and  O_8
REMARK    6  A    between atoms: C_11  and  C_16
REMARK    7  A    between atoms: C_13  and  O_14
REMARK    8  A    between atoms: N_18  and  C_19
REMARK    9  A    between atoms: C_19  and  C_20
REMARK   10  A    between atoms: C_20  and  N_26
REMARK                            x       y       z     vdW  Elec       q    Type
REMARK                         _______ _______ _______ _____ _____    ______ ____
ROOT
ATOM      1  C   UNL     1       2.756  -7.372   0.000  0.00  0.00    +0.000 A 
ATOM      2  C   UNL     1       3.470  -6.960   0.000  0.00  0.00    +0.000 A 
ATOM      3  C   UNL     1       4.185  -7.372   0.000  0.00  0.00    +0.000 A 
ATOM      4  C   UNL     1       4.185  -8.197   0.000  0.00  0.00    +0.000 A 
ATOM      5  C   UNL     1       3.470  -8.610   0.000  0.00  0.00    +0.000 A 
ATOM      6  C   UNL     1       2.756  -8.197   0.000  0.00  0.00    +0.000 A 
ENDROOT
BRANCH   4   7
ATOM      7  C   UNL     1       4.899  -8.610   0.000  0.00  0.00    +0.000 C 
ATOM      8  O   UNL     1       4.899  -9.435   0.000  0.00  0.00    +0.000 OA
ATOM      9  N   UNL     1       5.614  -8.197   0.000  0.00  0.00    +0.000 NA
BRANCH   9  10
ATOM     10  C   UNL     1       6.328  -8.610   0.000  0.00  0.00    +0.000 C 
BRANCH  10  11
ATOM     11  C   UNL     1       7.043  -8.197   0.000  0.00  0.00    +0.000 C 
ATOM     12  C   UNL     1       7.573  -7.566   0.000  0.00  0.00    +0.000 C 
ATOM     13  C   UNL     1       8.385  -7.709   0.000  0.00  0.00    +0.000 C 
ATOM     14  O   UNL     1       8.668  -8.484   0.000  0.00  0.00    +0.000 OA
ATOM     15  C   UNL     1       8.137  -9.116   0.000  0.00  0.00    +0.000 C 
ATOM     16  C   UNL     1       7.325  -8.973   0.000  0.00  0.00    +0.000 C 
BRANCH  11  17
ATOM     17  N   UNL     1       6.512  -7.566   0.000  0.00  0.00    +0.000 NA
ATOM     18  C   UNL     1       6.795  -6.790   0.000  0.00  0.00    +0.000 C 
ATOM     19  C   UNL     1       5.700  -7.709   0.000  0.00  0.00    +0.000 C 
ENDBRANCH  11  17
ENDBRANCH  10  11
ENDBRANCH   9  10
ENDBRANCH   4   7
BRANCH   6  20
ATOM     20  O   UNL     1       2.041  -8.610   0.000  0.00  0.00    +0.000 OA
ATOM     21  C   UNL     1       1.327  -8.197   0.000  0.00  0.00    +0.000 C 
ENDBRANCH   6  20
BRANCH   2  22
ATOM     22  O   UNL     1       3.470  -6.135   0.000  0.00  0.00    +0.000 OA
ATOM     23  C   UNL     1       4.185  -5.722   0.000  0.00  0.00    +0.000 C 
ENDBRANCH   2  22
BRANCH   1  24
ATOM     24  O   UNL     1       2.041  -6.960   0.000  0.00  0.00    +0.000 OA
BRANCH  24  25
ATOM     25  C   UNL     1       1.327  -7.372   0.000  0.00  0.00    +0.000 C 
BRANCH  25  26
ATOM     26  C   UNL     1       0.612  -6.960   0.000  0.00  0.00    +0.000 C 
BRANCH  26  28
ATOM     27  C   UNL     1      -0.817  -6.960   0.000  0.00  0.00    +0.000 C 
ATOM     28  C   UNL     1      -0.102  -7.372   0.000  0.00  0.00    +0.000 C 
ENDBRANCH  26  28
ENDBRANCH  25  26
ENDBRANCH  24  25
ENDBRANCH   1  24
TORSDOF 10
