REMARK  Name = 
REMARK  9 active torsions:
REMARK  status: ('A' for Active; 'I' for Inactive)
REMARK    1  A    between atoms: C_3  and  C_4
REMARK    2  A    between atoms: C_4  and  C_5
REMARK    3  A    between atoms: C_4  and  C_9
REMARK    4  A    between atoms: C_5  and  C_6
REMARK    5  A    between atoms: C_12  and  O_13
REMARK    6  A    between atoms: O_13  and  C_14
REMARK    7  A    between atoms: C_14  and  C_15
REMARK    8  A    between atoms: C_18  and  C_19
REMARK    9  A    between atoms: C_19  and  N_20
REMARK                            x       y       z     vdW  Elec       q    Type
REMARK                         _______ _______ _______ _____ _____    ______ ____
ROOT
ATOM      1  C   UNL     1       6.578   0.676   0.000  0.00  0.00    +0.000 A 
ATOM      2  C   UNL     1       6.544  -0.148   0.000  0.00  0.00    +0.000 A 
ATOM      3  C   UNL     1       5.813  -0.530   0.000  0.00  0.00    +0.000 A 
ATOM      4  C   UNL     1       5.116  -0.089   0.000  0.00  0.00    +0.000 A 
ATOM      5  C   UNL     1       5.150   0.736   0.000  0.00  0.00    +0.000 A 
ATOM      6  C   UNL     1       5.881   1.118   0.000  0.00  0.00    +0.000 A 
ENDROOT
BRANCH   1   7
ATOM      7  C   UNL     1       7.309   1.059   0.000  0.00  0.00    +0.000 C 
BRANCH   7   8
ATOM      8  O   UNL     1       7.343   1.883   0.000  0.00  0.00    +0.000 OA
BRANCH   8  12
ATOM      9  C   UNL     1       9.536   3.030   0.000  0.00  0.00    +0.000 A 
ATOM     10  C   UNL     1       9.502   2.206   0.000  0.00  0.00    +0.000 A 
ATOM     11  C   UNL     1       8.771   1.824   0.000  0.00  0.00    +0.000 A 
ATOM     12  C   UNL     1       8.074   2.265   0.000  0.00  0.00    +0.000 A 
ATOM     13  C   UNL     1       8.108   3.090   0.000  0.00  0.00    +0.000 A 
ATOM     14  C   UNL     1       8.839   3.472   0.000  0.00  0.00    +0.000 A 
BRANCH   9  15
ATOM     15  C   UNL     1      10.267   3.413   0.000  0.00  0.00    +0.000 C 
BRANCH  15  18
ATOM     16  C   UNL     1      10.370   5.886   0.000  0.00  0.00    +0.000 C 
ATOM     17  C   UNL     1      10.336   5.061   0.000  0.00  0.00    +0.000 C 
ATOM     18  C   UNL     1      10.301   4.237   0.000  0.00  0.00    +0.000 C 
ENDBRANCH  15  18
BRANCH  15  19
ATOM     19  C   UNL     1      10.964   2.971   0.000  0.00  0.00    +0.000 C 
BRANCH  19  20
ATOM     20  C   UNL     1      11.695   3.353   0.000  0.00  0.00    +0.000 C 
ATOM     21  O   UNL     1      11.729   4.178   0.000  0.00  0.00    +0.000 OA
ATOM     22  O   UNL     1      12.392   2.912   0.000  0.00  0.00    +0.000 OA
ENDBRANCH  19  20
ENDBRANCH  15  19
ENDBRANCH   9  15
ENDBRANCH   8  12
ENDBRANCH   7   8
ENDBRANCH   1   7
BRANCH   4  23
ATOM     23  C   UNL     1       4.385  -0.471   0.000  0.00  0.00    +0.000 C 
BRANCH  23  24
ATOM     24  N   UNL     1       3.688  -0.029   0.000  0.00  0.00    +0.000 NA
ATOM     25  C   UNL     1       2.957  -0.412   0.000  0.00  0.00    +0.000 C 
ATOM     26  C   UNL     1       2.261   0.030   0.000  0.00  0.00    +0.000 C 
ATOM     27  C   UNL     1       2.295   0.854   0.000  0.00  0.00    +0.000 C 
ATOM     28  C   UNL     1       3.026   1.237   0.000  0.00  0.00    +0.000 C 
ATOM     29  C   UNL     1       3.723   0.795   0.000  0.00  0.00    +0.000 C 
ATOM     30  C   UNL     1       2.243   1.678   0.000  0.00  0.00    +0.000 C 
ATOM     31  C   UNL     1       1.444   1.883   0.000  0.00  0.00    +0.000 C 
ATOM     32  C   UNL     1       1.002   1.186   0.000  0.00  0.00    +0.000 A 
ATOM     33  C   UNL     1       1.528   0.550   0.000  0.00  0.00    +0.000 A 
ATOM     34  C   UNL     1       1.241  -0.223   0.000  0.00  0.00    +0.000 A 
ATOM     35  C   UNL     1       0.427  -0.361   0.000  0.00  0.00    +0.000 A 
ATOM     36  C   UNL     1      -0.099   0.275   0.000  0.00  0.00    +0.000 A 
ATOM     37  C   UNL     1       0.188   1.048   0.000  0.00  0.00    +0.000 A 
ENDBRANCH  23  24
ENDBRANCH   4  23
TORSDOF 9
