REMARK  Name = 
REMARK  13 active torsions:
REMARK  status: ('A' for Active; 'I' for Inactive)
REMARK    1  A    between atoms: N_2  and  C_8
REMARK    2  A    between atoms: N_5  and  C_7
REMARK    3  A    between atoms: C_8  and  C_9
REMARK    4  A    between atoms: C_14  and  C_15
REMARK    5  A    between atoms: C_26  and  C_27
REMARK    6  A    between atoms: N_28  and  S_29
REMARK    7  A    between atoms: S_29  and  C_30
REMARK    8  A    between atoms: C_34  and  N_40
REMARK    9  A    between atoms: C_35  and  N_39
REMARK   10  A    between atoms: N_40  and  C_53
REMARK   11  A    between atoms: C_41  and  O_43
REMARK   12  A    between atoms: O_43  and  C_44
REMARK   13  A    between atoms: C_53  and  C_54
REMARK                            x       y       z     vdW  Elec       q    Type
REMARK                         _______ _______ _______ _____ _____    ______ ____
ROOT
ATOM      1  C   UNL     1      -1.909  -0.730   0.000  0.00  0.00    +0.000 A 
ATOM      2  C   UNL     1      -2.610  -0.318   0.000  0.00  0.00    +0.000 A 
ATOM      3  C   UNL     1      -2.646   0.512   0.000  0.00  0.00    +0.000 A 
ATOM      4  C   UNL     1      -1.853   0.952   0.000  0.00  0.00    +0.000 A 
ATOM      5  C   UNL     1      -1.188   0.520   0.000  0.00  0.00    +0.000 A 
ATOM      6  C   UNL     1      -1.188  -0.330   0.000  0.00  0.00    +0.000 A 
ENDROOT
BRANCH   1  11
ATOM      7  C   UNL     1      -2.590  -2.806   0.000  0.00  0.00    +0.000 C 
ATOM      8  N   UNL     1      -1.869  -3.207   0.000  0.00  0.00    +0.000 NA
ATOM      9  C   UNL     1      -1.168  -2.794   0.000  0.00  0.00    +0.000 C 
ATOM     10  C   UNL     1      -1.188  -1.980   0.000  0.00  0.00    +0.000 C 
ATOM     11  N   UNL     1      -1.909  -1.580   0.000  0.00  0.00    +0.000 N 
ATOM     12  C   UNL     1      -2.610  -1.992   0.000  0.00  0.00    +0.000 C 
BRANCH   8  13
ATOM     13  C   UNL     1      -1.869  -4.056   0.000  0.00  0.00    +0.000 C 
BRANCH  13  14
ATOM     14  C   UNL     1      -1.168  -4.468   0.000  0.00  0.00    +0.000 C 
ATOM     15  C   UNL     1      -0.447  -4.068   0.000  0.00  0.00    +0.000 C 
ATOM     16  C   UNL     1       0.255  -4.481   0.000  0.00  0.00    +0.000 C 
ATOM     17  C   UNL     1       0.255  -5.330   0.000  0.00  0.00    +0.000 C 
ATOM     18  C   UNL     1      -0.467  -5.731   0.000  0.00  0.00    +0.000 C 
ATOM     19  C   UNL     1      -1.188  -5.282   0.000  0.00  0.00    +0.000 C 
ATOM     20  C   UNL     1       0.936  -5.282   0.000  0.00  0.00    +0.000 C 
ATOM     21  C   UNL     1       0.523  -5.983   0.000  0.00  0.00    +0.000 C 
BRANCH  19  22
ATOM     22  C   UNL     1      -1.909  -5.683   0.000  0.00  0.00    +0.000 A 
ATOM     23  C   UNL     1      -1.909  -6.532   0.000  0.00  0.00    +0.000 A 
ATOM     24  C   UNL     1      -2.630  -6.933   0.000  0.00  0.00    +0.000 A 
ATOM     25  C   UNL     1      -3.351  -6.484   0.000  0.00  0.00    +0.000 A 
ATOM     26  C   UNL     1      -3.331  -5.671   0.000  0.00  0.00    +0.000 A 
ATOM     27  C   UNL     1      -2.610  -5.270   0.000  0.00  0.00    +0.000 A 
ATOM     28 CL   UNL     1      -4.072  -6.885   0.000  0.00  0.00    +0.000 Cl
ENDBRANCH  19  22
ENDBRANCH  13  14
ENDBRANCH   8  13
ENDBRANCH   1  11
BRANCH   4  29
ATOM     29  C   UNL     1      -1.833   1.766   0.000  0.00  0.00    +0.000 C 
ATOM     30  N   UNL     1      -1.112   2.143   0.000  0.00  0.00    +0.000 NA
ATOM     31  O   UNL     1      -2.498   2.179   0.000  0.00  0.00    +0.000 OA
BRANCH  30  32
ATOM     32  S   UNL     1      -1.057   2.935   0.000  0.00  0.00    +0.000 S 
ATOM     33  O   UNL     1      -1.905   2.977   0.000  0.00  0.00    +0.000 OA
ATOM     34  O   UNL     1      -1.470   3.677   0.000  0.00  0.00    +0.000 OA
BRANCH  32  35
ATOM     35  C   UNL     1      -0.337   3.313   0.000  0.00  0.00    +0.000 A 
ATOM     36  C   UNL     1       0.364   2.877   0.000  0.00  0.00    +0.000 A 
ATOM     37  C   UNL     1       1.106   3.289   0.000  0.00  0.00    +0.000 A 
ATOM     38  C   UNL     1       1.126   4.103   0.000  0.00  0.00    +0.000 A 
ATOM     39  C   UNL     1       0.426   4.539   0.000  0.00  0.00    +0.000 A 
ATOM     40  C   UNL     1      -0.295   4.161   0.000  0.00  0.00    +0.000 A 
BRANCH  39  41
ATOM     41  N   UNL     1       0.433   5.409   0.000  0.00  0.00    +0.000 N 
ATOM     42  O   UNL     1      -0.268   5.844   0.000  0.00  0.00    +0.000 OA
ATOM     43  O   UNL     1       1.118   5.808   0.000  0.00  0.00    +0.000 OA
ENDBRANCH  39  41
BRANCH  38  44
ATOM     44  N   UNL     1       1.869   4.516   0.000  0.00  0.00    +0.000 NA
BRANCH  44  45
ATOM     45  C   UNL     1       1.889   5.329   0.000  0.00  0.00    +0.000 C 
BRANCH  45  46
ATOM     46  C   UNL     1       2.631   5.742   0.000  0.00  0.00    +0.000 C 
ATOM     47  C   UNL     1       3.332   5.306   0.000  0.00  0.00    +0.000 C 
ATOM     48  C   UNL     1       4.053   5.684   0.000  0.00  0.00    +0.000 C 
ATOM     49  O   UNL     1       4.072   6.497   0.000  0.00  0.00    +0.000 OA
ATOM     50  C   UNL     1       3.372   6.933   0.000  0.00  0.00    +0.000 C 
ATOM     51  C   UNL     1       2.651   6.555   0.000  0.00  0.00    +0.000 C 
ENDBRANCH  45  46
ENDBRANCH  44  45
ENDBRANCH  38  44
ENDBRANCH  32  35
ENDBRANCH  30  32
ENDBRANCH   4  29
BRANCH   5  52
ATOM     52  O   UNL     1      -0.467   0.920   0.000  0.00  0.00    +0.000 OA
BRANCH  52  53
ATOM     53  C   UNL     1       0.255   0.471   0.000  0.00  0.00    +0.000 A 
ATOM     54  C   UNL     1       0.956   0.908   0.000  0.00  0.00    +0.000 A 
ATOM     55  C   UNL     1       1.677   0.460   0.000  0.00  0.00    +0.000 A 
ATOM     56  C   UNL     1       1.657  -0.354   0.000  0.00  0.00    +0.000 A 
ATOM     57  N   UNL     1       0.936  -0.754   0.000  0.00  0.00    +0.000 NA
ATOM     58  C   UNL     1       0.234  -0.342   0.000  0.00  0.00    +0.000 A 
ATOM     59  C   UNL     1       2.478   0.716   0.000  0.00  0.00    +0.000 A 
ATOM     60  C   UNL     1       2.951   0.035   0.000  0.00  0.00    +0.000 A 
ATOM     61  N   UNL     1       2.426  -0.634   0.000  0.00  0.00    +0.000 NA
ENDBRANCH  52  53
ENDBRANCH   5  52
TORSDOF 13
