REMARK  Name = 
REMARK  6 active torsions:
REMARK  status: ('A' for Active; 'I' for Inactive)
REMARK    1  A    between atoms: C_4  and  C_21
REMARK    2  A    between atoms: C_7  and  O_8
REMARK    3  A    between atoms: O_8  and  C_9
REMARK    4  A    between atoms: C_9  and  C_10
REMARK    5  A    between atoms: C_9  and  C_17
REMARK    6  A    between atoms: C_10  and  C_11
REMARK                            x       y       z     vdW  Elec       q    Type
REMARK                         _______ _______ _______ _____ _____    ______ ____
ROOT
ATOM      1  C   UNL     1       4.781   1.365   0.000  0.00  0.00    +0.000 C 
ATOM      2  C   UNL     1       4.067   0.952   0.000  0.00  0.00    +0.000 A 
ATOM      3  C   UNL     1       4.067   0.127   0.000  0.00  0.00    +0.000 A 
ATOM      4  C   UNL     1       3.352  -0.285   0.000  0.00  0.00    +0.000 A 
ATOM      5  C   UNL     1       2.638   0.127   0.000  0.00  0.00    +0.000 A 
ATOM      6  C   UNL     1       2.638   0.952   0.000  0.00  0.00    +0.000 A 
ATOM      7  C   UNL     1       3.352   1.365   0.000  0.00  0.00    +0.000 A 
ATOM      8  C   UNL     1       1.923   1.365   0.000  0.00  0.00    +0.000 C 
ENDROOT
BRANCH   4   9
ATOM      9  C   UNL     1       3.352  -1.110   0.000  0.00  0.00    +0.000 A 
ATOM     10  C   UNL     1       4.067  -1.523   0.000  0.00  0.00    +0.000 A 
ATOM     11  C   UNL     1       4.781  -1.110   0.000  0.00  0.00    +0.000 A 
ATOM     12  C   UNL     1       5.496  -1.523   0.000  0.00  0.00    +0.000 A 
ATOM     13  C   UNL     1       5.496  -2.348   0.000  0.00  0.00    +0.000 A 
ATOM     14  C   UNL     1       4.781  -2.760   0.000  0.00  0.00    +0.000 A 
ATOM     15  C   UNL     1       4.067  -2.348   0.000  0.00  0.00    +0.000 A 
ATOM     16  C   UNL     1       3.352  -2.760   0.000  0.00  0.00    +0.000 A 
ATOM     17  C   UNL     1       2.638  -2.348   0.000  0.00  0.00    +0.000 A 
ATOM     18  C   UNL     1       2.638  -1.523   0.000  0.00  0.00    +0.000 A 
ATOM     19  C   UNL     1       1.853  -1.268   0.000  0.00  0.00    +0.000 A 
ATOM     20  C   UNL     1       1.368  -1.935   0.000  0.00  0.00    +0.000 A 
ATOM     21  S   UNL     1       1.853  -2.603   0.000  0.00  0.00    +0.000 S 
ATOM     22  C   UNL     1       0.543  -1.935   0.000  0.00  0.00    +0.000 C 
ATOM     23  C   UNL     1       1.598  -0.483   0.000  0.00  0.00    +0.000 C 
ATOM     24 BR   UNL     1       3.352  -3.585   0.000  0.00  0.00    +0.000 Br
ENDBRANCH   4   9
BRANCH   7  25
ATOM     25  O   UNL     1       3.352   2.190   0.000  0.00  0.00    +0.000 OA
BRANCH  25  26
ATOM     26  C   UNL     1       2.638   2.602   0.000  0.00  0.00    +0.000 C 
BRANCH  26  27
ATOM     27  C   UNL     1       2.638   3.427   0.000  0.00  0.00    +0.000 C 
ATOM     28  O   UNL     1       1.923   3.840   0.000  0.00  0.00    +0.000 OA
ATOM     29  O   UNL     1       3.352   3.840   0.000  0.00  0.00    +0.000 OA
ENDBRANCH  26  27
BRANCH  26  30
ATOM     30  C   UNL     1       1.923   2.190   0.000  0.00  0.00    +0.000 C 
BRANCH  30  31
ATOM     31  C   UNL     1       1.209   2.602   0.000  0.00  0.00    +0.000 A 
ATOM     32  C   UNL     1       0.494   2.190   0.000  0.00  0.00    +0.000 A 
ATOM     33  C   UNL     1      -0.220   2.602   0.000  0.00  0.00    +0.000 A 
ATOM     34  C   UNL     1      -0.220   3.427   0.000  0.00  0.00    +0.000 A 
ATOM     35  C   UNL     1       0.494   3.840   0.000  0.00  0.00    +0.000 A 
ATOM     36  C   UNL     1       1.209   3.427   0.000  0.00  0.00    +0.000 A 
ENDBRANCH  30  31
ENDBRANCH  26  30
ENDBRANCH  25  26
ENDBRANCH   7  25
TORSDOF 6
