REMARK  Name = 
REMARK  2 active torsions:
REMARK  status: ('A' for Active; 'I' for Inactive)
REMARK    1  A    between atoms: C_5  and  C_6
REMARK    2  A    between atoms: C_24  and  C_26
REMARK                            x       y       z     vdW  Elec       q    Type
REMARK                         _______ _______ _______ _____ _____    ______ ____
ROOT
ATOM      1  C   UNL     1      -1.429  -4.950   0.000  0.00  0.00    +0.000 A 
ATOM      2  N   UNL     1      -0.715  -5.362   0.000  0.00  0.00    +0.000 NA
ATOM      3  C   UNL     1      -0.715  -6.188   0.000  0.00  0.00    +0.000 A 
ATOM      4  N   UNL     1      -1.429  -6.600   0.000  0.00  0.00    +0.000 NA
ATOM      5  C   UNL     1      -2.143  -6.188   0.000  0.00  0.00    +0.000 A 
ATOM      6  N   UNL     1      -2.143  -5.362   0.000  0.00  0.00    +0.000 NA
ATOM      7  N   UNL     1      -2.858  -6.600   0.000  0.00  0.00    +0.000 N 
ATOM      8  C   UNL     1      -2.858  -7.425   0.000  0.00  0.00    +0.000 C 
ATOM      9  C   UNL     1      -3.572  -7.838   0.000  0.00  0.00    +0.000 C 
ATOM     10  O   UNL     1      -4.287  -7.425   0.000  0.00  0.00    +0.000 OA
ATOM     11  C   UNL     1      -4.287  -6.600   0.000  0.00  0.00    +0.000 C 
ATOM     12  C   UNL     1      -3.572  -6.188   0.000  0.00  0.00    +0.000 C 
ATOM     13  N   UNL     1       0.000  -6.600   0.000  0.00  0.00    +0.000 N 
ATOM     14  C   UNL     1       0.715  -6.188   0.000  0.00  0.00    +0.000 C 
ATOM     15  C   UNL     1       1.429  -6.600   0.000  0.00  0.00    +0.000 C 
ATOM     16  O   UNL     1       1.429  -7.425   0.000  0.00  0.00    +0.000 OA
ATOM     17  C   UNL     1       0.715  -7.838   0.000  0.00  0.00    +0.000 C 
ATOM     18  C   UNL     1       0.000  -7.425   0.000  0.00  0.00    +0.000 C 
ENDROOT
BRANCH   1  23
ATOM     19  N   UNL     1      -1.429  -1.650   0.000  0.00  0.00    +0.000 NA
ATOM     20  C   UNL     1      -1.429  -2.475   0.000  0.00  0.00    +0.000 A 
ATOM     21  N   UNL     1      -0.715  -2.888   0.000  0.00  0.00    +0.000 NA
ATOM     22  C   UNL     1      -0.715  -3.712   0.000  0.00  0.00    +0.000 A 
ATOM     23  C   UNL     1      -1.429  -4.125   0.000  0.00  0.00    +0.000 A 
ATOM     24  C   UNL     1      -2.143  -3.712   0.000  0.00  0.00    +0.000 A 
ATOM     25  C   UNL     1      -2.143  -2.888   0.000  0.00  0.00    +0.000 A 
BRANCH  24  26
ATOM     26  C   UNL     1      -2.858  -4.125   0.000  0.00  0.00    +0.000 C 
ATOM     27  F   UNL     1      -3.572  -4.537   0.000  0.00  0.00    +0.000 F 
ATOM     28  F   UNL     1      -3.270  -3.410   0.000  0.00  0.00    +0.000 F 
ATOM     29  F   UNL     1      -2.445  -4.840   0.000  0.00  0.00    +0.000 F 
ENDBRANCH  24  26
ENDBRANCH   1  23
TORSDOF 2
