REMARK  Name = 
REMARK  6 active torsions:
REMARK  status: ('A' for Active; 'I' for Inactive)
REMARK    1  A    between atoms: N_2  and  C_5
REMARK    2  A    between atoms: N_2  and  C_6
REMARK    3  A    between atoms: C_5  and  C_9
REMARK    4  A    between atoms: N_14  and  N_15
REMARK    5  A    between atoms: C_16  and  O_17
REMARK    6  A    between atoms: O_17  and  C_19
REMARK                            x       y       z     vdW  Elec       q    Type
REMARK                         _______ _______ _______ _____ _____    ______ ____
ROOT
ATOM      1  C   UNL     1      -1.444   0.715   0.000  0.00  0.00    +0.000 A 
ATOM      2  N   UNL     1      -2.269   0.715   0.000  0.00  0.00    +0.000 N 
ATOM      3  C   UNL     1      -1.031   1.429   0.000  0.00  0.00    +0.000 A 
ATOM      4  N   UNL     1      -1.031   0.000   0.000  0.00  0.00    +0.000 NA
ATOM      5  C   UNL     1      -0.206   1.429   0.000  0.00  0.00    +0.000 A 
ATOM      6  N   UNL     1      -0.206   0.000   0.000  0.00  0.00    +0.000 NA
ATOM      7  C   UNL     1       0.206   0.715   0.000  0.00  0.00    +0.000 A 
ATOM      8  N   UNL     1       1.031   0.714   0.000  0.00  0.00    +0.000 NA
ENDROOT
BRANCH   8   9
ATOM      9  N   UNL     1       1.444   0.000   0.000  0.00  0.00    +0.000 NA
ATOM     10  C   UNL     1       2.269  -0.000   0.000  0.00  0.00    +0.000 C 
ATOM     11  O   UNL     1       2.681   0.714   0.000  0.00  0.00    +0.000 OA
BRANCH  10  12
ATOM     12  O   UNL     1       2.681  -0.715   0.000  0.00  0.00    +0.000 OA
BRANCH  12  13
ATOM     13  C   UNL     1       3.506  -0.715   0.000  0.00  0.00    +0.000 C 
ATOM     14  C   UNL     1       3.919  -1.429   0.000  0.00  0.00    +0.000 C 
ENDBRANCH  12  13
ENDBRANCH  10  12
ENDBRANCH   8   9
BRANCH   2  15
ATOM     15  C   UNL     1      -2.681   1.429   0.000  0.00  0.00    +0.000 C 
ATOM     16  C   UNL     1      -3.506   1.429   0.000  0.00  0.00    +0.000 C 
ENDBRANCH   2  15
BRANCH   2  17
ATOM     17  C   UNL     1      -2.681   0.000   0.000  0.00  0.00    +0.000 C 
BRANCH  17  18
ATOM     18  C   UNL     1      -3.506   0.000   0.000  0.00  0.00    +0.000 C 
ATOM     19  C   UNL     1      -3.919  -0.714   0.000  0.00  0.00    +0.000 C 
ATOM     20  O   UNL     1      -3.919   0.715   0.000  0.00  0.00    +0.000 OA
ENDBRANCH  17  18
ENDBRANCH   2  17
TORSDOF 6
