REMARK  Name = 
REMARK  6 active torsions:
REMARK  status: ('A' for Active; 'I' for Inactive)
REMARK    1  A    between atoms: C_2  and  C_3
REMARK    2  A    between atoms: C_2  and  O_22
REMARK    3  A    between atoms: C_3  and  S_24
REMARK    4  A    between atoms: C_4  and  C_7
REMARK    5  A    between atoms: C_4  and  S_24
REMARK    6  A    between atoms: C_13  and  N_19
REMARK                            x       y       z     vdW  Elec       q    Type
REMARK                         _______ _______ _______ _____ _____    ______ ____
ROOT
ATOM      1  C   UNL     1       0.283  -0.793   0.000  0.00  0.00    +0.000 C 
ATOM      2  C   UNL     1       0.197   0.027   0.000  0.00  0.00    +0.000 C 
ATOM      3  C   UNL     1      -0.610   0.199   0.000  0.00  0.00    +0.000 C 
ATOM      4  C   UNL     1      -1.023  -0.516   0.000  0.00  0.00    +0.000 C 
ATOM      5  O   UNL     1       0.810   0.579   0.000  0.00  0.00    +0.000 OA
ATOM      6  O   UNL     1      -0.946   0.952   0.000  0.00  0.00    +0.000 OA
ATOM      7  O   UNL     1      -0.470  -1.129   0.000  0.00  0.00    +0.000 OA
ENDROOT
BRANCH   4  17
ATOM      8  C   UNL     1      -2.976   1.316   0.000  0.00  0.00    +0.000 A 
ATOM      9  C   UNL     1      -2.256  -1.316   0.000  0.00  0.00    +0.000 A 
ATOM     10  C   UNL     1      -3.149  -0.324   0.000  0.00  0.00    +0.000 A 
ATOM     11  C   UNL     1      -3.816   0.160   0.000  0.00  0.00    +0.000 A 
ATOM     12  C   UNL     1      -2.395   0.011   0.000  0.00  0.00    +0.000 A 
ATOM     13  N   UNL     1      -4.570  -0.175   0.000  0.00  0.00    +0.000 NA
ATOM     14  N   UNL     1      -3.730   0.981   0.000  0.00  0.00    +0.000 NA
ATOM     15  N   UNL     1      -2.309   0.832   0.000  0.00  0.00    +0.000 NA
ATOM     16  N   UNL     1      -3.062  -1.145   0.000  0.00  0.00    +0.000 NA
ATOM     17  N   UNL     1      -1.843  -0.602   0.000  0.00  0.00    +0.000 N 
ENDBRANCH   4  17
BRANCH   1  18
ATOM     18  C   UNL     1       0.998  -1.206   0.000  0.00  0.00    +0.000 C 
BRANCH  18  20
ATOM     19  C   UNL     1       1.712   0.032   0.000  0.00  0.00    +0.000 C 
ATOM     20  S   UNL     1       1.712  -0.793   0.000  0.00  0.00    +0.000 S 
BRANCH  20  21
ATOM     21  C   UNL     1       2.426  -1.206   0.000  0.00  0.00    +0.000 C 
BRANCH  21  22
ATOM     22  C   UNL     1       3.141  -0.793   0.000  0.00  0.00    +0.000 C 
BRANCH  22  24
ATOM     23  N   UNL     1       4.570  -0.793   0.000  0.00  0.00    +0.000 NA
ATOM     24  O   UNL     1       3.855  -1.206   0.000  0.00  0.00    +0.000 OA
ENDBRANCH  22  24
ENDBRANCH  21  22
ENDBRANCH  20  21
ENDBRANCH  18  20
ENDBRANCH   1  18
TORSDOF 6
