REMARK  Name = 
REMARK  8 active torsions:
REMARK  status: ('A' for Active; 'I' for Inactive)
REMARK    1  A    between atoms: S_1  and  C_12
REMARK    2  A    between atoms: N_9  and  C_12
REMARK    3  A    between atoms: N_9  and  C_13
REMARK    4  A    between atoms: C_12  and  C_14
REMARK    5  A    between atoms: C_14  and  C_22
REMARK    6  A    between atoms: C_14  and  C_23
REMARK    7  A    between atoms: C_15  and  C_20
REMARK    8  A    between atoms: C_16  and  C_21
REMARK                            x       y       z     vdW  Elec       q    Type
REMARK                         _______ _______ _______ _____ _____    ______ ____
ROOT
ATOM      1  C   UNL     1       0.000  -0.596   0.000  0.00  0.00    +0.000 A 
ATOM      2  C   UNL     1       0.714  -1.833   0.000  0.00  0.00    +0.000 A 
ATOM      3  C   UNL     1      -0.715  -1.833   0.000  0.00  0.00    +0.000 A 
ATOM      4  C   UNL     1      -0.715  -1.008   0.000  0.00  0.00    +0.000 A 
ATOM      5  C   UNL     1       0.714  -1.008   0.000  0.00  0.00    +0.000 A 
ATOM      6  C   UNL     1       0.000  -2.246   0.000  0.00  0.00    +0.000 A 
ENDROOT
BRANCH   2  10
ATOM      7  F   UNL     1       2.143  -2.658   0.000  0.00  0.00    +0.000 F 
ATOM      8  F   UNL     1       1.016  -2.960   0.000  0.00  0.00    +0.000 F 
ATOM      9  F   UNL     1       1.841  -1.531   0.000  0.00  0.00    +0.000 F 
ATOM     10  C   UNL     1       1.429  -2.246   0.000  0.00  0.00    +0.000 C 
ENDBRANCH   2  10
BRANCH   3  14
ATOM     11  F   UNL     1      -2.143  -2.658   0.000  0.00  0.00    +0.000 F 
ATOM     12  F   UNL     1      -1.016  -2.960   0.000  0.00  0.00    +0.000 F 
ATOM     13  F   UNL     1      -1.841  -1.531   0.000  0.00  0.00    +0.000 F 
ATOM     14  C   UNL     1      -1.429  -2.246   0.000  0.00  0.00    +0.000 C 
ENDBRANCH   3  14
BRANCH   1  15
ATOM     15  N   UNL     1       0.000   0.229   0.000  0.00  0.00    +0.000 N 
ATOM     16  H   UNL     1      -0.443   0.485   0.000  0.00  0.00    +0.000 HD
BRANCH  15  17
ATOM     17  C   UNL     1       0.714   0.642   0.000  0.00  0.00    +0.000 C 
BRANCH  17  18
ATOM     18  S   UNL     1       1.429   0.229   0.000  0.00  0.00    +0.000 S 
ATOM     19  H   UNL     1       1.872   0.485   0.000  0.00  0.00    +0.000 HD
ENDBRANCH  17  18
BRANCH  17  20
ATOM     20  C   UNL     1       0.714   1.467   0.000  0.00  0.00    +0.000 C 
BRANCH  20  23
ATOM     21  O   UNL     1       2.143   1.467   0.000  0.00  0.00    +0.000 OA
ATOM     22  N   UNL     1       1.429   2.704   0.000  0.00  0.00    +0.000 N 
ATOM     23  C   UNL     1       1.429   1.879   0.000  0.00  0.00    +0.000 C 
ATOM     24  H   UNL     1       1.872   2.960   0.000  0.00  0.00    +0.000 HD
ATOM     25  H   UNL     1       0.986   2.960   0.000  0.00  0.00    +0.000 HD
ENDBRANCH  20  23
BRANCH  20  27
ATOM     26  N   UNL     1      -0.715   2.292   0.000  0.00  0.00    +0.000 NA
ATOM     27  C   UNL     1       0.000   1.879   0.000  0.00  0.00    +0.000 C 
ENDBRANCH  20  27
ENDBRANCH  17  20
ENDBRANCH  15  17
ENDBRANCH   1  15
TORSDOF 8
