REMARK  Name = 
REMARK  7 active torsions:
REMARK  status: ('A' for Active; 'I' for Inactive)
REMARK    1  A    between atoms: C_2  and  C_3
REMARK    2  A    between atoms: C_2  and  O_7
REMARK    3  A    between atoms: O_7  and  C_8
REMARK    4  A    between atoms: C_11  and  S_33
REMARK    5  A    between atoms: C_13  and  C_14
REMARK    6  A    between atoms: N_19  and  C_22
REMARK    7  A    between atoms: C_25  and  C_28
REMARK                            x       y       z     vdW  Elec       q    Type
REMARK                         _______ _______ _______ _____ _____    ______ ____
ROOT
ATOM      1  C   UNL     1       0.715  -3.712   0.000  0.00  0.00    +0.000 C 
ATOM      2  O   UNL     1       0.000  -4.125   0.000  0.00  0.00    +0.000 OA
ATOM      3  N   UNL     1       0.715  -2.888   0.000  0.00  0.00    +0.000 N 
ATOM      4  C   UNL     1       0.000  -2.475   0.000  0.00  0.00    +0.000 C 
ATOM      5  C   UNL     1       0.000  -1.650   0.000  0.00  0.00    +0.000 C 
ATOM      6  N   UNL     1       0.715  -1.238   0.000  0.00  0.00    +0.000 N 
ATOM      7  C   UNL     1       1.429  -1.650   0.000  0.00  0.00    +0.000 C 
ATOM      8  C   UNL     1       1.429  -2.475   0.000  0.00  0.00    +0.000 C 
ENDROOT
BRANCH   6   9
ATOM      9  C   UNL     1       0.715  -0.412   0.000  0.00  0.00    +0.000 A 
ATOM     10  C   UNL     1       0.000   0.000   0.000  0.00  0.00    +0.000 A 
ATOM     11  C   UNL     1       0.000   0.825   0.000  0.00  0.00    +0.000 A 
ATOM     12  C   UNL     1       0.715   1.238   0.000  0.00  0.00    +0.000 A 
ATOM     13  C   UNL     1       1.429   0.825   0.000  0.00  0.00    +0.000 A 
ATOM     14  N   UNL     1       1.429   0.000   0.000  0.00  0.00    +0.000 NA
ATOM     15  F   UNL     1      -0.715  -0.412   0.000  0.00  0.00    +0.000 F 
BRANCH  12  16
ATOM     16  C   UNL     1       0.715   2.062   0.000  0.00  0.00    +0.000 C 
ATOM     17  F   UNL     1       0.715   2.888   0.000  0.00  0.00    +0.000 F 
ATOM     18  F   UNL     1       1.540   2.062   0.000  0.00  0.00    +0.000 F 
ATOM     19  F   UNL     1      -0.111   2.062   0.000  0.00  0.00    +0.000 F 
ENDBRANCH  12  16
ENDBRANCH   6   9
BRANCH   1  25
ATOM     20  C   UNL     1       2.143  -3.712   0.000  0.00  0.00    +0.000 A 
ATOM     21  C   UNL     1       2.858  -4.125   0.000  0.00  0.00    +0.000 A 
ATOM     22  C   UNL     1       2.858  -4.950   0.000  0.00  0.00    +0.000 A 
ATOM     23  C   UNL     1       2.143  -5.362   0.000  0.00  0.00    +0.000 A 
ATOM     24  C   UNL     1       1.429  -4.950   0.000  0.00  0.00    +0.000 A 
ATOM     25  C   UNL     1       1.429  -4.125   0.000  0.00  0.00    +0.000 A 
BRANCH  23  26
ATOM     26  S   UNL     1       2.143  -6.188   0.000  0.00  0.00    +0.000 S 
ATOM     27  O   UNL     1       2.143  -7.013   0.000  0.00  0.00    +0.000 OA
ATOM     28  O   UNL     1       1.318  -6.188   0.000  0.00  0.00    +0.000 OA
ATOM     29  C   UNL     1       2.968  -6.188   0.000  0.00  0.00    +0.000 C 
ENDBRANCH  23  26
BRANCH  20  30
ATOM     30  O   UNL     1       2.143  -2.888   0.000  0.00  0.00    +0.000 OA
BRANCH  30  32
ATOM     31  C   UNL     1       3.572  -2.888   0.000  0.00  0.00    +0.000 C 
ATOM     32  C   UNL     1       2.858  -2.475   0.000  0.00  0.00    +0.000 C 
BRANCH  32  33
ATOM     33  C   UNL     1       2.858  -1.650   0.000  0.00  0.00    +0.000 C 
ATOM     34  F   UNL     1       2.858  -0.825   0.000  0.00  0.00    +0.000 F 
ATOM     35  F   UNL     1       2.033  -1.650   0.000  0.00  0.00    +0.000 F 
ATOM     36  F   UNL     1       3.683  -1.650   0.000  0.00  0.00    +0.000 F 
ENDBRANCH  32  33
ENDBRANCH  30  32
ENDBRANCH  20  30
ENDBRANCH   1  25
TORSDOF 7
