REMARK  Name = 
REMARK  0 active torsions:
REMARK  status: ('A' for Active; 'I' for Inactive)
REMARK                            x       y       z     vdW  Elec       q    Type
REMARK                         _______ _______ _______ _____ _____    ______ ____
ROOT
ATOM      1  C   UNL     1      -0.370  -0.418   0.000  0.00  0.00    +0.000 A 
ATOM      2  C   UNL     1      -0.370   0.416   0.000  0.00  0.00    +0.000 A 
ATOM      3  C   UNL     1       0.378  -0.833   0.000  0.00  0.00    +0.000 C 
ATOM      4  C   UNL     1      -1.084  -0.833   0.000  0.00  0.00    +0.000 A 
ATOM      5  C   UNL     1       0.378   0.833   0.000  0.00  0.00    +0.000 C 
ATOM      6  C   UNL     1      -1.084   0.833   0.000  0.00  0.00    +0.000 A 
ATOM      7  C   UNL     1       1.087  -0.418   0.000  0.00  0.00    +0.000 C 
ATOM      8  O   UNL     1       0.378  -1.673   0.000  0.00  0.00    +0.000 OA
ATOM      9  C   UNL     1      -1.795  -0.418   0.000  0.00  0.00    +0.000 A 
ATOM     10  C   UNL     1       1.087   0.416   0.000  0.00  0.00    +0.000 C 
ATOM     11  O   UNL     1       0.378   1.673   0.000  0.00  0.00    +0.000 OA
ATOM     12  C   UNL     1      -1.795   0.416   0.000  0.00  0.00    +0.000 A 
ATOM     13  C   UNL     1       1.795  -0.833   0.000  0.00  0.00    +0.000 C 
ATOM     14  C   UNL     1       1.795   0.833   0.000  0.00  0.00    +0.000 C 
ENDROOT
TORSDOF 0
