REMARK  Name = 
REMARK  0 active torsions:
REMARK  status: ('A' for Active; 'I' for Inactive)
REMARK                            x       y       z     vdW  Elec       q    Type
REMARK                         _______ _______ _______ _____ _____    ______ ____
ROOT
ATOM      1  C   UNL     1      -2.865   0.000   0.000  0.00  0.00    +0.000 A 
ATOM      2  C   UNL     1      -2.865  -0.837   0.000  0.00  0.00    +0.000 A 
ATOM      3  C   UNL     1      -2.154  -1.255   0.000  0.00  0.00    +0.000 A 
ATOM      4  C   UNL     1      -1.401  -0.837   0.000  0.00  0.00    +0.000 A 
ATOM      5  C   UNL     1      -1.401   0.000   0.000  0.00  0.00    +0.000 A 
ATOM      6  C   UNL     1      -2.154   0.418   0.000  0.00  0.00    +0.000 A 
ATOM      7  O   UNL     1      -2.154   1.255   0.000  0.00  0.00    +0.000 OA
ATOM      8  O   UNL     1      -3.576  -1.255   0.000  0.00  0.00    +0.000 OA
ATOM      9  C   UNL     1      -0.690   0.418   0.000  0.00  0.00    +0.000 C 
ATOM     10  O   UNL     1       0.021   0.000   0.000  0.00  0.00    +0.000 OA
ATOM     11  C   UNL     1       0.732   0.418   0.000  0.00  0.00    +0.000 C 
ATOM     12  C   UNL     1       1.443   0.000   0.000  0.00  0.00    +0.000 C 
ATOM     13  C   UNL     1       2.154   0.418   0.000  0.00  0.00    +0.000 C 
ATOM     14  C   UNL     1       2.865   0.000   0.000  0.00  0.00    +0.000 C 
ATOM     15  C   UNL     1       2.865  -0.837   0.000  0.00  0.00    +0.000 C 
ATOM     16  O   UNL     1       3.576  -1.255   0.000  0.00  0.00    +0.000 OA
ATOM     17  C   UNL     1       2.154  -1.255   0.000  0.00  0.00    +0.000 C 
ATOM     18  C   UNL     1       1.443  -0.837   0.000  0.00  0.00    +0.000 C 
ATOM     19  C   UNL     1       0.732  -1.255   0.000  0.00  0.00    +0.000 C 
ATOM     20  C   UNL     1       0.021  -0.837   0.000  0.00  0.00    +0.000 C 
ATOM     21  C   UNL     1      -0.690  -1.255   0.000  0.00  0.00    +0.000 C 
ATOM     22  O   UNL     1      -0.690   1.255   0.000  0.00  0.00    +0.000 OA
ATOM     23  C   UNL     1       0.732   1.255   0.000  0.00  0.00    +0.000 C 
ENDROOT
TORSDOF 0
