REMARK  Name = 
REMARK  2 active torsions:
REMARK  status: ('A' for Active; 'I' for Inactive)
REMARK    1  A    between atoms: C_4  and  C_7
REMARK    2  A    between atoms: C_4  and  C_8
REMARK                            x       y       z     vdW  Elec       q    Type
REMARK                         _______ _______ _______ _____ _____    ______ ____
ROOT
ATOM      1  O   UNL     1       1.434   0.473   0.000  0.00  0.00    +0.000 OA
ATOM      2  O   UNL     1      -1.434   0.468   0.000  0.00  0.00    +0.000 OA
ATOM      3  N   UNL     1       0.708  -0.769   0.000  0.00  0.00    +0.000 NA
ATOM      4  C   UNL     1      -0.006   0.468   0.000  0.00  0.00    +0.000 C 
ATOM      5  C   UNL     1       0.708   0.054   0.000  0.00  0.00    +0.000 C 
ATOM      6  C   UNL     1      -0.720   0.054   0.000  0.00  0.00    +0.000 C 
ATOM      7  C   UNL     1      -0.720  -0.769   0.000  0.00  0.00    +0.000 C 
ATOM      8  C   UNL     1      -0.006  -1.182   0.000  0.00  0.00    +0.000 C 
ENDROOT
BRANCH   4   9
ATOM      9  C   UNL     1      -0.588   1.176   0.000  0.00  0.00    +0.000 C 
ATOM     10  C   UNL     1      -1.385   1.182   0.000  0.00  0.00    +0.000 C 
ENDBRANCH   4   9
BRANCH   4  11
ATOM     11  C   UNL     1       0.490   1.116   0.000  0.00  0.00    +0.000 C 
ATOM     12  C   UNL     1       1.317   1.116   0.000  0.00  0.00    +0.000 C 
ENDBRANCH   4  11
TORSDOF 2
