REMARK  Name = 
REMARK  3 active torsions:
REMARK  status: ('A' for Active; 'I' for Inactive)
REMARK    1  A    between atoms: C_2  and  C_6
REMARK    2  A    between atoms: N_4  and  C_6
REMARK    3  A    between atoms: N_5  and  P_7
REMARK                            x       y       z     vdW  Elec       q    Type
REMARK                         _______ _______ _______ _____ _____    ______ ____
ROOT
ATOM      1  C   UNL     1      -0.357  -0.206   0.000  0.00  0.00    +0.000 C 
ATOM      2  N   UNL     1       0.357   0.206   0.000  0.00  0.00    +0.000 N 
ATOM      3  N   UNL     1      -1.072   0.206   0.000  0.00  0.00    +0.000 NA
ATOM      4  N   UNL     1      -0.357  -1.031   0.000  0.00  0.00    +0.000 NA
ATOM      5  C   UNL     1       0.357   1.031   0.000  0.00  0.00    +0.000 C 
ENDROOT
BRANCH   3   6
ATOM      6  P   UNL     1      -1.786  -0.206   0.000  0.00  0.00    +0.000 P 
ATOM      7  O   UNL     1      -1.786  -1.031   0.000  0.00  0.00    +0.000 OA
ATOM      8  O   UNL     1      -2.501   0.206   0.000  0.00  0.00    +0.000 OA
ATOM      9  O   UNL     1      -2.501  -0.619   0.000  0.00  0.00    +0.000 OA
ENDBRANCH   3   6
BRANCH   2  10
ATOM     10  C   UNL     1       1.072  -0.206   0.000  0.00  0.00    +0.000 C 
BRANCH  10  12
ATOM     11  O   UNL     1       2.501  -0.206   0.000  0.00  0.00    +0.000 OA
ATOM     12  C   UNL     1       1.786   0.206   0.000  0.00  0.00    +0.000 C 
ATOM     13  O   UNL     1       1.786   1.031   0.000  0.00  0.00    +0.000 OA
ENDBRANCH  10  12
ENDBRANCH   2  10
TORSDOF 3
