REMARK  Name = 
REMARK  2 active torsions:
REMARK  status: ('A' for Active; 'I' for Inactive)
REMARK    1  A    between atoms: C_2  and  C_6
REMARK    2  A    between atoms: C_5  and  N_12
REMARK                            x       y       z     vdW  Elec       q    Type
REMARK                         _______ _______ _______ _____ _____    ______ ____
ROOT
ATOM      1  C   UNL     1       0.714   0.933   0.000  0.00  0.00    +0.000 A 
ATOM      2  C   UNL     1       0.714   1.758   0.000  0.00  0.00    +0.000 A 
ATOM      3  C   UNL     1       0.000   2.170   0.000  0.00  0.00    +0.000 A 
ATOM      4  C   UNL     1      -0.714   0.933   0.000  0.00  0.00    +0.000 A 
ATOM      5  F   UNL     1       1.429   2.170   0.000  0.00  0.00    +0.000 F 
ATOM      6  N   UNL     1       0.000   2.995   0.000  0.00  0.00    +0.000 NA
ATOM      7  N   UNL     1      -0.714   1.758   0.000  0.00  0.00    +0.000 NA
ATOM      8  N   UNL     1       0.000   0.520   0.000  0.00  0.00    +0.000 N 
ATOM      9  O   UNL     1      -1.429   0.520   0.000  0.00  0.00    +0.000 OA
ENDROOT
BRANCH   8  11
ATOM     10  C   UNL     1       0.667  -0.789   0.000  0.00  0.00    +0.000 C 
ATOM     11  C   UNL     1       0.000  -0.305   0.000  0.00  0.00    +0.000 C 
ATOM     12  C   UNL     1      -0.412  -1.574   0.000  0.00  0.00    +0.000 C 
ATOM     13  O   UNL     1      -0.667  -0.789   0.000  0.00  0.00    +0.000 OA
ATOM     14  S   UNL     1       0.412  -1.574   0.000  0.00  0.00    +0.000 S 
BRANCH  12  15
ATOM     15  C   UNL     1      -0.897  -2.242   0.000  0.00  0.00    +0.000 C 
ATOM     16  O   UNL     1      -0.562  -2.995   0.000  0.00  0.00    +0.000 OA
ENDBRANCH  12  15
ENDBRANCH   8  11
TORSDOF 2
