REMARK  Name = 
REMARK  4 active torsions:
REMARK  status: ('A' for Active; 'I' for Inactive)
REMARK    1  A    between atoms: N_5  and  C_8
REMARK    2  A    between atoms: N_15  and  C_23
REMARK    3  A    between atoms: C_17  and  C_20
REMARK    4  A    between atoms: C_23  and  C_24
REMARK                            x       y       z     vdW  Elec       q    Type
REMARK                         _______ _______ _______ _____ _____    ______ ____
ROOT
ATOM      1  C   UNL     1      -0.715  -0.412   0.000  0.00  0.00    +0.000 A 
ATOM      2  C   UNL     1      -0.715  -1.238   0.000  0.00  0.00    +0.000 A 
ATOM      3  C   UNL     1       0.000  -1.650   0.000  0.00  0.00    +0.000 A 
ATOM      4  C   UNL     1       0.715  -1.238   0.000  0.00  0.00    +0.000 A 
ATOM      5  C   UNL     1       0.715  -0.412   0.000  0.00  0.00    +0.000 A 
ATOM      6  C   UNL     1       0.000   0.000   0.000  0.00  0.00    +0.000 A 
ATOM      7  F   UNL     1       0.000   0.825   0.000  0.00  0.00    +0.000 F 
ATOM      8  N   UNL     1       1.429   0.000   0.000  0.00  0.00    +0.000 N 
ATOM      9  C   UNL     1       2.143  -0.412   0.000  0.00  0.00    +0.000 A 
ATOM     10  C   UNL     1       2.143  -1.238   0.000  0.00  0.00    +0.000 A 
ATOM     11  C   UNL     1       1.429  -1.650   0.000  0.00  0.00    +0.000 A 
ATOM     12  O   UNL     1       1.429  -2.475   0.000  0.00  0.00    +0.000 OA
ATOM     13  F   UNL     1      -1.429  -1.650   0.000  0.00  0.00    +0.000 F 
ENDROOT
BRANCH   1  18
ATOM     14  C   UNL     1      -3.572   1.238   0.000  0.00  0.00    +0.000 C 
ATOM     15  N   UNL     1      -2.858   0.825   0.000  0.00  0.00    +0.000 NA
ATOM     16  C   UNL     1      -2.143   1.238   0.000  0.00  0.00    +0.000 C 
ATOM     17  C   UNL     1      -1.429   0.825   0.000  0.00  0.00    +0.000 C 
ATOM     18  N   UNL     1      -1.429   0.000   0.000  0.00  0.00    +0.000 N 
ATOM     19  C   UNL     1      -2.143  -0.412   0.000  0.00  0.00    +0.000 C 
ATOM     20  C   UNL     1      -2.858   0.000   0.000  0.00  0.00    +0.000 C 
ENDBRANCH   1  18
BRANCH  10  21
ATOM     21  C   UNL     1       2.858  -1.650   0.000  0.00  0.00    +0.000 C 
ATOM     22  O   UNL     1       3.572  -1.238   0.000  0.00  0.00    +0.000 OA
ATOM     23  O   UNL     1       2.858  -2.475   0.000  0.00  0.00    +0.000 OA
ENDBRANCH  10  21
BRANCH   8  24
ATOM     24  C   UNL     1       1.429   0.825   0.000  0.00  0.00    +0.000 C 
BRANCH  24  25
ATOM     25  C   UNL     1       0.715   1.238   0.000  0.00  0.00    +0.000 C 
ATOM     26  F   UNL     1       0.715   2.062   0.000  0.00  0.00    +0.000 F 
ENDBRANCH  24  25
ENDBRANCH   8  24
TORSDOF 4
