REMARK  Name = 
REMARK  66 active torsions:
REMARK  status: ('A' for Active; 'I' for Inactive)
REMARK    1  A    between atoms: N_4  and  C_5
REMARK    2  A    between atoms: C_5  and  C_6
REMARK    3  A    between atoms: C_5  and  C_13
REMARK    4  A    between atoms: C_6  and  C_7
REMARK    5  A    between atoms: C_7  and  C_8
REMARK    6  A    between atoms: C_8  and  N_9
REMARK    7  A    between atoms: N_15  and  C_16
REMARK    8  A    between atoms: C_16  and  C_17
REMARK    9  A    between atoms: C_16  and  C_25
REMARK   10  A    between atoms: C_17  and  C_18
REMARK   11  A    between atoms: N_27  and  C_28
REMARK   12  A    between atoms: C_28  and  C_29
REMARK   13  A    between atoms: C_28  and  C_37
REMARK   14  A    between atoms: C_29  and  C_30
REMARK   15  A    between atoms: N_39  and  C_40
REMARK   16  A    between atoms: C_40  and  C_41
REMARK   17  A    between atoms: C_40  and  C_48
REMARK   18  A    between atoms: C_41  and  C_42
REMARK   19  A    between atoms: C_42  and  C_43
REMARK   20  A    between atoms: C_43  and  N_44
REMARK   21  A    between atoms: N_50  and  C_51
REMARK   22  A    between atoms: C_51  and  C_52
REMARK   23  A    between atoms: C_51  and  C_62
REMARK   24  A    between atoms: C_52  and  C_53
REMARK   25  A    between atoms: N_64  and  C_65
REMARK   26  A    between atoms: C_65  and  C_66
REMARK   27  A    between atoms: C_65  and  C_71
REMARK   28  A    between atoms: C_66  and  C_67
REMARK   29  A    between atoms: C_67  and  C_68
REMARK   30  A    between atoms: C_68  and  C_69
REMARK   31  A    between atoms: N_73  and  C_74
REMARK   32  A    between atoms: C_74  and  C_75
REMARK   33  A    between atoms: C_74  and  C_80
REMARK   34  A    between atoms: C_75  and  C_76
REMARK   35  A    between atoms: C_76  and  C_77
REMARK   36  A    between atoms: C_77  and  C_78
REMARK   37  A    between atoms: N_82  and  C_83
REMARK   38  A    between atoms: C_83  and  C_84
REMARK   39  A    between atoms: C_83  and  C_89
REMARK   40  A    between atoms: C_84  and  C_85
REMARK   41  A    between atoms: C_85  and  C_86
REMARK   42  A    between atoms: C_86  and  C_87
REMARK   43  A    between atoms: N_91  and  C_92
REMARK   44  A    between atoms: C_92  and  C_93
REMARK   45  A    between atoms: C_92  and  C_98
REMARK   46  A    between atoms: C_93  and  C_94
REMARK   47  A    between atoms: C_94  and  C_95
REMARK   48  A    between atoms: C_95  and  C_96
REMARK   49  A    between atoms: N_100  and  C_101
REMARK   50  A    between atoms: C_101  and  C_102
REMARK   51  A    between atoms: C_101  and  C_107
REMARK   52  A    between atoms: C_102  and  C_103
REMARK   53  A    between atoms: C_103  and  C_104
REMARK   54  A    between atoms: C_104  and  C_105
REMARK   55  A    between atoms: N_109  and  C_110
REMARK   56  A    between atoms: C_110  and  C_111
REMARK   57  A    between atoms: C_110  and  C_116
REMARK   58  A    between atoms: C_111  and  C_112
REMARK   59  A    between atoms: C_112  and  C_113
REMARK   60  A    between atoms: C_113  and  C_114
REMARK   61  A    between atoms: N_118  and  C_119
REMARK   62  A    between atoms: C_119  and  C_120
REMARK   63  A    between atoms: C_119  and  C_125
REMARK   64  A    between atoms: C_120  and  C_121
REMARK   65  A    between atoms: C_121  and  C_122
REMARK   66  A    between atoms: C_122  and  C_123
REMARK                            x       y       z     vdW  Elec       q    Type
REMARK                         _______ _______ _______ _____ _____    ______ ____
ROOT
ATOM      1  C   UNL     1      -0.170  -1.888   0.000  0.00  0.00    +0.000 C 
ATOM      2  O   UNL     1      -0.722  -2.501   0.000  0.00  0.00    +0.000 OA
ATOM      3  N   UNL     1       0.637  -2.060   0.000  0.00  0.00    +0.000 NA
ENDROOT
BRANCH   3   4
ATOM      4  C   UNL     1       0.892  -2.845   0.000  0.00  0.00    +0.000 C 
BRANCH   4   5
ATOM      5  C   UNL     1       1.699  -3.016   0.000  0.00  0.00    +0.000 C 
ATOM      6  O   UNL     1       1.954  -3.801   0.000  0.00  0.00    +0.000 OA
ATOM      7  N   UNL     1       2.251  -2.403   0.000  0.00  0.00    +0.000 NA
BRANCH   7   8
ATOM      8  C   UNL     1       3.058  -2.575   0.000  0.00  0.00    +0.000 C 
BRANCH   8   9
ATOM      9  C   UNL     1       3.610  -1.961   0.000  0.00  0.00    +0.000 C 
ATOM     10  O   UNL     1       4.417  -2.133   0.000  0.00  0.00    +0.000 OA
ATOM     11  N   UNL     1       3.355  -1.177   0.000  0.00  0.00    +0.000 NA
BRANCH  11  12
ATOM     12  C   UNL     1       3.907  -0.564   0.000  0.00  0.00    +0.000 C 
BRANCH  12  13
ATOM     13  C   UNL     1       4.714  -0.735   0.000  0.00  0.00    +0.000 C 
ATOM     14  O   UNL     1       5.266  -0.122   0.000  0.00  0.00    +0.000 OA
ATOM     15  N   UNL     1       4.969  -1.520   0.000  0.00  0.00    +0.000 NA
BRANCH  15  16
ATOM     16  C   UNL     1       5.776  -1.692   0.000  0.00  0.00    +0.000 C 
BRANCH  16  17
ATOM     17  C   UNL     1       6.328  -1.078   0.000  0.00  0.00    +0.000 C 
ATOM     18  O   UNL     1       6.073  -0.294   0.000  0.00  0.00    +0.000 OA
ATOM     19  N   UNL     1       7.135  -1.250   0.000  0.00  0.00    +0.000 NA
BRANCH  19  20
ATOM     20  C   UNL     1       7.687  -0.637   0.000  0.00  0.00    +0.000 C 
BRANCH  20  21
ATOM     21  C   UNL     1       7.432   0.147   0.000  0.00  0.00    +0.000 C 
ATOM     22  O   UNL     1       6.625   0.319   0.000  0.00  0.00    +0.000 OA
ATOM     23  N   UNL     1       7.984   0.761   0.000  0.00  0.00    +0.000 NA
BRANCH  23  24
ATOM     24  C   UNL     1       7.729   1.545   0.000  0.00  0.00    +0.000 C 
BRANCH  24  25
ATOM     25  C   UNL     1       6.922   1.717   0.000  0.00  0.00    +0.000 C 
ATOM     26  O   UNL     1       6.370   1.104   0.000  0.00  0.00    +0.000 OA
ATOM     27  N   UNL     1       6.668   2.501   0.000  0.00  0.00    +0.000 NA
BRANCH  27  28
ATOM     28  C   UNL     1       5.861   2.673   0.000  0.00  0.00    +0.000 C 
BRANCH  28  29
ATOM     29  C   UNL     1       5.309   2.060   0.000  0.00  0.00    +0.000 C 
ATOM     30  N   UNL     1       4.502   2.232   0.000  0.00  0.00    +0.000 NA
ATOM     31  O   UNL     1       5.563   1.275   0.000  0.00  0.00    +0.000 OA
ENDBRANCH  28  29
BRANCH  28  32
ATOM     32  C   UNL     1       5.606   3.458   0.000  0.00  0.00    +0.000 C 
BRANCH  32  33
ATOM     33  C   UNL     1       6.158   4.071   0.000  0.00  0.00    +0.000 C 
BRANCH  33  34
ATOM     34  C   UNL     1       5.903   4.855   0.000  0.00  0.00    +0.000 C 
BRANCH  34  35
ATOM     35  C   UNL     1       6.455   5.468   0.000  0.00  0.00    +0.000 C 
ATOM     36  N   UNL     1       6.200   6.253   0.000  0.00  0.00    +0.000 NA
ENDBRANCH  34  35
ENDBRANCH  33  34
ENDBRANCH  32  33
ENDBRANCH  28  32
ENDBRANCH  27  28
ENDBRANCH  24  25
BRANCH  24  37
ATOM     37  C   UNL     1       8.281   2.158   0.000  0.00  0.00    +0.000 C 
BRANCH  37  38
ATOM     38  C   UNL     1       9.088   1.987   0.000  0.00  0.00    +0.000 C 
BRANCH  38  39
ATOM     39  C   UNL     1       9.640   2.600   0.000  0.00  0.00    +0.000 C 
BRANCH  39  40
ATOM     40  C   UNL     1      10.447   2.428   0.000  0.00  0.00    +0.000 C 
ATOM     41  N   UNL     1      10.999   3.041   0.000  0.00  0.00    +0.000 NA
ENDBRANCH  39  40
ENDBRANCH  38  39
ENDBRANCH  37  38
ENDBRANCH  24  37
ENDBRANCH  23  24
ENDBRANCH  20  21
BRANCH  20  42
ATOM     42  C   UNL     1       8.494  -0.808   0.000  0.00  0.00    +0.000 C 
BRANCH  42  43
ATOM     43  C   UNL     1       8.749  -1.593   0.000  0.00  0.00    +0.000 C 
BRANCH  43  44
ATOM     44  C   UNL     1       9.556  -1.765   0.000  0.00  0.00    +0.000 C 
BRANCH  44  45
ATOM     45  C   UNL     1       9.811  -2.549   0.000  0.00  0.00    +0.000 C 
ATOM     46  N   UNL     1      10.618  -2.721   0.000  0.00  0.00    +0.000 NA
ENDBRANCH  44  45
ENDBRANCH  43  44
ENDBRANCH  42  43
ENDBRANCH  20  42
ENDBRANCH  19  20
ENDBRANCH  16  17
BRANCH  16  47
ATOM     47  C   UNL     1       6.031  -2.476   0.000  0.00  0.00    +0.000 C 
BRANCH  47  48
ATOM     48  C   UNL     1       5.479  -3.089   0.000  0.00  0.00    +0.000 C 
BRANCH  48  49
ATOM     49  C   UNL     1       5.734  -3.874   0.000  0.00  0.00    +0.000 C 
BRANCH  49  50
ATOM     50  C   UNL     1       5.182  -4.487   0.000  0.00  0.00    +0.000 C 
ATOM     51  N   UNL     1       5.437  -5.271   0.000  0.00  0.00    +0.000 NA
ENDBRANCH  49  50
ENDBRANCH  48  49
ENDBRANCH  47  48
ENDBRANCH  16  47
ENDBRANCH  15  16
ENDBRANCH  12  13
BRANCH  12  52
ATOM     52  C   UNL     1       3.652   0.221   0.000  0.00  0.00    +0.000 C 
BRANCH  52  53
ATOM     53  C   UNL     1       2.845   0.392   0.000  0.00  0.00    +0.000 C 
BRANCH  53  54
ATOM     54  C   UNL     1       2.591   1.177   0.000  0.00  0.00    +0.000 C 
BRANCH  54  55
ATOM     55  C   UNL     1       1.784   1.348   0.000  0.00  0.00    +0.000 C 
ATOM     56  N   UNL     1       1.529   2.133   0.000  0.00  0.00    +0.000 NA
ENDBRANCH  54  55
ENDBRANCH  53  54
ENDBRANCH  52  53
ENDBRANCH  12  52
ENDBRANCH  11  12
ENDBRANCH   8   9
BRANCH   8  57
ATOM     57  C   UNL     1       3.313  -3.359   0.000  0.00  0.00    +0.000 C 
BRANCH  57  58
ATOM     58  C   UNL     1       2.761  -3.972   0.000  0.00  0.00    +0.000 C 
BRANCH  58  59
ATOM     59  C   UNL     1       3.016  -4.757   0.000  0.00  0.00    +0.000 C 
BRANCH  59  60
ATOM     60  C   UNL     1       2.464  -5.370   0.000  0.00  0.00    +0.000 C 
ATOM     61  N   UNL     1       2.719  -6.155   0.000  0.00  0.00    +0.000 NA
ENDBRANCH  59  60
ENDBRANCH  58  59
ENDBRANCH  57  58
ENDBRANCH   8  57
ENDBRANCH   7   8
ENDBRANCH   4   5
BRANCH   4  62
ATOM     62  C   UNL     1       0.340  -3.458   0.000  0.00  0.00    +0.000 C 
BRANCH  62  63
ATOM     63  C   UNL     1       0.595  -4.242   0.000  0.00  0.00    +0.000 C 
BRANCH  63  64
ATOM     64  C   UNL     1       0.043  -4.855   0.000  0.00  0.00    +0.000 C 
BRANCH  64  65
ATOM     65  C   UNL     1       0.298  -5.640   0.000  0.00  0.00    +0.000 C 
ATOM     66  N   UNL     1      -0.254  -6.253   0.000  0.00  0.00    +0.000 NA
ENDBRANCH  64  65
ENDBRANCH  63  64
ENDBRANCH  62  63
ENDBRANCH   4  62
ENDBRANCH   3   4
BRANCH   1  67
ATOM     67  C   UNL     1      -0.424  -1.104   0.000  0.00  0.00    +0.000 C 
BRANCH  67  70
ATOM     68  C   UNL     1      -1.784  -1.545   0.000  0.00  0.00    +0.000 C 
ATOM     69  O   UNL     1      -1.529  -2.330   0.000  0.00  0.00    +0.000 OA
ATOM     70  N   UNL     1      -1.231  -0.932   0.000  0.00  0.00    +0.000 NA
BRANCH  68  71
ATOM     71  C   UNL     1      -2.590  -1.374   0.000  0.00  0.00    +0.000 C 
BRANCH  71  74
ATOM     72  C   UNL     1      -3.949  -1.815   0.000  0.00  0.00    +0.000 C 
ATOM     73  O   UNL     1      -4.204  -1.030   0.000  0.00  0.00    +0.000 OA
ATOM     74  N   UNL     1      -3.143  -1.987   0.000  0.00  0.00    +0.000 NA
BRANCH  72  75
ATOM     75  C   UNL     1      -4.502  -2.428   0.000  0.00  0.00    +0.000 C 
BRANCH  75  78
ATOM     76  C   UNL     1      -5.563  -1.472   0.000  0.00  0.00    +0.000 C 
ATOM     77  O   UNL     1      -5.011  -0.859   0.000  0.00  0.00    +0.000 OA
ATOM     78  N   UNL     1      -5.308  -2.256   0.000  0.00  0.00    +0.000 NA
BRANCH  76  79
ATOM     79  C   UNL     1      -6.370  -1.300   0.000  0.00  0.00    +0.000 C 
BRANCH  79  82
ATOM     80  C   UNL     1      -6.668  -2.698   0.000  0.00  0.00    +0.000 C 
ATOM     81  O   UNL     1      -5.861  -2.870   0.000  0.00  0.00    +0.000 OA
ATOM     82  N   UNL     1      -6.922  -1.913   0.000  0.00  0.00    +0.000 NA
BRANCH  80  83
ATOM     83  C   UNL     1      -7.220  -3.311   0.000  0.00  0.00    +0.000 C 
BRANCH  83  87
ATOM     84  C   UNL     1      -7.262  -5.494   0.000  0.00  0.00    +0.000 C 
ATOM     85  C   UNL     1      -7.517  -4.709   0.000  0.00  0.00    +0.000 C 
ATOM     86  O   UNL     1      -8.324  -4.537   0.000  0.00  0.00    +0.000 OA
ATOM     87  N   UNL     1      -6.965  -4.096   0.000  0.00  0.00    +0.000 NA
ENDBRANCH  83  87
BRANCH  83  88
ATOM     88  C   UNL     1      -8.027  -3.140   0.000  0.00  0.00    +0.000 C 
BRANCH  88  89
ATOM     89  C   UNL     1      -8.281  -2.355   0.000  0.00  0.00    +0.000 C 
BRANCH  89  90
ATOM     90  C   UNL     1      -9.088  -2.183   0.000  0.00  0.00    +0.000 C 
BRANCH  90  91
ATOM     91  N   UNL     1      -9.640  -2.796   0.000  0.00  0.00    +0.000 NA
ATOM     92  C   UNL     1     -10.447  -2.625   0.000  0.00  0.00    +0.000 C 
ATOM     93  N   UNL     1     -10.999  -3.238   0.000  0.00  0.00    +0.000 NA
ATOM     94  N   UNL     1     -10.702  -1.840   0.000  0.00  0.00    +0.000 NA
ENDBRANCH  90  91
ENDBRANCH  89  90
ENDBRANCH  88  89
ENDBRANCH  83  88
ENDBRANCH  80  83
ENDBRANCH  79  82
BRANCH  79  95
ATOM     95  C   UNL     1      -6.625  -0.516   0.000  0.00  0.00    +0.000 C 
BRANCH  95  96
ATOM     96  C   UNL     1      -7.432  -0.344   0.000  0.00  0.00    +0.000 A 
ATOM     97  C   UNL     1      -7.686   0.445   0.000  0.00  0.00    +0.000 A 
ATOM     98  C   UNL     1      -8.499   0.610   0.000  0.00  0.00    +0.000 A 
ATOM     99  C   UNL     1      -9.052  -0.007   0.000  0.00  0.00    +0.000 A 
ATOM    100  C   UNL     1      -8.792  -0.791   0.000  0.00  0.00    +0.000 A 
ATOM    101  C   UNL     1      -7.985  -0.962   0.000  0.00  0.00    +0.000 A 
ATOM    102  O   UNL     1      -9.860   0.161   0.000  0.00  0.00    +0.000 OA
ENDBRANCH  95  96
ENDBRANCH  79  95
ENDBRANCH  76  79
ENDBRANCH  75  78
BRANCH  75 103
ATOM    103  C   UNL     1      -4.247  -3.213   0.000  0.00  0.00    +0.000 C 
BRANCH 103 104
ATOM    104  C   UNL     1      -3.440  -3.384   0.000  0.00  0.00    +0.000 A 
ATOM    105  C   UNL     1      -2.887  -2.766   0.000  0.00  0.00    +0.000 A 
ATOM    106  C   UNL     1      -2.077  -2.946   0.000  0.00  0.00    +0.000 A 
ATOM    107  C   UNL     1      -1.823  -3.736   0.000  0.00  0.00    +0.000 A 
ATOM    108  C   UNL     1      -2.379  -4.346   0.000  0.00  0.00    +0.000 A 
ATOM    109  C   UNL     1      -3.186  -4.174   0.000  0.00  0.00    +0.000 A 
ATOM    110  O   UNL     1      -1.017  -3.911   0.000  0.00  0.00    +0.000 OA
ENDBRANCH 103 104
ENDBRANCH  75 103
ENDBRANCH  72  75
ENDBRANCH  71  74
BRANCH  71 111
ATOM    111  C   UNL     1      -2.845  -0.589   0.000  0.00  0.00    +0.000 C 
BRANCH 111 112
ATOM    112  C   UNL     1      -3.652  -0.417   0.000  0.00  0.00    +0.000 C 
BRANCH 112 113
ATOM    113  C   UNL     1      -3.907   0.367   0.000  0.00  0.00    +0.000 C 
BRANCH 113 114
ATOM    114  N   UNL     1      -3.355   0.980   0.000  0.00  0.00    +0.000 NA
ATOM    115  C   UNL     1      -3.610   1.765   0.000  0.00  0.00    +0.000 C 
ATOM    116  N   UNL     1      -3.058   2.378   0.000  0.00  0.00    +0.000 NA
ATOM    117  N   UNL     1      -4.417   1.936   0.000  0.00  0.00    +0.000 NA
ENDBRANCH 113 114
ENDBRANCH 112 113
ENDBRANCH 111 112
ENDBRANCH  71 111
ENDBRANCH  68  71
ENDBRANCH  67  70
BRANCH  67 118
ATOM    118  C   UNL     1       0.127  -0.491   0.000  0.00  0.00    +0.000 C 
BRANCH 118 119
ATOM    119  C   UNL     1      -0.127   0.294   0.000  0.00  0.00    +0.000 A 
ATOM    120  C   UNL     1      -0.917   0.551   0.000  0.00  0.00    +0.000 A 
ATOM    121  C   UNL     1      -0.917   1.381   0.000  0.00  0.00    +0.000 A 
ATOM    122  N   UNL     1      -0.127   1.638   0.000  0.00  0.00    +0.000 NA
ATOM    123  C   UNL     1       0.361   0.966   0.000  0.00  0.00    +0.000 A 
ATOM    124  C   UNL     1      -1.634   1.800   0.000  0.00  0.00    +0.000 A 
ATOM    125  C   UNL     1      -2.350   1.381   0.000  0.00  0.00    +0.000 A 
ATOM    126  C   UNL     1      -2.350   0.552   0.000  0.00  0.00    +0.000 A 
ATOM    127  C   UNL     1      -1.634   0.141   0.000  0.00  0.00    +0.000 A 
ENDBRANCH 118 119
ENDBRANCH  67 118
ENDBRANCH   1  67
TORSDOF 66
