REMARK  Name = 
REMARK  10 active torsions:
REMARK  status: ('A' for Active; 'I' for Inactive)
REMARK    1  A    between atoms: C_2  and  O_5
REMARK    2  A    between atoms: O_5  and  C_6
REMARK    3  A    between atoms: N_8  and  C_9
REMARK    4  A    between atoms: C_9  and  C_10
REMARK    5  A    between atoms: C_10  and  N_11
REMARK    6  A    between atoms: N_15  and  C_20
REMARK    7  A    between atoms: C_20  and  C_21
REMARK    8  A    between atoms: C_21  and  O_22
REMARK    9  A    between atoms: O_22  and  C_23
REMARK   10  A    between atoms: C_26  and  C_30
REMARK                            x       y       z     vdW  Elec       q    Type
REMARK                         _______ _______ _______ _____ _____    ______ ____
ROOT
ATOM      1  N   UNL     1      -0.046   0.229   0.000  0.00  0.00    +0.000 NA
ATOM      2  C   UNL     1       0.270  -0.533   0.000  0.00  0.00    +0.000 C 
ATOM      3  C   UNL     1       1.032  -0.849   0.000  0.00  0.00    +0.000 C 
ATOM      4  C   UNL     1       1.794  -0.533   0.000  0.00  0.00    +0.000 C 
ATOM      5  N   UNL     1       2.110   0.229   0.000  0.00  0.00    +0.000 NA
ATOM      6  C   UNL     1       1.794   0.992   0.000  0.00  0.00    +0.000 C 
ATOM      7  C   UNL     1       1.032   1.307   0.000  0.00  0.00    +0.000 C 
ATOM      8  C   UNL     1       0.270   0.992   0.000  0.00  0.00    +0.000 C 
ATOM      9  O   UNL     1       0.763   0.229   0.000  0.00  0.00    +0.000 OA
ENDROOT
BRANCH   1  10
ATOM     10  C   UNL     1      -0.871   0.229   0.000  0.00  0.00    +0.000 C 
BRANCH  10  11
ATOM     11  C   UNL     1      -1.283   0.944   0.000  0.00  0.00    +0.000 C 
BRANCH  11  14
ATOM     12  C   UNL     1      -2.521   1.658   0.000  0.00  0.00    +0.000 C 
ATOM     13  O   UNL     1      -2.108   2.373   0.000  0.00  0.00    +0.000 OA
ATOM     14  N   UNL     1      -2.108   0.944   0.000  0.00  0.00    +0.000 NA
BRANCH  12  15
ATOM     15  O   UNL     1      -3.346   1.658   0.000  0.00  0.00    +0.000 OA
BRANCH  15  17
ATOM     16  C   UNL     1      -4.171   3.087   0.000  0.00  0.00    +0.000 C 
ATOM     17  C   UNL     1      -3.758   2.373   0.000  0.00  0.00    +0.000 C 
ATOM     18  C   UNL     1      -4.473   1.960   0.000  0.00  0.00    +0.000 C 
ATOM     19  C   UNL     1      -3.044   2.785   0.000  0.00  0.00    +0.000 C 
ENDBRANCH  15  17
ENDBRANCH  12  15
ENDBRANCH  11  14
ENDBRANCH  10  11
ENDBRANCH   1  10
BRANCH   5  20
ATOM     20  C   UNL     1       2.935   0.229   0.000  0.00  0.00    +0.000 C 
BRANCH  20  21
ATOM     21  C   UNL     1       3.348  -0.485   0.000  0.00  0.00    +0.000 C 
BRANCH  21  22
ATOM     22  O   UNL     1       4.173  -0.485   0.000  0.00  0.00    +0.000 OA
BRANCH  22  23
ATOM     23  C   UNL     1       4.585  -1.200   0.000  0.00  0.00    +0.000 A 
ATOM     24  C   UNL     1       5.410  -1.200   0.000  0.00  0.00    +0.000 A 
ATOM     25  C   UNL     1       5.823  -1.914   0.000  0.00  0.00    +0.000 A 
ATOM     26  C   UNL     1       5.410  -2.628   0.000  0.00  0.00    +0.000 A 
ATOM     27  C   UNL     1       4.585  -2.628   0.000  0.00  0.00    +0.000 A 
ATOM     28  C   UNL     1       4.173  -1.914   0.000  0.00  0.00    +0.000 A 
ATOM     29  F   UNL     1       3.348  -1.914   0.000  0.00  0.00    +0.000 F 
BRANCH  26  30
ATOM     30  C   UNL     1       5.823  -3.343   0.000  0.00  0.00    +0.000 C 
ATOM     31  N   UNL     1       6.235  -4.058   0.000  0.00  0.00    +0.000 NA
ENDBRANCH  26  30
ENDBRANCH  22  23
ENDBRANCH  21  22
ENDBRANCH  20  21
ENDBRANCH   5  20
TORSDOF 10
