REMARK  Name = 
REMARK  11 active torsions:
REMARK  status: ('A' for Active; 'I' for Inactive)
REMARK    1  A    between atoms: C_2  and  C_3
REMARK    2  A    between atoms: C_3  and  C_4
REMARK    3  A    between atoms: C_4  and  C_5
REMARK    4  A    between atoms: C_5  and  C_6
REMARK    5  A    between atoms: C_6  and  C_7
REMARK    6  A    between atoms: C_7  and  C_8
REMARK    7  A    between atoms: C_8  and  N_9
REMARK    8  A    between atoms: C_14  and  N_24
REMARK    9  A    between atoms: C_16  and  C_19
REMARK   10  A    between atoms: C_19  and  C_20
REMARK   11  A    between atoms: C_25  and  C_27
REMARK                            x       y       z     vdW  Elec       q    Type
REMARK                         _______ _______ _______ _____ _____    ______ ____
ROOT
ATOM      1  N   UNL     1      -0.496  -2.118   0.000  0.00  0.00    +0.000 N 
ATOM      2  C   UNL     1      -0.409  -2.938   0.000  0.00  0.00    +0.000 C 
ATOM      3  C   UNL     1       0.397  -3.110   0.000  0.00  0.00    +0.000 C 
ATOM      4  C   UNL     1       0.810  -2.395   0.000  0.00  0.00    +0.000 A 
ATOM      5  C   UNL     1       0.258  -1.782   0.000  0.00  0.00    +0.000 A 
ATOM      6  C   UNL     1       0.513  -0.998   0.000  0.00  0.00    +0.000 A 
ATOM      7  C   UNL     1       1.320  -0.826   0.000  0.00  0.00    +0.000 A 
ATOM      8  C   UNL     1       1.872  -1.439   0.000  0.00  0.00    +0.000 A 
ATOM      9  C   UNL     1       1.617  -2.224   0.000  0.00  0.00    +0.000 A 
ATOM     10  C   UNL     1       2.169  -2.837   0.000  0.00  0.00    +0.000 C 
ATOM     11  C   UNL     1       1.575  -0.041   0.000  0.00  0.00    +0.000 C 
ENDROOT
BRANCH   6  12
ATOM     12  N   UNL     1      -0.039  -0.384   0.000  0.00  0.00    +0.000 NA
ATOM     13  C   UNL     1       0.216   0.400   0.000  0.00  0.00    +0.000 C 
ATOM     14  O   UNL     1       1.023   0.572   0.000  0.00  0.00    +0.000 OA
BRANCH  13  15
ATOM     15  C   UNL     1      -0.336   1.013   0.000  0.00  0.00    +0.000 C 
ATOM     16  C   UNL     1       0.277   1.565   0.000  0.00  0.00    +0.000 C 
ATOM     17  C   UNL     1      -0.949   0.461   0.000  0.00  0.00    +0.000 C 
ATOM     18  C   UNL     1      -0.888   1.626   0.000  0.00  0.00    +0.000 C 
ENDBRANCH  13  15
ENDBRANCH   6  12
BRANCH   8  19
ATOM     19  C   UNL     1       2.679  -1.268   0.000  0.00  0.00    +0.000 C 
BRANCH  19  20
ATOM     20  C   UNL     1       3.231  -1.881   0.000  0.00  0.00    +0.000 C 
ATOM     21  O   UNL     1       4.038  -1.709   0.000  0.00  0.00    +0.000 OA
ATOM     22  O   UNL     1       2.976  -2.665   0.000  0.00  0.00    +0.000 OA
ENDBRANCH  19  20
ENDBRANCH   8  19
BRANCH   1  23
ATOM     23  C   UNL     1      -1.210  -1.705   0.000  0.00  0.00    +0.000 C 
BRANCH  23  24
ATOM     24  C   UNL     1      -1.925  -2.118   0.000  0.00  0.00    +0.000 C 
BRANCH  24  25
ATOM     25  C   UNL     1      -2.639  -1.705   0.000  0.00  0.00    +0.000 C 
BRANCH  25  26
ATOM     26  C   UNL     1      -3.354  -2.118   0.000  0.00  0.00    +0.000 C 
BRANCH  26  27
ATOM     27  C   UNL     1      -4.068  -1.705   0.000  0.00  0.00    +0.000 C 
BRANCH  27  28
ATOM     28  C   UNL     1      -4.783  -2.118   0.000  0.00  0.00    +0.000 C 
BRANCH  28  30
ATOM     29  C   UNL     1      -6.212  -2.118   0.000  0.00  0.00    +0.000 C 
ATOM     30  C   UNL     1      -5.497  -1.705   0.000  0.00  0.00    +0.000 C 
ENDBRANCH  28  30
ENDBRANCH  27  28
ENDBRANCH  26  27
ENDBRANCH  25  26
ENDBRANCH  24  25
ENDBRANCH  23  24
ENDBRANCH   1  23
TORSDOF 11
