REMARK  Name = 
REMARK  6 active torsions:
REMARK  status: ('A' for Active; 'I' for Inactive)
REMARK    1  A    between atoms: C_2  and  C_3
REMARK    2  A    between atoms: C_2  and  O_12
REMARK    3  A    between atoms: O_12  and  C_13
REMARK    4  A    between atoms: C_15  and  C_20
REMARK    5  A    between atoms: N_22  and  C_23
REMARK    6  A    between atoms: C_26  and  C_29
REMARK                            x       y       z     vdW  Elec       q    Type
REMARK                         _______ _______ _______ _____ _____    ______ ____
ROOT
ATOM      1  C   UNL     1       5.716  -4.125   0.000  0.00  0.00    +0.000 A 
ATOM      2  C   UNL     1       5.001  -3.712   0.000  0.00  0.00    +0.000 A 
ATOM      3  C   UNL     1       5.001  -2.888   0.000  0.00  0.00    +0.000 A 
ATOM      4  N   UNL     1       5.716  -2.475   0.000  0.00  0.00    +0.000 NA
ATOM      5  N   UNL     1       6.430  -2.888   0.000  0.00  0.00    +0.000 NA
ATOM      6  C   UNL     1       6.430  -3.712   0.000  0.00  0.00    +0.000 A 
ATOM      7  N   UNL     1       7.145  -4.125   0.000  0.00  0.00    +0.000 NA
ENDROOT
BRANCH   3   8
ATOM      8  C   UNL     1       4.287  -2.475   0.000  0.00  0.00    +0.000 C 
ATOM      9  O   UNL     1       4.287  -1.650   0.000  0.00  0.00    +0.000 OA
ATOM     10  N   UNL     1       3.572  -2.888   0.000  0.00  0.00    +0.000 NA
BRANCH  10  11
ATOM     11  C   UNL     1       2.858  -2.475   0.000  0.00  0.00    +0.000 A 
ATOM     12  C   UNL     1       2.143  -2.888   0.000  0.00  0.00    +0.000 A 
ATOM     13  C   UNL     1       1.429  -2.475   0.000  0.00  0.00    +0.000 A 
ATOM     14  C   UNL     1       1.429  -1.650   0.000  0.00  0.00    +0.000 A 
ATOM     15  C   UNL     1       2.143  -1.238   0.000  0.00  0.00    +0.000 A 
ATOM     16  C   UNL     1       2.858  -1.650   0.000  0.00  0.00    +0.000 A 
BRANCH  14  17
ATOM     17  C   UNL     1       0.715  -1.238   0.000  0.00  0.00    +0.000 C 
ATOM     18  O   UNL     1       0.000  -1.650   0.000  0.00  0.00    +0.000 OA
ATOM     19  N   UNL     1       0.715  -0.412   0.000  0.00  0.00    +0.000 N 
ATOM     20  C   UNL     1       0.000   0.000   0.000  0.00  0.00    +0.000 C 
ATOM     21  C   UNL     1       0.000   0.825   0.000  0.00  0.00    +0.000 C 
ATOM     22  N   UNL     1       0.715   1.238   0.000  0.00  0.00    +0.000 NA
ATOM     23  C   UNL     1       1.429   0.825   0.000  0.00  0.00    +0.000 C 
ATOM     24  C   UNL     1       1.429   0.000   0.000  0.00  0.00    +0.000 C 
ATOM     25  C   UNL     1       0.715   2.062   0.000  0.00  0.00    +0.000 C 
ENDBRANCH  14  17
ENDBRANCH  10  11
ENDBRANCH   3   8
BRANCH   1  26
ATOM     26  O   UNL     1       5.716  -4.950   0.000  0.00  0.00    +0.000 OA
BRANCH  26  28
ATOM     27  C   UNL     1       7.145  -4.950   0.000  0.00  0.00    +0.000 C 
ATOM     28  C   UNL     1       6.430  -5.362   0.000  0.00  0.00    +0.000 C 
BRANCH  28  29
ATOM     29  C   UNL     1       6.430  -6.188   0.000  0.00  0.00    +0.000 A 
ATOM     30  C   UNL     1       7.145  -6.600   0.000  0.00  0.00    +0.000 A 
ATOM     31  C   UNL     1       7.145  -7.425   0.000  0.00  0.00    +0.000 A 
ATOM     32  C   UNL     1       6.430  -7.838   0.000  0.00  0.00    +0.000 A 
ATOM     33  C   UNL     1       5.716  -7.425   0.000  0.00  0.00    +0.000 A 
ATOM     34  C   UNL     1       5.716  -6.600   0.000  0.00  0.00    +0.000 A 
ATOM     35 CL   UNL     1       5.001  -6.188   0.000  0.00  0.00    +0.000 Cl
ATOM     36  F   UNL     1       5.001  -7.838   0.000  0.00  0.00    +0.000 F 
ATOM     37 CL   UNL     1       7.859  -6.188   0.000  0.00  0.00    +0.000 Cl
ENDBRANCH  28  29
ENDBRANCH  26  28
ENDBRANCH   1  26
TORSDOF 6
