REMARK  Name = 
REMARK  4 active torsions:
REMARK  status: ('A' for Active; 'I' for Inactive)
REMARK    1  A    between atoms: C_9  and  C_10
REMARK    2  A    between atoms: C_9  and  C_16
REMARK    3  A    between atoms: C_16  and  C_30
REMARK    4  A    between atoms: C_22  and  C_30
REMARK                            x       y       z     vdW  Elec       q    Type
REMARK                         _______ _______ _______ _____ _____    ______ ____
ROOT
ATOM      1  C   UNL     1       2.486  -2.680   0.000  0.00  0.00    +0.000 C 
ATOM      2  C   UNL     1       3.484  -2.320   0.000  0.00  0.00    +0.000 C 
ATOM      3  C   UNL     1       1.398  -0.209   0.000  0.00  0.00    +0.000 C 
ATOM      4  C   UNL     1      -0.280  -2.126   0.000  0.00  0.00    +0.000 C 
ATOM      5  C   UNL     1       0.023  -2.235   0.000  0.00  0.00    +0.000 C 
ATOM      6  C   UNL     1      -0.226   0.081   0.000  0.00  0.00    +0.000 C 
ATOM      7  C   UNL     1       0.586  -0.064   0.000  0.00  0.00    +0.000 C 
ATOM      8  C   UNL     1      -1.812  -1.369   0.000  0.00  0.00    +0.000 C 
ATOM      9  C   UNL     1       1.427  -2.392   0.000  0.00  0.00    +0.000 C 
ATOM     10  C   UNL     1       3.022  -0.499   0.000  0.00  0.00    +0.000 C 
ATOM     11  C   UNL     1       2.210  -0.354   0.000  0.00  0.00    +0.000 C 
ATOM     12  C   UNL     1      -1.129  -1.831   0.000  0.00  0.00    +0.000 C 
ATOM     13  C   UNL     1       0.615  -2.246   0.000  0.00  0.00    +0.000 C 
ATOM     14  C   UNL     1      -0.758  -0.549   0.000  0.00  0.00    +0.000 C 
ATOM     15  C   UNL     1      -1.583  -0.576   0.000  0.00  0.00    +0.000 C 
ATOM     16  C   UNL     1       1.958  -1.761   0.000  0.00  0.00    +0.000 C 
ATOM     17  C   UNL     1       0.866  -0.840   0.000  0.00  0.00    +0.000 C 
ATOM     18  C   UNL     1       3.302  -1.275   0.000  0.00  0.00    +0.000 C 
ATOM     19  C   UNL     1       2.771  -1.906   0.000  0.00  0.00    +0.000 C 
ATOM     20  C   UNL     1       1.678  -0.985   0.000  0.00  0.00    +0.000 C 
ATOM     21  C   UNL     1      -0.478  -1.325   0.000  0.00  0.00    +0.000 C 
ATOM     22  C   UNL     1       0.334  -1.470   0.000  0.00  0.00    +0.000 C 
ATOM     23  O   UNL     1       4.114  -1.421   0.000  0.00  0.00    +0.000 OA
ENDROOT
BRANCH  15  25
ATOM     24  C   UNL     1      -1.438   0.582   0.000  0.00  0.00    +0.000 C 
ATOM     25  C   UNL     1      -2.089   0.075   0.000  0.00  0.00    +0.000 C 
ATOM     26  O   UNL     1      -2.740  -0.431   0.000  0.00  0.00    +0.000 OA
BRANCH  25  27
ATOM     27  C   UNL     1      -2.595   0.727   0.000  0.00  0.00    +0.000 C 
BRANCH  27  28
ATOM     28  C   UNL     1      -3.413   0.614   0.000  0.00  0.00    +0.000 C 
BRANCH  28  31
ATOM     29  C   UNL     1      -4.114   2.680   0.000  0.00  0.00    +0.000 C 
ATOM     30  C   UNL     1      -2.791   2.142   0.000  0.00  0.00    +0.000 C 
ATOM     31  C   UNL     1      -3.919   1.265   0.000  0.00  0.00    +0.000 C 
ATOM     32  C   UNL     1      -3.608   2.029   0.000  0.00  0.00    +0.000 C 
ENDBRANCH  28  31
ENDBRANCH  27  28
ENDBRANCH  25  27
ENDBRANCH  15  25
TORSDOF 4
