REMARK  Name = 
REMARK  5 active torsions:
REMARK  status: ('A' for Active; 'I' for Inactive)
REMARK    1  A    between atoms: C_2  and  C_3
REMARK    2  A    between atoms: C_3  and  N_4
REMARK    3  A    between atoms: N_9  and  C_12
REMARK    4  A    between atoms: C_12  and  C_13
REMARK    5  A    between atoms: C_16  and  C_18
REMARK                            x       y       z     vdW  Elec       q    Type
REMARK                         _______ _______ _______ _____ _____    ______ ____
ROOT
ATOM      1  N   UNL     1       0.715  -0.412   0.000  0.00  0.00    +0.000 N 
ATOM      2  C   UNL     1       0.000   0.000   0.000  0.00  0.00    +0.000 A 
ATOM      3  C   UNL     1       0.000   0.825   0.000  0.00  0.00    +0.000 A 
ATOM      4  C   UNL     1       0.715   1.238   0.000  0.00  0.00    +0.000 A 
ATOM      5  O   UNL     1       0.715   2.062   0.000  0.00  0.00    +0.000 OA
ATOM      6  N   UNL     1       1.429   0.825   0.000  0.00  0.00    +0.000 N 
ATOM      7  C   UNL     1       1.429   0.000   0.000  0.00  0.00    +0.000 A 
ATOM      8  O   UNL     1       2.143  -0.412   0.000  0.00  0.00    +0.000 OA
ATOM      9  N   UNL     1      -0.785   1.080   0.000  0.00  0.00    +0.000 NA
ATOM     10  C   UNL     1      -1.270   0.412   0.000  0.00  0.00    +0.000 A 
ATOM     11  N   UNL     1      -0.785  -0.255   0.000  0.00  0.00    +0.000 NA
ENDROOT
BRANCH  10  12
ATOM     12  C   UNL     1      -2.095   0.412   0.000  0.00  0.00    +0.000 C 
ATOM     13  C   UNL     1      -2.579  -0.255   0.000  0.00  0.00    +0.000 C 
ATOM     14  C   UNL     1      -3.364   0.000   0.000  0.00  0.00    +0.000 C 
ATOM     15  C   UNL     1      -3.364   0.825   0.000  0.00  0.00    +0.000 C 
ATOM     16  C   UNL     1      -2.579   1.080   0.000  0.00  0.00    +0.000 C 
ENDBRANCH  10  12
BRANCH   1  17
ATOM     17  C   UNL     1       0.715  -1.238   0.000  0.00  0.00    +0.000 C 
BRANCH  17  19
ATOM     18  C   UNL     1       1.429  -2.475   0.000  0.00  0.00    +0.000 C 
ATOM     19  C   UNL     1       1.429  -1.650   0.000  0.00  0.00    +0.000 C 
ENDBRANCH  17  19
ENDBRANCH   1  17
BRANCH   6  20
ATOM     20  C   UNL     1       2.143   1.238   0.000  0.00  0.00    +0.000 C 
BRANCH  20  21
ATOM     21  C   UNL     1       2.858   0.825   0.000  0.00  0.00    +0.000 C 
ATOM     22  C   UNL     1       3.572   1.238   0.000  0.00  0.00    +0.000 C 
ENDBRANCH  20  21
ENDBRANCH   6  20
TORSDOF 5
