REMARK  Name = 
REMARK  10 active torsions:
REMARK  status: ('A' for Active; 'I' for Inactive)
REMARK    1  A    between atoms: C_5  and  C_26
REMARK    2  A    between atoms: C_6  and  C_27
REMARK    3  A    between atoms: C_20  and  C_28
REMARK    4  A    between atoms: C_21  and  C_28
REMARK    5  A    between atoms: C_22  and  O_33
REMARK    6  A    between atoms: C_23  and  O_34
REMARK    7  A    between atoms: C_24  and  C_26
REMARK    8  A    between atoms: C_25  and  C_27
REMARK    9  A    between atoms: C_26  and  O_33
REMARK   10  A    between atoms: C_27  and  O_34
REMARK                            x       y       z     vdW  Elec       q    Type
REMARK                         _______ _______ _______ _____ _____    ______ ____
ROOT
ATOM      1  C   UNL     1      -1.152   1.112   0.000  0.00  0.00    +0.000 C 
ATOM      2  C   UNL     1      -0.437   1.525   0.000  0.00  0.00    +0.000 C 
ATOM      3  C   UNL     1      -1.866   1.525   0.000  0.00  0.00    +0.000 C 
ATOM      4  C   UNL     1      -0.437   2.350   0.000  0.00  0.00    +0.000 C 
ATOM      5  C   UNL     1      -1.866   2.350   0.000  0.00  0.00    +0.000 C 
ATOM      6  C   UNL     1      -1.152   2.762   0.000  0.00  0.00    +0.000 C 
ENDROOT
BRANCH   6  11
ATOM      7  C   UNL     1       0.235   3.108   0.000  0.00  0.00    +0.000 A 
ATOM      8  C   UNL     1      -0.758   4.136   0.000  0.00  0.00    +0.000 A 
ATOM      9  C   UNL     1       0.828   3.681   0.000  0.00  0.00    +0.000 A 
ATOM     10  C   UNL     1      -0.164   4.709   0.000  0.00  0.00    +0.000 A 
ATOM     11  C   UNL     1      -0.558   3.335   0.000  0.00  0.00    +0.000 A 
ATOM     12  C   UNL     1       0.629   4.481   0.000  0.00  0.00    +0.000 A 
BRANCH  12  13
ATOM     13  O   UNL     1       1.222   5.054   0.000  0.00  0.00    +0.000 OA
BRANCH  13  15
ATOM     14  C   UNL     1       0.222   5.655   0.000  0.00  0.00    +0.000 C 
ATOM     15  C   UNL     1       1.023   5.855   0.000  0.00  0.00    +0.000 C 
BRANCH  15  16
ATOM     16  C   UNL     1       1.823   6.055   0.000  0.00  0.00    +0.000 C 
ATOM     17  O   UNL     1       2.050   6.848   0.000  0.00  0.00    +0.000 OA
ATOM     18  O   UNL     1       2.396   5.461   0.000  0.00  0.00    +0.000 OA
ENDBRANCH  15  16
BRANCH  15  20
ATOM     19  C   UNL     1       1.417   7.229   0.000  0.00  0.00    +0.000 C 
ATOM     20  C   UNL     1       0.823   6.655   0.000  0.00  0.00    +0.000 C 
ENDBRANCH  15  20
ENDBRANCH  13  15
ENDBRANCH  12  13
ENDBRANCH   6  11
BRANCH   6  25
ATOM     21  C   UNL     1      -1.102   4.190   0.000  0.00  0.00    +0.000 A 
ATOM     22  C   UNL     1      -2.364   3.519   0.000  0.00  0.00    +0.000 A 
ATOM     23  C   UNL     1      -1.489   4.919   0.000  0.00  0.00    +0.000 A 
ATOM     24  C   UNL     1      -2.751   4.248   0.000  0.00  0.00    +0.000 A 
ATOM     25  C   UNL     1      -1.539   3.491   0.000  0.00  0.00    +0.000 A 
ATOM     26  C   UNL     1      -2.314   4.947   0.000  0.00  0.00    +0.000 A 
BRANCH  26  27
ATOM     27  O   UNL     1      -2.701   5.676   0.000  0.00  0.00    +0.000 OA
BRANCH  27  29
ATOM     28  C   UNL     1      -1.564   5.938   0.000  0.00  0.00    +0.000 C 
ATOM     29  C   UNL     1      -2.264   6.375   0.000  0.00  0.00    +0.000 C 
BRANCH  29  30
ATOM     30  C   UNL     1      -1.827   7.075   0.000  0.00  0.00    +0.000 C 
ATOM     31  O   UNL     1      -1.002   7.046   0.000  0.00  0.00    +0.000 OA
ATOM     32  O   UNL     1      -2.214   7.804   0.000  0.00  0.00    +0.000 OA
ENDBRANCH  29  30
BRANCH  29  34
ATOM     33  C   UNL     1      -3.692   6.425   0.000  0.00  0.00    +0.000 C 
ATOM     34  C   UNL     1      -2.963   6.813   0.000  0.00  0.00    +0.000 C 
ENDBRANCH  29  34
ENDBRANCH  27  29
ENDBRANCH  26  27
ENDBRANCH   6  25
TORSDOF 10
