REMARK  Name = 
REMARK  6 active torsions:
REMARK  status: ('A' for Active; 'I' for Inactive)
REMARK    1  A    between atoms: C_2  and  S_8
REMARK    2  A    between atoms: S_8  and  C_11
REMARK    3  A    between atoms: C_11  and  C_22
REMARK    4  A    between atoms: C_14  and  C_17
REMARK    5  A    between atoms: C_17  and  C_18
REMARK    6  A    between atoms: C_18  and  C_19
REMARK                            x       y       z     vdW  Elec       q    Type
REMARK                         _______ _______ _______ _____ _____    ______ ____
ROOT
ATOM      1  C   UNL     1      -1.723  -3.283   0.000  0.00  0.00    +0.000 C 
ATOM      2  C   UNL     1      -1.441  -4.058   0.000  0.00  0.00    +0.000 C 
ATOM      3  C   UNL     1      -1.971  -4.690   0.000  0.00  0.00    +0.000 C 
ATOM      4  C   UNL     1      -2.784  -4.547   0.000  0.00  0.00    +0.000 C 
ATOM      5  C   UNL     1      -3.066  -3.771   0.000  0.00  0.00    +0.000 C 
ATOM      6  C   UNL     1      -2.535  -3.139   0.000  0.00  0.00    +0.000 C 
ENDROOT
BRANCH   1   7
ATOM      7  C   UNL     1      -0.910  -3.139   0.000  0.00  0.00    +0.000 A 
ATOM      8  C   UNL     1      -0.628  -2.364   0.000  0.00  0.00    +0.000 A 
ATOM      9  C   UNL     1       0.184  -2.221   0.000  0.00  0.00    +0.000 A 
ATOM     10  C   UNL     1       0.715  -2.853   0.000  0.00  0.00    +0.000 A 
ATOM     11  C   UNL     1       0.432  -3.628   0.000  0.00  0.00    +0.000 A 
ATOM     12  C   UNL     1      -0.380  -3.771   0.000  0.00  0.00    +0.000 A 
ATOM     13  F   UNL     1       0.963  -4.260   0.000  0.00  0.00    +0.000 F 
ATOM     14  F   UNL     1      -1.159  -1.732   0.000  0.00  0.00    +0.000 F 
ENDBRANCH   1   7
BRANCH   1  15
ATOM     15  S   UNL     1      -1.723  -2.458   0.000  0.00  0.00    +0.000 S 
ATOM     16  O   UNL     1      -2.548  -2.458   0.000  0.00  0.00    +0.000 OA
ATOM     17  O   UNL     1      -0.898  -2.458   0.000  0.00  0.00    +0.000 OA
BRANCH  15  19
ATOM     18  C   UNL     1      -1.008  -1.220   0.000  0.00  0.00    +0.000 A 
ATOM     19  C   UNL     1      -1.723  -1.633   0.000  0.00  0.00    +0.000 A 
ATOM     20  C   UNL     1      -2.437  -1.220   0.000  0.00  0.00    +0.000 A 
ATOM     21  C   UNL     1      -2.437  -0.395   0.000  0.00  0.00    +0.000 A 
ATOM     22  C   UNL     1      -1.723   0.017   0.000  0.00  0.00    +0.000 A 
ATOM     23  C   UNL     1      -1.008  -0.395   0.000  0.00  0.00    +0.000 A 
ATOM     24 CL   UNL     1      -1.723   0.842   0.000  0.00  0.00    +0.000 Cl
ENDBRANCH  15  19
ENDBRANCH   1  15
BRANCH   4  25
ATOM     25  C   UNL     1      -3.314  -5.179   0.000  0.00  0.00    +0.000 C 
BRANCH  25  26
ATOM     26  C   UNL     1      -3.032  -5.954   0.000  0.00  0.00    +0.000 C 
BRANCH  26  27
ATOM     27  C   UNL     1      -3.562  -6.586   0.000  0.00  0.00    +0.000 C 
ATOM     28  O   UNL     1      -3.280  -7.361   0.000  0.00  0.00    +0.000 OA
ATOM     29  O   UNL     1      -4.374  -6.443   0.000  0.00  0.00    +0.000 OA
ENDBRANCH  26  27
ENDBRANCH  25  26
ENDBRANCH   4  25
TORSDOF 6
