REMARK  Name = 
REMARK  7 active torsions:
REMARK  status: ('A' for Active; 'I' for Inactive)
REMARK    1  A    between atoms: C_2  and  C_7
REMARK    2  A    between atoms: C_3  and  O_18
REMARK    3  A    between atoms: N_6  and  C_11
REMARK    4  A    between atoms: N_9  and  C_21
REMARK    5  A    between atoms: O_18  and  C_19
REMARK    6  A    between atoms: C_24  and  O_28
REMARK    7  A    between atoms: O_28  and  C_31
REMARK                            x       y       z     vdW  Elec       q    Type
REMARK                         _______ _______ _______ _____ _____    ______ ____
ROOT
ATOM      1  C   UNL     1      -0.715  -0.206   0.000  0.00  0.00    +0.000 C 
ATOM      2  O   UNL     1      -0.715   0.619   0.000  0.00  0.00    +0.000 OA
ATOM      3  N   UNL     1       0.000  -0.619   0.000  0.00  0.00    +0.000 NA
ENDROOT
BRANCH   1   5
ATOM      4  C   UNL     1      -2.143  -0.206   0.000  0.00  0.00    +0.000 A 
ATOM      5  C   UNL     1      -1.429  -0.619   0.000  0.00  0.00    +0.000 A 
ATOM      6  C   UNL     1      -1.429  -1.444   0.000  0.00  0.00    +0.000 A 
ATOM      7  C   UNL     1      -2.143  -1.856   0.000  0.00  0.00    +0.000 A 
ATOM      8  C   UNL     1      -2.858  -1.444   0.000  0.00  0.00    +0.000 A 
ATOM      9  N   UNL     1      -2.858  -0.619   0.000  0.00  0.00    +0.000 N 
ATOM     10  O   UNL     1      -2.143   0.619   0.000  0.00  0.00    +0.000 OA
BRANCH   9  11
ATOM     11  C   UNL     1      -3.572  -0.206   0.000  0.00  0.00    +0.000 A 
ATOM     12  C   UNL     1      -4.287  -0.619   0.000  0.00  0.00    +0.000 A 
ATOM     13  C   UNL     1      -5.001  -0.206   0.000  0.00  0.00    +0.000 A 
ATOM     14  C   UNL     1      -5.001   0.619   0.000  0.00  0.00    +0.000 A 
ATOM     15  C   UNL     1      -4.287   1.031   0.000  0.00  0.00    +0.000 A 
ATOM     16  C   UNL     1      -3.572   0.619   0.000  0.00  0.00    +0.000 A 
ATOM     17  F   UNL     1      -5.716   1.031   0.000  0.00  0.00    +0.000 F 
ENDBRANCH   9  11
BRANCH   6  18
ATOM     18  O   UNL     1      -0.715  -1.856   0.000  0.00  0.00    +0.000 OA
BRANCH  18  19
ATOM     19  C   UNL     1       0.000  -1.444   0.000  0.00  0.00    +0.000 C 
ATOM     20  C   UNL     1       0.715  -1.856   0.000  0.00  0.00    +0.000 C 
ENDBRANCH  18  19
ENDBRANCH   6  18
ENDBRANCH   1   5
BRANCH   3  21
ATOM     21  C   UNL     1       0.715  -0.206   0.000  0.00  0.00    +0.000 A 
ATOM     22  C   UNL     1       1.429  -0.619   0.000  0.00  0.00    +0.000 A 
ATOM     23  C   UNL     1       2.143  -0.206   0.000  0.00  0.00    +0.000 A 
ATOM     24  C   UNL     1       2.143   0.619   0.000  0.00  0.00    +0.000 A 
ATOM     25  C   UNL     1       1.429   1.031   0.000  0.00  0.00    +0.000 A 
ATOM     26  C   UNL     1       0.715   0.619   0.000  0.00  0.00    +0.000 A 
ATOM     27  F   UNL     1       2.858  -0.619   0.000  0.00  0.00    +0.000 F 
BRANCH  24  28
ATOM     28  O   UNL     1       2.858   1.031   0.000  0.00  0.00    +0.000 OA
BRANCH  28  31
ATOM     29  C   UNL     1       5.001   0.619   0.000  0.00  0.00    +0.000 A 
ATOM     30  C   UNL     1       4.287   1.031   0.000  0.00  0.00    +0.000 A 
ATOM     31  C   UNL     1       3.572   0.619   0.000  0.00  0.00    +0.000 A 
ATOM     32  C   UNL     1       3.572  -0.206   0.000  0.00  0.00    +0.000 A 
ATOM     33  C   UNL     1       4.287  -0.619   0.000  0.00  0.00    +0.000 A 
ATOM     34  N   UNL     1       5.001  -0.206   0.000  0.00  0.00    +0.000 NA
ATOM     35 CL   UNL     1       4.287   1.856   0.000  0.00  0.00    +0.000 Cl
ATOM     36  N   UNL     1       5.716   1.031   0.000  0.00  0.00    +0.000 NA
ENDBRANCH  28  31
ENDBRANCH  24  28
ENDBRANCH   3  21
TORSDOF 7
