REMARK  Name = 
REMARK  8 active torsions:
REMARK  status: ('A' for Active; 'I' for Inactive)
REMARK    1  A    between atoms: C_5  and  C_9
REMARK    2  A    between atoms: C_8  and  C_9
REMARK    3  A    between atoms: C_9  and  N_14
REMARK    4  A    between atoms: N_17  and  C_21
REMARK    5  A    between atoms: C_21  and  C_22
REMARK    6  A    between atoms: C_22  and  O_23
REMARK    7  A    between atoms: O_23  and  C_24
REMARK    8  A    between atoms: C_24  and  C_25
REMARK                            x       y       z     vdW  Elec       q    Type
REMARK                         _______ _______ _______ _____ _____    ______ ____
ROOT
ATOM      1  C   UNL     1      -0.351  -1.052   0.000  0.00  0.00    +0.000 C 
ENDROOT
BRANCH   1   6
ATOM      2  C   UNL     1      -2.496  -1.464   0.000  0.00  0.00    +0.000 A 
ATOM      3  C   UNL     1      -2.496  -2.289   0.000  0.00  0.00    +0.000 A 
ATOM      4  C   UNL     1      -1.753  -2.702   0.000  0.00  0.00    +0.000 A 
ATOM      5  C   UNL     1      -1.052  -2.289   0.000  0.00  0.00    +0.000 A 
ATOM      6  C   UNL     1      -1.052  -1.464   0.000  0.00  0.00    +0.000 A 
ATOM      7  C   UNL     1      -1.753  -1.052   0.000  0.00  0.00    +0.000 A 
ATOM      8 CL   UNL     1      -3.197  -2.702   0.000  0.00  0.00    +0.000 Cl
ENDBRANCH   1   6
BRANCH   1  10
ATOM      9  C   UNL     1       0.392  -2.289   0.000  0.00  0.00    +0.000 A 
ATOM     10  C   UNL     1       0.392  -1.464   0.000  0.00  0.00    +0.000 A 
ATOM     11  C   UNL     1       1.093  -2.702   0.000  0.00  0.00    +0.000 A 
ATOM     12  C   UNL     1       1.794  -2.289   0.000  0.00  0.00    +0.000 A 
ATOM     13  C   UNL     1       1.794  -1.464   0.000  0.00  0.00    +0.000 A 
ATOM     14  C   UNL     1       1.093  -1.052   0.000  0.00  0.00    +0.000 A 
ENDBRANCH   1  10
BRANCH   1  15
ATOM     15  N   UNL     1      -0.351  -0.227   0.000  0.00  0.00    +0.000 NA
ATOM     16  C   UNL     1       0.392   0.185   0.000  0.00  0.00    +0.000 C 
ATOM     17  C   UNL     1       0.392   1.011   0.000  0.00  0.00    +0.000 C 
ATOM     18  N   UNL     1      -0.351   1.464   0.000  0.00  0.00    +0.000 NA
ATOM     19  C   UNL     1      -1.052   1.011   0.000  0.00  0.00    +0.000 C 
ATOM     20  C   UNL     1      -1.052   0.185   0.000  0.00  0.00    +0.000 C 
BRANCH  18  21
ATOM     21  C   UNL     1      -0.351   2.289   0.000  0.00  0.00    +0.000 C 
BRANCH  21  22
ATOM     22  C   UNL     1       0.392   2.702   0.000  0.00  0.00    +0.000 C 
BRANCH  22  23
ATOM     23  O   UNL     1       1.093   2.289   0.000  0.00  0.00    +0.000 OA
BRANCH  23  24
ATOM     24  C   UNL     1       1.794   2.661   0.000  0.00  0.00    +0.000 C 
BRANCH  24  25
ATOM     25  C   UNL     1       2.496   2.289   0.000  0.00  0.00    +0.000 C 
ATOM     26  O   UNL     1       3.197   2.661   0.000  0.00  0.00    +0.000 OA
ATOM     27  O   UNL     1       2.496   1.423   0.000  0.00  0.00    +0.000 OA
ENDBRANCH  24  25
ENDBRANCH  23  24
ENDBRANCH  22  23
ENDBRANCH  21  22
ENDBRANCH  18  21
ENDBRANCH   1  15
TORSDOF 8
