REMARK  Name = 
REMARK  3 active torsions:
REMARK  status: ('A' for Active; 'I' for Inactive)
REMARK    1  A    between atoms: C_1  and  C_4
REMARK    2  A    between atoms: C_4  and  O_6
REMARK    3  A    between atoms: O_6  and  C_10
REMARK                            x       y       z     vdW  Elec       q    Type
REMARK                         _______ _______ _______ _____ _____    ______ ____
ROOT
ATOM      1  N   UNL     1       1.786  -0.412   0.000  0.00  0.00    +0.000 NA
ATOM      2  C   UNL     1       1.072  -0.825   0.000  0.00  0.00    +0.000 C 
ATOM      3  C   UNL     1       0.357  -0.412   0.000  0.00  0.00    +0.000 C 
ATOM      4  C   UNL     1       0.357   0.412   0.000  0.00  0.00    +0.000 C 
ATOM      5  C   UNL     1       1.072   0.825   0.000  0.00  0.00    +0.000 C 
ATOM      6  C   UNL     1       1.786   0.412   0.000  0.00  0.00    +0.000 C 
ATOM      7  C   UNL     1       2.199   1.127   0.000  0.00  0.00    +0.000 C 
ATOM      8  C   UNL     1       2.611   0.412   0.000  0.00  0.00    +0.000 C 
ATOM      9  C   UNL     1       1.484  -1.540   0.000  0.00  0.00    +0.000 C 
ATOM     10  C   UNL     1       0.659  -1.540   0.000  0.00  0.00    +0.000 C 
ATOM     11  O   UNL     1       2.501  -0.825   0.000  0.00  0.00    +0.000 OA
ENDROOT
BRANCH   4  12
ATOM     12  O   UNL     1      -0.357   0.825   0.000  0.00  0.00    +0.000 OA
BRANCH  12  13
ATOM     13  C   UNL     1      -1.072   0.412   0.000  0.00  0.00    +0.000 C 
ATOM     14  O   UNL     1      -1.072  -0.412   0.000  0.00  0.00    +0.000 OA
BRANCH  13  15
ATOM     15  C   UNL     1      -1.786   0.825   0.000  0.00  0.00    +0.000 C 
ATOM     16  C   UNL     1      -2.611   0.825   0.000  0.00  0.00    +0.000 C 
ATOM     17  C   UNL     1      -2.199   1.540   0.000  0.00  0.00    +0.000 C 
ENDBRANCH  13  15
ENDBRANCH  12  13
ENDBRANCH   4  12
TORSDOF 3
