REMARK  Name = 
REMARK  2 active torsions:
REMARK  status: ('A' for Active; 'I' for Inactive)
REMARK    1  A    between atoms: C_3  and  S_8
REMARK    2  A    between atoms: S_8  and  N_11
REMARK                            x       y       z     vdW  Elec       q    Type
REMARK                         _______ _______ _______ _____ _____    ______ ____
ROOT
ATOM      1  S   UNL     1       2.858  -4.125   0.000  0.00  0.00    +0.000 S 
ATOM      2  O   UNL     1       2.033  -4.125   0.000  0.00  0.00    +0.000 OA
ATOM      3  O   UNL     1       3.683  -4.125   0.000  0.00  0.00    +0.000 OA
ENDROOT
BRANCH   1   4
ATOM      4  N   UNL     1       2.858  -4.950   0.000  0.00  0.00    +0.000 NA
ATOM      5  C   UNL     1       2.143  -5.362   0.000  0.00  0.00    +0.000 A 
ATOM      6  N   UNL     1       2.143  -6.188   0.000  0.00  0.00    +0.000 NA
ATOM      7  N   UNL     1       1.429  -6.600   0.000  0.00  0.00    +0.000 NA
ATOM      8  C   UNL     1       0.715  -6.188   0.000  0.00  0.00    +0.000 A 
ATOM      9  C   UNL     1       0.715  -5.362   0.000  0.00  0.00    +0.000 A 
ATOM     10  C   UNL     1       1.429  -4.950   0.000  0.00  0.00    +0.000 A 
ATOM     11 CL   UNL     1       0.000  -6.600   0.000  0.00  0.00    +0.000 Cl
ENDBRANCH   1   4
BRANCH   1  14
ATOM     12  C   UNL     1       3.572  -2.062   0.000  0.00  0.00    +0.000 A 
ATOM     13  C   UNL     1       3.572  -2.888   0.000  0.00  0.00    +0.000 A 
ATOM     14  C   UNL     1       2.858  -3.300   0.000  0.00  0.00    +0.000 A 
ATOM     15  C   UNL     1       2.143  -2.888   0.000  0.00  0.00    +0.000 A 
ATOM     16  C   UNL     1       2.143  -2.062   0.000  0.00  0.00    +0.000 A 
ATOM     17  C   UNL     1       2.858  -1.650   0.000  0.00  0.00    +0.000 A 
ATOM     18  N   UNL     1       2.858  -0.825   0.000  0.00  0.00    +0.000 NA
ENDBRANCH   1  14
TORSDOF 2
