REMARK  Name = 
REMARK  7 active torsions:
REMARK  status: ('A' for Active; 'I' for Inactive)
REMARK    1  A    between atoms: C_9  and  C_10
REMARK    2  A    between atoms: C_11  and  C_21
REMARK    3  A    between atoms: C_21  and  C_22
REMARK    4  A    between atoms: C_22  and  C_23
REMARK    5  A    between atoms: C_23  and  C_24
REMARK    6  A    between atoms: C_24  and  C_25
REMARK    7  A    between atoms: C_25  and  C_26
REMARK                            x       y       z     vdW  Elec       q    Type
REMARK                         _______ _______ _______ _____ _____    ______ ____
ROOT
ATOM      1  C   UNL     1      -1.090   2.146   0.000  0.00  0.00    +0.000 C 
ATOM      2  C   UNL     1       0.409  -0.172   0.000  0.00  0.00    +0.000 C 
ATOM      3  C   UNL     1       0.894   0.496   0.000  0.00  0.00    +0.000 C 
ATOM      4  C   UNL     1       0.409   1.163   0.000  0.00  0.00    +0.000 C 
ATOM      5  C   UNL     1      -0.375   0.908   0.000  0.00  0.00    +0.000 C 
ATOM      6  C   UNL     1      -1.090   1.321   0.000  0.00  0.00    +0.000 C 
ATOM      7  C   UNL     1      -1.804   0.908   0.000  0.00  0.00    +0.000 C 
ATOM      8  C   UNL     1      -1.804   0.083   0.000  0.00  0.00    +0.000 C 
ATOM      9  C   UNL     1      -1.090  -0.329   0.000  0.00  0.00    +0.000 C 
ATOM     10  C   UNL     1      -0.375   0.083   0.000  0.00  0.00    +0.000 C 
ATOM     11  C   UNL     1      -0.289  -0.737   0.000  0.00  0.00    +0.000 C 
ENDROOT
BRANCH   1  20
ATOM     12  C   UNL     1      -3.866   3.273   0.000  0.00  0.00    +0.000 C 
ATOM     13  C   UNL     1      -4.279   2.558   0.000  0.00  0.00    +0.000 C 
ATOM     14  C   UNL     1      -3.866   1.844   0.000  0.00  0.00    +0.000 C 
ATOM     15  C   UNL     1      -3.042   1.844   0.000  0.00  0.00    +0.000 C 
ATOM     16  C   UNL     1      -2.629   2.558   0.000  0.00  0.00    +0.000 C 
ATOM     17  C   UNL     1      -3.042   3.273   0.000  0.00  0.00    +0.000 C 
ATOM     18  O   UNL     1      -4.279   3.987   0.000  0.00  0.00    +0.000 OA
ATOM     19  O   UNL     1      -4.279   1.129   0.000  0.00  0.00    +0.000 OA
ATOM     20  C   UNL     1      -1.804   2.558   0.000  0.00  0.00    +0.000 C 
ATOM     21  C   UNL     1      -2.629   1.129   0.000  0.00  0.00    +0.000 C 
ENDBRANCH   1  20
BRANCH   2  22
ATOM     22  C   UNL     1       0.664  -0.956   0.000  0.00  0.00    +0.000 C 
ATOM     23  C   UNL     1       0.112  -1.569   0.000  0.00  0.00    +0.000 C 
BRANCH  22  24
ATOM     24  C   UNL     1       1.461  -1.170   0.000  0.00  0.00    +0.000 C 
BRANCH  24  25
ATOM     25  C   UNL     1       1.675  -1.967   0.000  0.00  0.00    +0.000 C 
BRANCH  25  26
ATOM     26  C   UNL     1       2.472  -2.180   0.000  0.00  0.00    +0.000 C 
BRANCH  26  27
ATOM     27  C   UNL     1       2.685  -2.977   0.000  0.00  0.00    +0.000 C 
BRANCH  27  28
ATOM     28  C   UNL     1       3.482  -3.191   0.000  0.00  0.00    +0.000 C 
ATOM     29  C   UNL     1       3.269  -3.987   0.000  0.00  0.00    +0.000 C 
ATOM     30  C   UNL     1       4.279  -3.404   0.000  0.00  0.00    +0.000 C 
ATOM     31  O   UNL     1       3.696  -2.394   0.000  0.00  0.00    +0.000 OA
ENDBRANCH  27  28
ENDBRANCH  26  27
ENDBRANCH  25  26
ENDBRANCH  24  25
ENDBRANCH  22  24
ENDBRANCH   2  22
TORSDOF 7
