REMARK  Name = 
REMARK  3 active torsions:
REMARK  status: ('A' for Active; 'I' for Inactive)
REMARK    1  A    between atoms: O_2  and  C_3
REMARK    2  A    between atoms: C_3  and  C_4
REMARK    3  A    between atoms: C_4  and  C_13
REMARK                            x       y       z     vdW  Elec       q    Type
REMARK                         _______ _______ _______ _____ _____    ______ ____
ROOT
ATOM      1  C   UNL     1       0.000   0.000   0.000  0.00  0.00    +0.000 C 
ATOM      2  C   UNL     1       0.000   0.825   0.000  0.00  0.00    +0.000 C 
ATOM      3  O   UNL     1      -0.715   1.238   0.000  0.00  0.00    +0.000 OA
ATOM      4  C   UNL     1       0.715   1.238   0.000  0.00  0.00    +0.000 C 
ATOM      5  C   UNL     1       1.429   0.825   0.000  0.00  0.00    +0.000 C 
ATOM      6  C   UNL     1       1.429   0.000   0.000  0.00  0.00    +0.000 C 
ATOM      7  N   UNL     1       0.715  -0.412   0.000  0.00  0.00    +0.000 NA
ATOM      8  C   UNL     1       0.852   0.138   0.000  0.00  0.00    +0.000 C 
ATOM      9  C   UNL     1       0.852   0.688   0.000  0.00  0.00    +0.000 C 
ENDROOT
BRANCH   1  10
ATOM     10  C   UNL     1      -0.812   0.143   0.000  0.00  0.00    +0.000 C 
ATOM     11  O   UNL     1      -1.343  -0.489   0.000  0.00  0.00    +0.000 OA
ENDBRANCH   1  10
BRANCH   1  12
ATOM     12  C   UNL     1      -0.282  -0.775   0.000  0.00  0.00    +0.000 C 
BRANCH  12  14
ATOM     13  C   UNL     1      -0.034  -2.183   0.000  0.00  0.00    +0.000 C 
ATOM     14  O   UNL     1       0.248  -1.407   0.000  0.00  0.00    +0.000 OA
ENDBRANCH  12  14
ENDBRANCH   1  12
TORSDOF 3
