REMARK  Name = 
REMARK  17 active torsions:
REMARK  status: ('A' for Active; 'I' for Inactive)
REMARK    1  A    between atoms: C_1  and  O_3
REMARK    2  A    between atoms: O_3  and  C_6
REMARK    3  A    between atoms: C_5  and  N_9
REMARK    4  A    between atoms: N_10  and  C_12
REMARK    5  A    between atoms: C_12  and  C_14
REMARK    6  A    between atoms: C_14  and  C_15
REMARK    7  A    between atoms: C_15  and  C_16
REMARK    8  A    between atoms: C_16  and  C_17
REMARK    9  A    between atoms: C_17  and  C_18
REMARK   10  A    between atoms: C_18  and  C_19
REMARK   11  A    between atoms: C_19  and  C_20
REMARK   12  A    between atoms: C_20  and  C_21
REMARK   13  A    between atoms: C_21  and  C_22
REMARK   14  A    between atoms: C_22  and  N_23
REMARK   15  A    between atoms: C_24  and  O_26
REMARK   16  A    between atoms: O_26  and  C_27
REMARK   17  A    between atoms: C_30  and  N_33
REMARK                            x       y       z     vdW  Elec       q    Type
REMARK                         _______ _______ _______ _____ _____    ______ ____
ROOT
ATOM      1  C   UNL     1      -3.929   0.408   0.000  0.00  0.00    +0.000 C 
ENDROOT
BRANCH   1   2
ATOM      2  C   UNL     1      -3.215   0.821   0.000  0.00  0.00    +0.000 C 
BRANCH   2   3
ATOM      3  C   UNL     1      -2.500   0.408   0.000  0.00  0.00    +0.000 C 
BRANCH   3   4
ATOM      4  C   UNL     1      -1.786   0.821   0.000  0.00  0.00    +0.000 C 
BRANCH   4   5
ATOM      5  C   UNL     1      -1.071   0.408   0.000  0.00  0.00    +0.000 C 
BRANCH   5   7
ATOM      6  C   UNL     1      -0.357   1.646   0.000  0.00  0.00    +0.000 C 
ATOM      7  N   UNL     1      -0.357   0.821   0.000  0.00  0.00    +0.000 N 
ATOM      8  O   UNL     1      -1.071   2.058   0.000  0.00  0.00    +0.000 OA
ATOM      9  C   UNL     1       0.357   0.408   0.000  0.00  0.00    +0.000 C 
BRANCH   6  10
ATOM     10  O   UNL     1       0.357   2.058   0.000  0.00  0.00    +0.000 OA
BRANCH  10  11
ATOM     11  C   UNL     1       1.072   1.646   0.000  0.00  0.00    +0.000 A 
ATOM     12  C   UNL     1       1.786   2.058   0.000  0.00  0.00    +0.000 A 
ATOM     13  C   UNL     1       1.072   0.821   0.000  0.00  0.00    +0.000 A 
ATOM     14  C   UNL     1       2.501   1.646   0.000  0.00  0.00    +0.000 A 
ATOM     15  C   UNL     1       1.786   0.408   0.000  0.00  0.00    +0.000 A 
ATOM     16  C   UNL     1       2.501   0.821   0.000  0.00  0.00    +0.000 A 
BRANCH  14  17
ATOM     17  N   UNL     1       3.215   2.058   0.000  0.00  0.00    +0.000 NA
ATOM     18  C   UNL     1       3.214   2.888   0.000  0.00  0.00    +0.000 C 
ATOM     19  C   UNL     1       3.929   1.655   0.000  0.00  0.00    +0.000 C 
ATOM     20  C   UNL     1       3.929   2.470   0.000  0.00  0.00    +0.000 C 
ENDBRANCH  14  17
ENDBRANCH  10  11
ENDBRANCH   6  10
ENDBRANCH   5   7
ENDBRANCH   4   5
ENDBRANCH   3   4
ENDBRANCH   2   3
ENDBRANCH   1   2
BRANCH   1  21
ATOM     21  C   UNL     1      -3.929  -0.417   0.000  0.00  0.00    +0.000 C 
BRANCH  21  22
ATOM     22  C   UNL     1      -3.215  -0.829   0.000  0.00  0.00    +0.000 C 
BRANCH  22  23
ATOM     23  C   UNL     1      -2.500  -0.417   0.000  0.00  0.00    +0.000 C 
BRANCH  23  24
ATOM     24  C   UNL     1      -1.786  -0.829   0.000  0.00  0.00    +0.000 C 
BRANCH  24  25
ATOM     25  C   UNL     1      -1.071  -0.417   0.000  0.00  0.00    +0.000 C 
BRANCH  25  26
ATOM     26  N   UNL     1      -0.357  -0.829   0.000  0.00  0.00    +0.000 N 
ATOM     27  C   UNL     1      -0.357  -1.654   0.000  0.00  0.00    +0.000 C 
ATOM     28  C   UNL     1       0.357  -0.417   0.000  0.00  0.00    +0.000 C 
ATOM     29  O   UNL     1      -1.071  -2.067   0.000  0.00  0.00    +0.000 OA
BRANCH  27  30
ATOM     30  O   UNL     1       0.357  -2.067   0.000  0.00  0.00    +0.000 OA
BRANCH  30  31
ATOM     31  C   UNL     1       1.072  -1.654   0.000  0.00  0.00    +0.000 A 
ATOM     32  C   UNL     1       1.786  -2.067   0.000  0.00  0.00    +0.000 A 
ATOM     33  C   UNL     1       1.072  -0.829   0.000  0.00  0.00    +0.000 A 
ATOM     34  C   UNL     1       2.501  -1.654   0.000  0.00  0.00    +0.000 A 
ATOM     35  C   UNL     1       1.786  -0.417   0.000  0.00  0.00    +0.000 A 
ATOM     36  C   UNL     1       2.501  -0.829   0.000  0.00  0.00    +0.000 A 
BRANCH  34  37
ATOM     37  N   UNL     1       3.215  -2.067   0.000  0.00  0.00    +0.000 NA
ATOM     38  C   UNL     1       3.929  -1.655   0.000  0.00  0.00    +0.000 C 
ATOM     39  C   UNL     1       3.214  -2.888   0.000  0.00  0.00    +0.000 C 
ATOM     40  C   UNL     1       3.929  -2.470   0.000  0.00  0.00    +0.000 C 
ENDBRANCH  34  37
ENDBRANCH  30  31
ENDBRANCH  27  30
ENDBRANCH  25  26
ENDBRANCH  24  25
ENDBRANCH  23  24
ENDBRANCH  22  23
ENDBRANCH  21  22
ENDBRANCH   1  21
TORSDOF 17
