REMARK  Name = 
REMARK  5 active torsions:
REMARK  status: ('A' for Active; 'I' for Inactive)
REMARK    1  A    between atoms: N_3  and  C_18
REMARK    2  A    between atoms: N_7  and  C_8
REMARK    3  A    between atoms: C_11  and  S_14
REMARK    4  A    between atoms: C_18  and  N_20
REMARK    5  A    between atoms: N_20  and  C_21
REMARK                            x       y       z     vdW  Elec       q    Type
REMARK                         _______ _______ _______ _____ _____    ______ ____
ROOT
ATOM      1  N   UNL     1      -2.867  -0.826   0.000  0.00  0.00    +0.000 NA
ATOM      2  C   UNL     1      -2.085  -1.079   0.000  0.00  0.00    +0.000 A 
ATOM      3  N   UNL     1      -1.422  -0.594   0.000  0.00  0.00    +0.000 N 
ATOM      4  N   UNL     1      -0.754  -1.079   0.000  0.00  0.00    +0.000 NA
ATOM      5  C   UNL     1      -1.010  -1.862   0.000  0.00  0.00    +0.000 A 
ATOM      6  N   UNL     1      -1.833  -1.862   0.000  0.00  0.00    +0.000 NA
ATOM      7  N   UNL     1      -0.528  -2.527   0.000  0.00  0.00    +0.000 NA
ENDROOT
BRANCH   7   8
ATOM      8  C   UNL     1       0.290  -2.442   0.000  0.00  0.00    +0.000 A 
ATOM      9  C   UNL     1       0.773  -3.113   0.000  0.00  0.00    +0.000 A 
ATOM     10  C   UNL     1       1.594  -3.020   0.000  0.00  0.00    +0.000 A 
ATOM     11  C   UNL     1       1.929  -2.265   0.000  0.00  0.00    +0.000 A 
ATOM     12  C   UNL     1       1.442  -1.602   0.000  0.00  0.00    +0.000 A 
ATOM     13  C   UNL     1       0.625  -1.687   0.000  0.00  0.00    +0.000 A 
BRANCH  11  14
ATOM     14  S   UNL     1       2.746  -2.176   0.000  0.00  0.00    +0.000 S 
ATOM     15  N   UNL     1       3.563  -2.088   0.000  0.00  0.00    +0.000 NA
ATOM     16  O   UNL     1       2.657  -1.359   0.000  0.00  0.00    +0.000 OA
ATOM     17  O   UNL     1       2.834  -2.994   0.000  0.00  0.00    +0.000 OA
ENDBRANCH  11  14
ENDBRANCH   7   8
BRANCH   3  18
ATOM     18  C   UNL     1      -1.422   0.228   0.000  0.00  0.00    +0.000 C 
ATOM     19  S   UNL     1      -0.712   0.640   0.000  0.00  0.00    +0.000 S 
BRANCH  18  20
ATOM     20  N   UNL     1      -2.137   0.638   0.000  0.00  0.00    +0.000 NA
BRANCH  20  21
ATOM     21  C   UNL     1      -2.137   1.460   0.000  0.00  0.00    +0.000 A 
ATOM     22  C   UNL     1      -2.850   1.877   0.000  0.00  0.00    +0.000 A 
ATOM     23  C   UNL     1      -2.850   2.703   0.000  0.00  0.00    +0.000 A 
ATOM     24  C   UNL     1      -2.139   3.113   0.000  0.00  0.00    +0.000 A 
ATOM     25  C   UNL     1      -1.424   2.705   0.000  0.00  0.00    +0.000 A 
ATOM     26  C   UNL     1      -1.424   1.879   0.000  0.00  0.00    +0.000 A 
ATOM     27  F   UNL     1      -0.711   1.471   0.000  0.00  0.00    +0.000 F 
ATOM     28  F   UNL     1      -3.563   1.466   0.000  0.00  0.00    +0.000 F 
ENDBRANCH  20  21
ENDBRANCH  18  20
ENDBRANCH   3  18
TORSDOF 5
