REMARK  Name = 
REMARK  1 active torsions:
REMARK  status: ('A' for Active; 'I' for Inactive)
REMARK    1  A    between atoms: C_12  and  N_16
REMARK                            x       y       z     vdW  Elec       q    Type
REMARK                         _______ _______ _______ _____ _____    ______ ____
ROOT
ATOM      1  C   UNL     1       1.429   0.825   0.000  0.00  0.00    +0.000 C 
ATOM      2  C   UNL     1       1.429   0.000   0.000  0.00  0.00    +0.000 C 
ATOM      3  C   UNL     1       4.287   0.825   0.000  0.00  0.00    +0.000 A 
ATOM      4  C   UNL     1       2.143   1.238   0.000  0.00  0.00    +0.000 C 
ATOM      5  C   UNL     1       3.572   1.238   0.000  0.00  0.00    +0.000 A 
ATOM      6  C   UNL     1       2.143  -0.412   0.000  0.00  0.00    +0.000 C 
ATOM      7  C   UNL     1       4.287   0.000   0.000  0.00  0.00    +0.000 A 
ATOM      8  C   UNL     1       2.858   0.825   0.000  0.00  0.00    +0.000 A 
ATOM      9  C   UNL     1       2.858   0.000   0.000  0.00  0.00    +0.000 A 
ATOM     10  C   UNL     1       3.572  -0.412   0.000  0.00  0.00    +0.000 A 
ENDROOT
BRANCH  10  16
ATOM     11  C   UNL     1       5.180  -2.642   0.000  0.00  0.00    +0.000 C 
ATOM     12  C   UNL     1       5.593  -1.927   0.000  0.00  0.00    +0.000 C 
ATOM     13  C   UNL     1       4.287  -1.650   0.000  0.00  0.00    +0.000 C 
ATOM     14  N   UNL     1       4.373  -2.470   0.000  0.00  0.00    +0.000 NA
ATOM     15  N   UNL     1       5.040  -1.314   0.000  0.00  0.00    +0.000 NA
ATOM     16  N   UNL     1       3.572  -1.238   0.000  0.00  0.00    +0.000 NA
ENDBRANCH  10  16
TORSDOF 1
