REMARK  Name = 
REMARK  7 active torsions:
REMARK  status: ('A' for Active; 'I' for Inactive)
REMARK    1  A    between atoms: C_11  and  C_13
REMARK    2  A    between atoms: C_11  and  N_22
REMARK    3  A    between atoms: C_12  and  C_16
REMARK    4  A    between atoms: C_14  and  C_16
REMARK    5  A    between atoms: C_15  and  O_25
REMARK    6  A    between atoms: C_16  and  C_21
REMARK    7  A    between atoms: C_21  and  O_25
REMARK                            x       y       z     vdW  Elec       q    Type
REMARK                         _______ _______ _______ _____ _____    ______ ____
ROOT
ATOM      1  C   UNL     1       0.667  -0.077   0.000  0.00  0.00    +0.000 C 
ATOM      2  C   UNL     1       1.089  -1.450   0.000  0.00  0.00    +0.000 C 
ATOM      3  C   UNL     1       1.072   0.147   0.000  0.00  0.00    +0.000 C 
ATOM      4  C   UNL     1       0.704  -0.592   0.000  0.00  0.00    +0.000 C 
ATOM      5  C   UNL     1       1.854  -1.534   0.000  0.00  0.00    +0.000 C 
ATOM      6  C   UNL     1       1.879   0.320   0.000  0.00  0.00    +0.000 C 
ATOM      7  C   UNL     1       2.506  -1.028   0.000  0.00  0.00    +0.000 C 
ATOM      8  C   UNL     1       2.517  -0.203   0.000  0.00  0.00    +0.000 C 
ATOM      9  N   UNL     1       1.635  -0.604   0.000  0.00  0.00    +0.000 N 
ATOM     10  O   UNL     1       3.226  -0.625   0.000  0.00  0.00    +0.000 OA
ENDROOT
BRANCH   9  11
ATOM     11  C   UNL     1       0.942  -1.172   0.000  0.00  0.00    +0.000 C 
BRANCH  11  14
ATOM     12  C   UNL     1       0.659  -2.636   0.000  0.00  0.00    +0.000 C 
ATOM     13  C   UNL     1       1.481  -2.562   0.000  0.00  0.00    +0.000 C 
ATOM     14  C   UNL     1       1.006  -1.887   0.000  0.00  0.00    +0.000 C 
ENDBRANCH  11  14
ENDBRANCH   9  11
BRANCH   4  15
ATOM     15  O   UNL     1      -0.245  -0.490   0.000  0.00  0.00    +0.000 OA
BRANCH  15  16
ATOM     16  C   UNL     1      -0.970   0.034   0.000  0.00  0.00    +0.000 C 
ATOM     17  O   UNL     1      -0.885   0.855   0.000  0.00  0.00    +0.000 OA
BRANCH  16  18
ATOM     18  C   UNL     1      -1.786   0.248   0.000  0.00  0.00    +0.000 C 
BRANCH  18  24
ATOM     19  C   UNL     1      -2.439   2.636   0.000  0.00  0.00    +0.000 A 
ATOM     20  C   UNL     1      -3.019   2.049   0.000  0.00  0.00    +0.000 A 
ATOM     21  C   UNL     1      -1.641   2.426   0.000  0.00  0.00    +0.000 A 
ATOM     22  C   UNL     1      -2.801   1.254   0.000  0.00  0.00    +0.000 A 
ATOM     23  C   UNL     1      -1.423   1.631   0.000  0.00  0.00    +0.000 A 
ATOM     24  C   UNL     1      -2.003   1.044   0.000  0.00  0.00    +0.000 A 
ENDBRANCH  18  24
BRANCH  18  25
ATOM     25  C   UNL     1      -2.444  -0.331   0.000  0.00  0.00    +0.000 C 
ATOM     26  O   UNL     1      -3.226  -0.068   0.000  0.00  0.00    +0.000 OA
ENDBRANCH  18  25
ENDBRANCH  16  18
ENDBRANCH  15  16
ENDBRANCH   4  15
TORSDOF 7
