REMARK  Name = 
REMARK  1 active torsions:
REMARK  status: ('A' for Active; 'I' for Inactive)
REMARK    1  A    between atoms: C_2  and  C_3
REMARK                            x       y       z     vdW  Elec       q    Type
REMARK                         _______ _______ _______ _____ _____    ______ ____
ROOT
ATOM      1  C   UNL     1      -1.162  -0.412   0.000  0.00  0.00    +0.000 C 
ATOM      2  C   UNL     1      -1.162   0.412   0.000  0.00  0.00    +0.000 C 
ATOM      3  O   UNL     1      -1.829   0.897   0.000  0.00  0.00    +0.000 OA
ATOM      4  N   UNL     1      -0.377   0.667   0.000  0.00  0.00    +0.000 NA
ATOM      5  C   UNL     1       0.108   0.000   0.000  0.00  0.00    +0.000 C 
ATOM      6  S   UNL     1      -0.377  -0.667   0.000  0.00  0.00    +0.000 S 
ATOM      7  C   UNL     1       0.520   0.714   0.000  0.00  0.00    +0.000 C 
ATOM      8  C   UNL     1       1.345   0.714   0.000  0.00  0.00    +0.000 C 
ATOM      9  N   UNL     1       1.758   0.000   0.000  0.00  0.00    +0.000 NA
ATOM     10  C   UNL     1       1.345  -0.714   0.000  0.00  0.00    +0.000 C 
ATOM     11  C   UNL     1       0.520  -0.714   0.000  0.00  0.00    +0.000 C 
ATOM     12  C   UNL     1       2.583   0.000   0.000  0.00  0.00    +0.000 C 
ENDROOT
BRANCH   1  14
ATOM     13  C   UNL     1      -2.583  -0.562   0.000  0.00  0.00    +0.000 C 
ATOM     14  C   UNL     1      -1.829  -0.897   0.000  0.00  0.00    +0.000 C 
ENDBRANCH   1  14
TORSDOF 1
