REMARK  Name = 
REMARK  4 active torsions:
REMARK  status: ('A' for Active; 'I' for Inactive)
REMARK    1  A    between atoms: N_1  and  C_7
REMARK    2  A    between atoms: C_10  and  C_16
REMARK    3  A    between atoms: C_11  and  O_14
REMARK    4  A    between atoms: O_14  and  P_18
REMARK                            x       y       z     vdW  Elec       q    Type
REMARK                         _______ _______ _______ _____ _____    ______ ____
ROOT
ATOM      1  C   UNL     1      -0.690  -0.305   0.000  0.00  0.00    +0.000 C 
ATOM      2  O   UNL     1      -1.357  -0.789   0.000  0.00  0.00    +0.000 OA
ATOM      3  C   UNL     1      -0.023  -0.789   0.000  0.00  0.00    +0.000 C 
ATOM      4  C   UNL     1      -1.103  -1.574   0.000  0.00  0.00    +0.000 C 
ATOM      5  C   UNL     1      -0.278  -1.574   0.000  0.00  0.00    +0.000 C 
ATOM      6  O   UNL     1       0.762  -0.535   0.000  0.00  0.00    +0.000 OA
ENDROOT
BRANCH   1   7
ATOM      7  N   UNL     1      -0.690   0.520   0.000  0.00  0.00    +0.000 N 
ATOM      8  C   UNL     1       0.024   0.933   0.000  0.00  0.00    +0.000 A 
ATOM      9  C   UNL     1      -1.405   0.933   0.000  0.00  0.00    +0.000 A 
ATOM     10  N   UNL     1       0.024   1.758   0.000  0.00  0.00    +0.000 NA
ATOM     11  C   UNL     1      -0.690   2.170   0.000  0.00  0.00    +0.000 A 
ATOM     12  C   UNL     1      -1.405   1.758   0.000  0.00  0.00    +0.000 A 
ATOM     13  O   UNL     1       0.739   0.520   0.000  0.00  0.00    +0.000 OA
ATOM     14  N   UNL     1      -0.690   2.995   0.000  0.00  0.00    +0.000 NA
ENDBRANCH   1   7
BRANCH   4  15
ATOM     15  C   UNL     1      -1.587  -2.242   0.000  0.00  0.00    +0.000 C 
ATOM     16  O   UNL     1      -1.252  -2.995   0.000  0.00  0.00    +0.000 OA
ENDBRANCH   4  15
BRANCH   5  17
ATOM     17  O   UNL     1       0.207  -2.242   0.000  0.00  0.00    +0.000 OA
BRANCH  17  18
ATOM     18  P   UNL     1       1.004  -2.028   0.000  0.00  0.00    +0.000 P 
ATOM     19  O   UNL     1       1.587  -2.611   0.000  0.00  0.00    +0.000 OA
ATOM     20  O   UNL     1       1.218  -1.231   0.000  0.00  0.00    +0.000 OA
ATOM     21  O   UNL     1       1.004  -2.853   0.000  0.00  0.00    +0.000 OA
ENDBRANCH  17  18
ENDBRANCH   5  17
TORSDOF 4
