REMARK  Name = 
REMARK  8 active torsions:
REMARK  status: ('A' for Active; 'I' for Inactive)
REMARK    1  A    between atoms: C_5  and  C_8
REMARK    2  A    between atoms: C_9  and  C_10
REMARK    3  A    between atoms: C_13  and  S_15
REMARK    4  A    between atoms: S_15  and  N_18
REMARK    5  A    between atoms: N_18  and  C_19
REMARK    6  A    between atoms: C_19  and  C_20
REMARK    7  A    between atoms: C_19  and  C_30
REMARK    8  A    between atoms: C_20  and  C_21
REMARK                            x       y       z     vdW  Elec       q    Type
REMARK                         _______ _______ _______ _____ _____    ______ ____
ROOT
ATOM      1  S   UNL     1      -2.267   1.882   0.000  0.00  0.00    +0.000 S 
ATOM      2  O   UNL     1      -2.439   1.075   0.000  0.00  0.00    +0.000 OA
ATOM      3  O   UNL     1      -2.096   2.689   0.000  0.00  0.00    +0.000 OA
ENDROOT
BRANCH   1   7
ATOM      4  C   UNL     1      -4.402   1.914   0.000  0.00  0.00    +0.000 A 
ATOM      5  C   UNL     1      -4.230   2.721   0.000  0.00  0.00    +0.000 A 
ATOM      6  C   UNL     1      -3.410   2.807   0.000  0.00  0.00    +0.000 A 
ATOM      7  C   UNL     1      -3.074   2.053   0.000  0.00  0.00    +0.000 A 
ATOM      8  S   UNL     1      -3.687   1.501   0.000  0.00  0.00    +0.000 S 
BRANCH   4  10
ATOM      9  C   UNL     1      -5.909   1.243   0.000  0.00  0.00    +0.000 C 
ATOM     10  C   UNL     1      -5.155   1.578   0.000  0.00  0.00    +0.000 C 
BRANCH   9  15
ATOM     11  C   UNL     1      -8.924  -0.100   0.000  0.00  0.00    +0.000 C 
ATOM     12  C   UNL     1      -8.170   0.236   0.000  0.00  0.00    +0.000 A 
ATOM     13  C   UNL     1      -8.084   1.056   0.000  0.00  0.00    +0.000 A 
ATOM     14  C   UNL     1      -7.330   1.392   0.000  0.00  0.00    +0.000 A 
ATOM     15  C   UNL     1      -6.663   0.907   0.000  0.00  0.00    +0.000 A 
ATOM     16  C   UNL     1      -6.749   0.087   0.000  0.00  0.00    +0.000 A 
ATOM     17  C   UNL     1      -7.503  -0.249   0.000  0.00  0.00    +0.000 A 
ENDBRANCH   9  15
ENDBRANCH   4  10
ENDBRANCH   1   7
BRANCH   1  18
ATOM     18  N   UNL     1      -1.460   1.710   0.000  0.00  0.00    +0.000 NA
BRANCH  18  19
ATOM     19  C   UNL     1      -1.205   0.926   0.000  0.00  0.00    +0.000 C 
BRANCH  19  20
ATOM     20  C   UNL     1      -1.758   0.313   0.000  0.00  0.00    +0.000 C 
ATOM     21  O   UNL     1      -1.502  -0.472   0.000  0.00  0.00    +0.000 OA
ATOM     22  O   UNL     1      -2.564   0.484   0.000  0.00  0.00    +0.000 OA
ENDBRANCH  19  20
BRANCH  19  23
ATOM     23  C   UNL     1      -0.398   0.754   0.000  0.00  0.00    +0.000 C 
BRANCH  23  24
ATOM     24  C   UNL     1      -0.143  -0.030   0.000  0.00  0.00    +0.000 A 
ATOM     25  C   UNL     1      -0.628  -0.698   0.000  0.00  0.00    +0.000 A 
ATOM     26  N   UNL     1      -0.143  -1.365   0.000  0.00  0.00    +0.000 NA
ATOM     27  C   UNL     1       0.641  -1.110   0.000  0.00  0.00    +0.000 A 
ATOM     28  C   UNL     1       0.641  -0.285   0.000  0.00  0.00    +0.000 A 
ATOM     29  C   UNL     1       1.356   0.127   0.000  0.00  0.00    +0.000 A 
ATOM     30  C   UNL     1       2.070  -0.285   0.000  0.00  0.00    +0.000 A 
ATOM     31  C   UNL     1       2.070  -1.110   0.000  0.00  0.00    +0.000 A 
ATOM     32  C   UNL     1       1.356  -1.523   0.000  0.00  0.00    +0.000 A 
ENDBRANCH  23  24
ENDBRANCH  19  23
ENDBRANCH  18  19
ENDBRANCH   1  18
TORSDOF 8
