REMARK  Name = 
REMARK  9 active torsions:
REMARK  status: ('A' for Active; 'I' for Inactive)
REMARK    1  A    between atoms: C_2  and  N_3
REMARK    2  A    between atoms: N_3  and  C_5
REMARK    3  A    between atoms: N_3  and  C_7
REMARK    4  A    between atoms: C_7  and  C_8
REMARK    5  A    between atoms: C_8  and  S_9
REMARK    6  A    between atoms: S_9  and  C_10
REMARK    7  A    between atoms: C_19  and  C_21
REMARK    8  A    between atoms: C_24  and  S_27
REMARK    9  A    between atoms: S_27  and  C_28
REMARK                            x       y       z     vdW  Elec       q    Type
REMARK                         _______ _______ _______ _____ _____    ______ ____
ROOT
ATOM      1  C   UNL     1      -0.174  -1.224   0.000  0.00  0.00    +0.000 C 
ATOM      2  N   UNL     1      -0.979  -1.407   0.000  0.00  0.00    +0.000 NA
ATOM      3  C   UNL     1      -1.624  -0.893   0.000  0.00  0.00    +0.000 A 
ATOM      4  C   UNL     1      -2.338  -1.305   0.000  0.00  0.00    +0.000 A 
ATOM      5  C   UNL     1      -3.053  -0.893   0.000  0.00  0.00    +0.000 A 
ATOM      6  C   UNL     1      -3.053  -0.068   0.000  0.00  0.00    +0.000 A 
ATOM      7  C   UNL     1      -2.338   0.345   0.000  0.00  0.00    +0.000 A 
ATOM      8  C   UNL     1      -1.624  -0.068   0.000  0.00  0.00    +0.000 A 
ATOM      9  N   UNL     1      -0.979   0.447   0.000  0.00  0.00    +0.000 NA
ATOM     10  C   UNL     1      -0.174   0.263   0.000  0.00  0.00    +0.000 C 
ATOM     11  C   UNL     1       0.183  -0.480   0.000  0.00  0.00    +0.000 C 
ENDROOT
BRANCH  10  12
ATOM     12  C   UNL     1       0.340   0.908   0.000  0.00  0.00    +0.000 A 
ATOM     13  C   UNL     1       0.039   1.676   0.000  0.00  0.00    +0.000 A 
ATOM     14  C   UNL     1       0.553   2.321   0.000  0.00  0.00    +0.000 A 
ATOM     15  C   UNL     1       1.369   2.198   0.000  0.00  0.00    +0.000 A 
ATOM     16  C   UNL     1       1.670   1.430   0.000  0.00  0.00    +0.000 A 
ATOM     17  C   UNL     1       1.156   0.785   0.000  0.00  0.00    +0.000 A 
BRANCH  15  18
ATOM     18  S   UNL     1       1.883   2.843   0.000  0.00  0.00    +0.000 S 
BRANCH  18  19
ATOM     19  C   UNL     1       1.582   3.611   0.000  0.00  0.00    +0.000 A 
ATOM     20  C   UNL     1       0.766   3.734   0.000  0.00  0.00    +0.000 A 
ATOM     21  C   UNL     1       0.465   4.502   0.000  0.00  0.00    +0.000 A 
ATOM     22  C   UNL     1       0.979   5.147   0.000  0.00  0.00    +0.000 A 
ATOM     23  C   UNL     1       1.795   5.024   0.000  0.00  0.00    +0.000 A 
ATOM     24  C   UNL     1       2.096   4.256   0.000  0.00  0.00    +0.000 A 
ENDBRANCH  18  19
ENDBRANCH  15  18
ENDBRANCH  10  12
BRANCH   1  25
ATOM     25  S   UNL     1       0.340  -1.869   0.000  0.00  0.00    +0.000 S 
BRANCH  25  26
ATOM     26  C   UNL     1       0.039  -2.637   0.000  0.00  0.00    +0.000 C 
BRANCH  26  27
ATOM     27  C   UNL     1       0.553  -3.282   0.000  0.00  0.00    +0.000 C 
BRANCH  27  28
ATOM     28  N   UNL     1       0.252  -4.050   0.000  0.00  0.00    +0.000 N 
ATOM     29  C   UNL     1       1.020  -4.351   0.000  0.00  0.00    +0.000 C 
BRANCH  28  31
ATOM     30  C   UNL     1       0.465  -5.463   0.000  0.00  0.00    +0.000 C 
ATOM     31  C   UNL     1      -0.050  -4.818   0.000  0.00  0.00    +0.000 C 
ENDBRANCH  28  31
BRANCH  28  32
ATOM     32  C   UNL     1      -0.516  -3.748   0.000  0.00  0.00    +0.000 C 
ATOM     33  C   UNL     1      -0.639  -2.933   0.000  0.00  0.00    +0.000 C 
ENDBRANCH  28  32
ENDBRANCH  27  28
ENDBRANCH  26  27
ENDBRANCH  25  26
ENDBRANCH   1  25
TORSDOF 9
REMARK  Name = 
REMARK  9 active torsions:
REMARK  status: ('A' for Active; 'I' for Inactive)
REMARK    1  A    between atoms: C_2  and  N_3
REMARK    2  A    between atoms: N_3  and  C_5
REMARK    3  A    between atoms: N_3  and  C_7
REMARK    4  A    between atoms: C_7  and  C_8
REMARK    5  A    between atoms: C_8  and  S_9
REMARK    6  A    between atoms: S_9  and  C_10
REMARK    7  A    between atoms: C_19  and  C_21
REMARK    8  A    between atoms: C_24  and  S_27
REMARK    9  A    between atoms: S_27  and  C_28
REMARK                            x       y       z     vdW  Elec       q    Type
REMARK                         _______ _______ _______ _____ _____    ______ ____
ROOT
ATOM      1  I   UNL     1       4.335   0.000   0.000  0.00  0.00    +0.000 I 
ENDROOT
TORSDOF 0
