REMARK  Name = 
REMARK  6 active torsions:
REMARK  status: ('A' for Active; 'I' for Inactive)
REMARK    1  A    between atoms: C_2  and  C_9
REMARK    2  A    between atoms: C_3  and  C_7
REMARK    3  A    between atoms: N_5  and  C_6
REMARK    4  A    between atoms: C_7  and  C_8
REMARK    5  A    between atoms: C_8  and  C_17
REMARK    6  A    between atoms: C_23  and  O_26
REMARK                            x       y       z     vdW  Elec       q    Type
REMARK                         _______ _______ _______ _____ _____    ______ ____
ROOT
ATOM      1  C   UNL     1      -0.349   1.415   0.000  0.00  0.00    +0.000 A 
ATOM      2  C   UNL     1      -0.585   0.619   0.000  0.00  0.00    +0.000 A 
ATOM      3  C   UNL     1       0.474   1.438   0.000  0.00  0.00    +0.000 A 
ATOM      4  N   UNL     1       0.751   0.662   0.000  0.00  0.00    +0.000 NA
ATOM      5  N   UNL     1       0.099   0.160   0.000  0.00  0.00    +0.000 N 
ENDROOT
BRANCH   2   6
ATOM      6  C   UNL     1      -1.299   0.206   0.000  0.00  0.00    +0.000 A 
ATOM      7  C   UNL     1      -2.014   0.619   0.000  0.00  0.00    +0.000 A 
ATOM      8  C   UNL     1      -1.299  -0.619   0.000  0.00  0.00    +0.000 A 
ATOM      9  C   UNL     1      -2.013  -1.031   0.000  0.00  0.00    +0.000 A 
ATOM     10  C   UNL     1      -2.728  -0.619   0.000  0.00  0.00    +0.000 A 
ATOM     11  C   UNL     1      -2.728   0.206   0.000  0.00  0.00    +0.000 A 
ATOM     12 CL   UNL     1      -3.423  -1.021   0.000  0.00  0.00    +0.000 Cl
ENDBRANCH   2   6
BRANCH   5  13
ATOM     13  C   UNL     1       0.081  -0.665   0.000  0.00  0.00    +0.000 A 
ATOM     14  C   UNL     1      -0.633  -1.078   0.000  0.00  0.00    +0.000 A 
ATOM     15  C   UNL     1      -0.633  -1.903   0.000  0.00  0.00    +0.000 A 
ATOM     16  C   UNL     1       0.081  -2.315   0.000  0.00  0.00    +0.000 A 
ATOM     17  C   UNL     1       0.795  -1.903   0.000  0.00  0.00    +0.000 A 
ATOM     18  C   UNL     1       0.795  -1.078   0.000  0.00  0.00    +0.000 A 
BRANCH  16  19
ATOM     19  O   UNL     1       0.081  -3.140   0.000  0.00  0.00    +0.000 OA
ATOM     20  C   UNL     1       0.795  -3.553   0.000  0.00  0.00    +0.000 C 
ENDBRANCH  16  19
ENDBRANCH   5  13
BRANCH   3  21
ATOM     21  C   UNL     1       0.938   2.116   0.000  0.00  0.00    +0.000 C 
BRANCH  21  22
ATOM     22  C   UNL     1       1.761   2.135   0.000  0.00  0.00    +0.000 C 
BRANCH  22  24
ATOM     23  C   UNL     1       3.378   2.059   0.000  0.00  0.00    +0.000 C 
ATOM     24  C   UNL     1       2.194   2.843   0.000  0.00  0.00    +0.000 C 
ATOM     25  N   UNL     1       3.018   2.843   0.000  0.00  0.00    +0.000 N 
ATOM     26  O   UNL     1       1.797   3.553   0.000  0.00  0.00    +0.000 OA
ATOM     27  O   UNL     1       3.423   3.546   0.000  0.00  0.00    +0.000 OA
ENDBRANCH  22  24
ENDBRANCH  21  22
ENDBRANCH   3  21
TORSDOF 6
