REMARK  Name = 
REMARK  3 active torsions:
REMARK  status: ('A' for Active; 'I' for Inactive)
REMARK    1  A    between atoms: N_8  and  C_9
REMARK    2  A    between atoms: C_9  and  C_10
REMARK    3  A    between atoms: C_10  and  C_11
REMARK                            x       y       z     vdW  Elec       q    Type
REMARK                         _______ _______ _______ _____ _____    ______ ____
ROOT
ATOM      1  O   UNL     1       2.037   2.001   0.000  0.00  0.00    +0.000 OA
ATOM      2  C   UNL     1       2.751   2.413   0.000  0.00  0.00    +0.000 C 
ATOM      3  C   UNL     1       2.751   3.238   0.000  0.00  0.00    +0.000 C 
ATOM      4  C   UNL     1       3.466   3.651   0.000  0.00  0.00    +0.000 C 
ATOM      5  C   UNL     1       4.180   3.238   0.000  0.00  0.00    +0.000 C 
ATOM      6  C   UNL     1       4.180   2.413   0.000  0.00  0.00    +0.000 C 
ATOM      7  O   UNL     1       4.895   2.001   0.000  0.00  0.00    +0.000 OA
ATOM      8  N   UNL     1       3.466   2.001   0.000  0.00  0.00    +0.000 N 
ENDROOT
BRANCH   8   9
ATOM      9  C   UNL     1       3.466   1.176   0.000  0.00  0.00    +0.000 C 
BRANCH   9  10
ATOM     10  C   UNL     1       4.180   0.763   0.000  0.00  0.00    +0.000 C 
BRANCH  10  11
ATOM     11  C   UNL     1       4.180  -0.062   0.000  0.00  0.00    +0.000 A 
ATOM     12  C   UNL     1       4.848  -0.546   0.000  0.00  0.00    +0.000 A 
ATOM     13  N   UNL     1       4.593  -1.331   0.000  0.00  0.00    +0.000 NA
ATOM     14  C   UNL     1       3.768  -1.331   0.000  0.00  0.00    +0.000 A 
ATOM     15  N   UNL     1       3.513  -0.546   0.000  0.00  0.00    +0.000 NA
ENDBRANCH  10  11
ENDBRANCH   9  10
ENDBRANCH   8   9
TORSDOF 3
