REMARK  Name = 
REMARK  0 active torsions:
REMARK  status: ('A' for Active; 'I' for Inactive)
REMARK                            x       y       z     vdW  Elec       q    Type
REMARK                         _______ _______ _______ _____ _____    ______ ____
ROOT
ATOM      1 LA   UNL     1      -0.550  -1.429   0.000  0.00  0.00    +0.000 La
ENDROOT
TORSDOF 0
REMARK  Name = 
REMARK  0 active torsions:
REMARK  status: ('A' for Active; 'I' for Inactive)
REMARK                            x       y       z     vdW  Elec       q    Type
REMARK                         _______ _______ _______ _____ _____    ______ ____
ROOT
ATOM      1 LA   UNL     1      -0.550   1.429   0.000  0.00  0.00    +0.000 La
ENDROOT
TORSDOF 0
REMARK  Name = 
REMARK  0 active torsions:
REMARK  status: ('A' for Active; 'I' for Inactive)
REMARK                            x       y       z     vdW  Elec       q    Type
REMARK                         _______ _______ _______ _____ _____    ______ ____
ROOT
ATOM      1  O   UNL     1      -0.138  -0.715   0.000  0.00  0.00    +0.000 OA
ATOM      2  O   UNL     1      -0.138   0.715   0.000  0.00  0.00    +0.000 OA
ATOM      3  O   UNL     1       1.100   0.000   0.000  0.00  0.00    +0.000 OA
ATOM      4  C   UNL     1       0.275   0.000   0.000  0.00  0.00    +0.000 C 
ENDROOT
TORSDOF 0
REMARK  Name = 
REMARK  0 active torsions:
REMARK  status: ('A' for Active; 'I' for Inactive)
REMARK                            x       y       z     vdW  Elec       q    Type
REMARK                         _______ _______ _______ _____ _____    ______ ____
ROOT
ATOM      1  O   UNL     1       3.339  -0.715   0.000  0.00  0.00    +0.000 OA
ATOM      2  O   UNL     1       3.339   0.715   0.000  0.00  0.00    +0.000 OA
ATOM      3  O   UNL     1       4.577   0.000   0.000  0.00  0.00    +0.000 OA
ATOM      4  C   UNL     1       3.752   0.000   0.000  0.00  0.00    +0.000 C 
ENDROOT
TORSDOF 0
REMARK  Name = 
REMARK  0 active torsions:
REMARK  status: ('A' for Active; 'I' for Inactive)
REMARK                            x       y       z     vdW  Elec       q    Type
REMARK                         _______ _______ _______ _____ _____    ______ ____
ROOT
ATOM      1  O   UNL     1      -0.412  -4.508   0.000  0.00  0.00    +0.000 OA
ATOM      2  O   UNL     1      -0.412  -3.079   0.000  0.00  0.00    +0.000 OA
ATOM      3  O   UNL     1       0.825  -3.794   0.000  0.00  0.00    +0.000 OA
ATOM      4  C   UNL     1       0.000  -3.794   0.000  0.00  0.00    +0.000 C 
ENDROOT
TORSDOF 0
