REMARK  Name = 
REMARK  7 active torsions:
REMARK  status: ('A' for Active; 'I' for Inactive)
REMARK    1  A    between atoms: C_8  and  C_10
REMARK    2  A    between atoms: C_10  and  N_11
REMARK    3  A    between atoms: N_11  and  C_12
REMARK    4  A    between atoms: N_11  and  C_17
REMARK    5  A    between atoms: C_12  and  C_13
REMARK    6  A    between atoms: C_13  and  C_14
REMARK    7  A    between atoms: C_14  and  C_15
REMARK                            x       y       z     vdW  Elec       q    Type
REMARK                         _______ _______ _______ _____ _____    ______ ____
ROOT
ATOM      1  N   UNL     1      -1.429   0.000   0.000  0.00  0.00    +0.000 NA
ENDROOT
BRANCH   1   2
ATOM      2  C   UNL     1      -1.429  -0.825   0.000  0.00  0.00    +0.000 C 
ATOM      3  C   UNL     1      -2.143  -1.238   0.000  0.00  0.00    +0.000 C 
ATOM      4  C   UNL     1      -2.143  -2.062   0.000  0.00  0.00    +0.000 C 
ATOM      5  C   UNL     1      -1.429  -2.475   0.000  0.00  0.00    +0.000 C 
ATOM      6  C   UNL     1      -0.715  -2.062   0.000  0.00  0.00    +0.000 A 
ATOM      7  C   UNL     1      -0.715  -1.238   0.000  0.00  0.00    +0.000 A 
ATOM      8  N   UNL     1       0.000  -0.825   0.000  0.00  0.00    +0.000 NA
ATOM      9  C   UNL     1       0.715  -1.238   0.000  0.00  0.00    +0.000 A 
ATOM     10  C   UNL     1       0.715  -2.062   0.000  0.00  0.00    +0.000 A 
ATOM     11  C   UNL     1       0.000  -2.475   0.000  0.00  0.00    +0.000 A 
ENDBRANCH   1   2
BRANCH   1  12
ATOM     12  C   UNL     1      -0.715   0.412   0.000  0.00  0.00    +0.000 C 
BRANCH  12  13
ATOM     13  C   UNL     1       0.000   0.000   0.000  0.00  0.00    +0.000 C 
BRANCH  13  14
ATOM     14  C   UNL     1       0.715   0.412   0.000  0.00  0.00    +0.000 C 
BRANCH  14  15
ATOM     15  C   UNL     1       1.429   0.000   0.000  0.00  0.00    +0.000 C 
ATOM     16  N   UNL     1       2.143   0.412   0.000  0.00  0.00    +0.000 NA
ENDBRANCH  14  15
ENDBRANCH  13  14
ENDBRANCH  12  13
ENDBRANCH   1  12
BRANCH   1  17
ATOM     17  C   UNL     1      -2.143   0.412   0.000  0.00  0.00    +0.000 C 
BRANCH  17  25
ATOM     18  C   UNL     1      -4.989  -1.706   0.000  0.00  0.00    +0.000 A 
ATOM     19  C   UNL     1      -5.401  -0.992   0.000  0.00  0.00    +0.000 A 
ATOM     20  C   UNL     1      -4.989  -0.278   0.000  0.00  0.00    +0.000 A 
ATOM     21  C   UNL     1      -4.164  -0.278   0.000  0.00  0.00    +0.000 A 
ATOM     22  C   UNL     1      -3.751  -0.992   0.000  0.00  0.00    +0.000 A 
ATOM     23  C   UNL     1      -4.164  -1.706   0.000  0.00  0.00    +0.000 A 
ATOM     24  N   UNL     1      -2.944  -0.821   0.000  0.00  0.00    +0.000 NA
ATOM     25  C   UNL     1      -2.858   0.000   0.000  0.00  0.00    +0.000 A 
ATOM     26  N   UNL     1      -3.612   0.336   0.000  0.00  0.00    +0.000 NA
ENDBRANCH  17  25
ENDBRANCH   1  17
TORSDOF 7
