REMARK  Name = 
REMARK  8 active torsions:
REMARK  status: ('A' for Active; 'I' for Inactive)
REMARK    1  A    between atoms: C_9  and  C_10
REMARK    2  A    between atoms: C_9  and  N_20
REMARK    3  A    between atoms: C_11  and  C_12
REMARK    4  A    between atoms: C_11  and  N_20
REMARK    5  A    between atoms: C_13  and  N_21
REMARK    6  A    between atoms: C_14  and  O_26
REMARK    7  A    between atoms: C_15  and  O_26
REMARK    8  A    between atoms: C_16  and  C_17
REMARK                            x       y       z     vdW  Elec       q    Type
REMARK                         _______ _______ _______ _____ _____    ______ ____
ROOT
ATOM      1  C   UNL     1       6.430   2.888   0.000  0.00  0.00    +0.000 A 
ATOM      2  C   UNL     1       5.716   1.650   0.000  0.00  0.00    +0.000 A 
ATOM      3  C   UNL     1       5.716   3.300   0.000  0.00  0.00    +0.000 A 
ATOM      4  C   UNL     1       5.001   2.062   0.000  0.00  0.00    +0.000 A 
ATOM      5  C   UNL     1       6.430   2.062   0.000  0.00  0.00    +0.000 A 
ATOM      6  C   UNL     1       5.001   2.888   0.000  0.00  0.00    +0.000 A 
ENDROOT
BRANCH   5   7
ATOM      7  C   UNL     1       7.145   1.650   0.000  0.00  0.00    +0.000 C 
BRANCH   7   9
ATOM      8  C   UNL     1       7.859   0.412   0.000  0.00  0.00    +0.000 C 
ATOM      9  N   UNL     1       7.145   0.825   0.000  0.00  0.00    +0.000 N 
ATOM     10  O   UNL     1       8.574   0.825   0.000  0.00  0.00    +0.000 OA
BRANCH   8  11
ATOM     11  C   UNL     1       7.859  -0.412   0.000  0.00  0.00    +0.000 C 
ATOM     12 CL   UNL     1       8.574  -0.825   0.000  0.00  0.00    +0.000 Cl
ATOM     13 CL   UNL     1       7.145  -0.825   0.000  0.00  0.00    +0.000 Cl
ENDBRANCH   8  11
BRANCH   9  14
ATOM     14  C   UNL     1       6.430   0.412   0.000  0.00  0.00    +0.000 C 
BRANCH  14  15
ATOM     15  C   UNL     1       6.430  -0.412   0.000  0.00  0.00    +0.000 C 
ATOM     16  O   UNL     1       5.716  -0.825   0.000  0.00  0.00    +0.000 OA
ENDBRANCH  14  15
ENDBRANCH   9  14
ENDBRANCH   7   9
ENDBRANCH   5   7
BRANCH   6  17
ATOM     17  O   UNL     1       4.287   3.300   0.000  0.00  0.00    +0.000 OA
BRANCH  17  23
ATOM     18  C   UNL     1       3.572   5.362   0.000  0.00  0.00    +0.000 A 
ATOM     19  C   UNL     1       5.001   5.362   0.000  0.00  0.00    +0.000 A 
ATOM     20  C   UNL     1       3.572   4.537   0.000  0.00  0.00    +0.000 A 
ATOM     21  C   UNL     1       5.001   4.537   0.000  0.00  0.00    +0.000 A 
ATOM     22  C   UNL     1       4.287   5.775   0.000  0.00  0.00    +0.000 A 
ATOM     23  C   UNL     1       4.287   4.125   0.000  0.00  0.00    +0.000 A 
BRANCH  22  24
ATOM     24  N   UNL     1       4.287   6.600   0.000  0.00  0.00    +0.000 N 
ATOM     25  O   UNL     1       3.572   7.013   0.000  0.00  0.00    +0.000 OA
ATOM     26  O   UNL     1       5.001   7.013   0.000  0.00  0.00    +0.000 OA
ENDBRANCH  22  24
ENDBRANCH  17  23
ENDBRANCH   6  17
TORSDOF 8
