REMARK  Name = 
REMARK  1 active torsions:
REMARK  status: ('A' for Active; 'I' for Inactive)
REMARK    1  A    between atoms: N_7  and  C_15
REMARK                            x       y       z     vdW  Elec       q    Type
REMARK                         _______ _______ _______ _____ _____    ______ ____
ROOT
ATOM      1  C   UNL     1      -1.072   0.412   0.000  0.00  0.00    +0.000 A 
ATOM      2  C   UNL     1      -1.072  -0.412   0.000  0.00  0.00    +0.000 A 
ATOM      3  C   UNL     1      -1.786   0.825   0.000  0.00  0.00    +0.000 A 
ATOM      4  C   UNL     1      -1.786  -0.825   0.000  0.00  0.00    +0.000 A 
ATOM      5  C   UNL     1      -2.501   0.412   0.000  0.00  0.00    +0.000 A 
ATOM      6  C   UNL     1      -2.501  -0.412   0.000  0.00  0.00    +0.000 A 
ATOM      7  N   UNL     1       0.357   0.412   0.000  0.00  0.00    +0.000 N 
ATOM      8  C   UNL     1       0.357  -0.412   0.000  0.00  0.00    +0.000 C 
ATOM      9  C   UNL     1      -0.357   0.825   0.000  0.00  0.00    +0.000 C 
ATOM     10  C   UNL     1      -0.357  -0.825   0.000  0.00  0.00    +0.000 C 
ATOM     11  C   UNL     1      -0.357  -1.650   0.000  0.00  0.00    +0.000 C 
ATOM     12  C   UNL     1      -1.072  -2.062   0.000  0.00  0.00    +0.000 C 
ATOM     13  C   UNL     1      -1.786  -1.650   0.000  0.00  0.00    +0.000 C 
ATOM     14  O   UNL     1      -0.357   1.650   0.000  0.00  0.00    +0.000 OA
ENDROOT
BRANCH   7  15
ATOM     15  C   UNL     1       1.072   0.825   0.000  0.00  0.00    +0.000 C 
ATOM     16  C   UNL     1       1.072   1.650   0.000  0.00  0.00    +0.000 C 
ATOM     17  C   UNL     1       1.786   0.412   0.000  0.00  0.00    +0.000 C 
ATOM     18  N   UNL     1       1.786   2.062   0.000  0.00  0.00    +0.000 NA
ATOM     19  C   UNL     1       2.501   0.825   0.000  0.00  0.00    +0.000 C 
ATOM     20  C   UNL     1       2.501   1.650   0.000  0.00  0.00    +0.000 C 
ATOM     21  C   UNL     1       1.508   1.097   0.000  0.00  0.00    +0.000 C 
ATOM     22  C   UNL     1       2.096   1.311   0.000  0.00  0.00    +0.000 C 
ENDBRANCH   7  15
TORSDOF 1
