REMARK  Name = 
REMARK  2 active torsions:
REMARK  status: ('A' for Active; 'I' for Inactive)
REMARK    1  A    between atoms: C_7  and  C_9
REMARK    2  A    between atoms: C_15  and  C_16
REMARK                            x       y       z     vdW  Elec       q    Type
REMARK                         _______ _______ _______ _____ _____    ______ ____
ROOT
ATOM      1  C   UNL     1       1.429  -1.650   0.000  0.00  0.00    +0.000 A 
ATOM      2  N   UNL     1       1.429  -2.475   0.000  0.00  0.00    +0.000 NA
ATOM      3  N   UNL     1       0.715  -2.888   0.000  0.00  0.00    +0.000 NA
ATOM      4  C   UNL     1       0.000  -2.475   0.000  0.00  0.00    +0.000 A 
ATOM      5  N   UNL     1      -0.715  -2.888   0.000  0.00  0.00    +0.000 NA
ATOM      6  N   UNL     1       0.000  -1.650   0.000  0.00  0.00    +0.000 NA
ATOM      7  C   UNL     1       0.715  -1.238   0.000  0.00  0.00    +0.000 A 
ENDROOT
BRANCH   1  14
ATOM      8  C   UNL     1       2.858   0.825   0.000  0.00  0.00    +0.000 C 
ATOM      9  C   UNL     1       2.858   0.000   0.000  0.00  0.00    +0.000 A 
ATOM     10  N   UNL     1       3.572  -0.412   0.000  0.00  0.00    +0.000 NA
ATOM     11  C   UNL     1       3.572  -1.238   0.000  0.00  0.00    +0.000 A 
ATOM     12 CL   UNL     1       4.287  -1.650   0.000  0.00  0.00    +0.000 Cl
ATOM     13  C   UNL     1       2.858  -1.650   0.000  0.00  0.00    +0.000 A 
ATOM     14  C   UNL     1       2.143  -1.238   0.000  0.00  0.00    +0.000 A 
ATOM     15  C   UNL     1       2.143  -0.412   0.000  0.00  0.00    +0.000 A 
ENDBRANCH   1  14
BRANCH   7  16
ATOM     16  C   UNL     1       0.715  -0.412   0.000  0.00  0.00    +0.000 A 
ATOM     17  C   UNL     1       0.000   0.000   0.000  0.00  0.00    +0.000 A 
ATOM     18  C   UNL     1       0.000   0.825   0.000  0.00  0.00    +0.000 A 
ATOM     19  C   UNL     1       0.715   1.238   0.000  0.00  0.00    +0.000 A 
ATOM     20  F   UNL     1       0.715   2.062   0.000  0.00  0.00    +0.000 F 
ATOM     21  C   UNL     1       1.429   0.825   0.000  0.00  0.00    +0.000 A 
ATOM     22  C   UNL     1       1.429   0.000   0.000  0.00  0.00    +0.000 A 
ENDBRANCH   7  16
TORSDOF 2
