REMARK  Name = 
REMARK  6 active torsions:
REMARK  status: ('A' for Active; 'I' for Inactive)
REMARK    1  A    between atoms: C_11  and  C_13
REMARK    2  A    between atoms: C_11  and  N_22
REMARK    3  A    between atoms: C_12  and  C_14
REMARK    4  A    between atoms: C_12  and  N_22
REMARK    5  A    between atoms: C_15  and  N_22
REMARK    6  A    between atoms: C_17  and  C_21
REMARK                            x       y       z     vdW  Elec       q    Type
REMARK                         _______ _______ _______ _____ _____    ______ ____
ROOT
ATOM      1  N   UNL     1       0.357   0.206   0.000  0.00  0.00    +0.000 N 
ENDROOT
BRANCH   1   5
ATOM      2  C   UNL     1       1.072  -1.031   0.000  0.00  0.00    +0.000 A 
ATOM      3  C   UNL     1       1.072  -1.856   0.000  0.00  0.00    +0.000 A 
ATOM      4  C   UNL     1      -0.357  -1.031   0.000  0.00  0.00    +0.000 A 
ATOM      5  C   UNL     1       0.357  -0.619   0.000  0.00  0.00    +0.000 A 
ATOM      6  C   UNL     1      -0.357  -1.856   0.000  0.00  0.00    +0.000 A 
ATOM      7  C   UNL     1       0.357  -2.269   0.000  0.00  0.00    +0.000 A 
ATOM      8  O   UNL     1       0.357  -3.094   0.000  0.00  0.00    +0.000 OA
BRANCH   6   9
ATOM      9  C   UNL     1      -1.072  -2.269   0.000  0.00  0.00    +0.000 C 
ATOM     10  O   UNL     1      -1.786  -1.856   0.000  0.00  0.00    +0.000 OA
ATOM     11  O   UNL     1      -1.072  -3.094   0.000  0.00  0.00    +0.000 OA
ENDBRANCH   6   9
ENDBRANCH   1   5
BRANCH   1  12
ATOM     12  C   UNL     1       1.072   0.619   0.000  0.00  0.00    +0.000 C 
BRANCH  12  16
ATOM     13  C   UNL     1       1.072   3.094   0.000  0.00  0.00    +0.000 A 
ATOM     14  C   UNL     1       0.357   2.681   0.000  0.00  0.00    +0.000 A 
ATOM     15  C   UNL     1       1.786   1.856   0.000  0.00  0.00    +0.000 A 
ATOM     16  C   UNL     1       1.072   1.444   0.000  0.00  0.00    +0.000 A 
ATOM     17  C   UNL     1       1.786   2.681   0.000  0.00  0.00    +0.000 A 
ATOM     18  C   UNL     1       0.357   1.856   0.000  0.00  0.00    +0.000 A 
ATOM     19  O   UNL     1       2.501   3.094   0.000  0.00  0.00    +0.000 OA
ATOM     20  O   UNL     1      -0.357   1.444   0.000  0.00  0.00    +0.000 OA
ENDBRANCH  12  16
ENDBRANCH   1  12
BRANCH   1  21
ATOM     21  C   UNL     1      -0.357   0.619   0.000  0.00  0.00    +0.000 C 
BRANCH  21  26
ATOM     22  C   UNL     1      -1.786  -1.031   0.000  0.00  0.00    +0.000 A 
ATOM     23  C   UNL     1      -2.501  -0.619   0.000  0.00  0.00    +0.000 A 
ATOM     24  C   UNL     1      -1.072  -0.619   0.000  0.00  0.00    +0.000 A 
ATOM     25  C   UNL     1      -2.501   0.206   0.000  0.00  0.00    +0.000 A 
ATOM     26  C   UNL     1      -1.072   0.206   0.000  0.00  0.00    +0.000 A 
ATOM     27  C   UNL     1      -1.786   0.619   0.000  0.00  0.00    +0.000 A 
ATOM     28  O   UNL     1      -1.786   1.444   0.000  0.00  0.00    +0.000 OA
ENDBRANCH  21  26
ENDBRANCH   1  21
TORSDOF 6
