REMARK  Name = 
REMARK  7 active torsions:
REMARK  status: ('A' for Active; 'I' for Inactive)
REMARK    1  A    between atoms: C_2  and  C_3
REMARK    2  A    between atoms: C_3  and  N_4
REMARK    3  A    between atoms: N_4  and  C_5
REMARK    4  A    between atoms: C_5  and  C_6
REMARK    5  A    between atoms: C_6  and  O_7
REMARK    6  A    between atoms: O_7  and  C_8
REMARK    7  A    between atoms: C_10  and  S_15
REMARK                            x       y       z     vdW  Elec       q    Type
REMARK                         _______ _______ _______ _____ _____    ______ ____
ROOT
ATOM      1  C   UNL     1       5.716  -4.125   0.000  0.00  0.00    +0.000 A 
ATOM      2  C   UNL     1       6.430  -3.712   0.000  0.00  0.00    +0.000 A 
ATOM      3  C   UNL     1       7.145  -4.125   0.000  0.00  0.00    +0.000 A 
ATOM      4  C   UNL     1       7.145  -4.950   0.000  0.00  0.00    +0.000 A 
ATOM      5  C   UNL     1       6.430  -5.362   0.000  0.00  0.00    +0.000 A 
ATOM      6  F   UNL     1       6.430  -6.188   0.000  0.00  0.00    +0.000 F 
ATOM      7  C   UNL     1       5.716  -4.950   0.000  0.00  0.00    +0.000 A 
ENDROOT
BRANCH   3   8
ATOM      8  S   UNL     1       7.859  -3.712   0.000  0.00  0.00    +0.000 S 
ATOM      9  C   UNL     1       8.574  -3.300   0.000  0.00  0.00    +0.000 C 
ATOM     10  O   UNL     1       8.272  -4.427   0.000  0.00  0.00    +0.000 OA
ATOM     11  O   UNL     1       7.447  -2.998   0.000  0.00  0.00    +0.000 OA
ENDBRANCH   3   8
BRANCH   1  12
ATOM     12  O   UNL     1       5.001  -3.712   0.000  0.00  0.00    +0.000 OA
BRANCH  12  13
ATOM     13  C   UNL     1       4.287  -4.125   0.000  0.00  0.00    +0.000 C 
BRANCH  13  14
ATOM     14  C   UNL     1       3.572  -3.712   0.000  0.00  0.00    +0.000 C 
BRANCH  14  15
ATOM     15  N   UNL     1       2.858  -4.125   0.000  0.00  0.00    +0.000 NA
BRANCH  15  16
ATOM     16  C   UNL     1       2.143  -3.712   0.000  0.00  0.00    +0.000 C 
BRANCH  16  18
ATOM     17  C   UNL     1       0.715  -3.712   0.000  0.00  0.00    +0.000 C 
ATOM     18  C   UNL     1       1.429  -4.125   0.000  0.00  0.00    +0.000 C 
ENDBRANCH  16  18
ENDBRANCH  15  16
ENDBRANCH  14  15
ENDBRANCH  13  14
ENDBRANCH  12  13
ENDBRANCH   1  12
TORSDOF 7
