REMARK  Name = 
REMARK  12 active torsions:
REMARK  status: ('A' for Active; 'I' for Inactive)
REMARK    1  A    between atoms: C_2  and  C_25
REMARK    2  A    between atoms: C_5  and  C_7
REMARK    3  A    between atoms: C_11  and  O_14
REMARK    4  A    between atoms: O_14  and  C_15
REMARK    5  A    between atoms: C_15  and  C_16
REMARK    6  A    between atoms: C_16  and  O_17
REMARK    7  A    between atoms: O_17  and  C_18
REMARK    8  A    between atoms: C_18  and  C_19
REMARK    9  A    between atoms: C_19  and  O_20
REMARK   10  A    between atoms: O_20  and  C_21
REMARK   11  A    between atoms: C_21  and  C_22
REMARK   12  A    between atoms: C_22  and  O_23
REMARK                            x       y       z     vdW  Elec       q    Type
REMARK                         _______ _______ _______ _____ _____    ______ ____
ROOT
ATOM      1  C   UNL     1      -0.715   2.062   0.000  0.00  0.00    +0.000 A 
ATOM      2  C   UNL     1      -0.715   2.888   0.000  0.00  0.00    +0.000 A 
ATOM      3  C   UNL     1       0.000   3.300   0.000  0.00  0.00    +0.000 A 
ATOM      4  C   UNL     1       0.715   2.888   0.000  0.00  0.00    +0.000 A 
ATOM      5  C   UNL     1       0.715   2.062   0.000  0.00  0.00    +0.000 A 
ATOM      6  C   UNL     1       0.000   1.650   0.000  0.00  0.00    +0.000 A 
ATOM      7  O   UNL     1       0.000   0.825   0.000  0.00  0.00    +0.000 OA
ENDROOT
BRANCH   1  12
ATOM      8  C   UNL     1      -2.067  -0.127   0.000  0.00  0.00    +0.000 C 
ATOM      9  C   UNL     1      -2.322   0.658   0.000  0.00  0.00    +0.000 C 
ATOM     10  C   UNL     1      -2.735   1.373   0.000  0.00  0.00    +0.000 C 
ATOM     11  S   UNL     1      -2.183   1.986   0.000  0.00  0.00    +0.000 S 
ATOM     12  C   UNL     1      -1.429   1.650   0.000  0.00  0.00    +0.000 C 
ATOM     13  N   UNL     1      -1.515   0.830   0.000  0.00  0.00    +0.000 NA
BRANCH   9  14
ATOM     14  C   UNL     1      -3.076   0.322   0.000  0.00  0.00    +0.000 C 
ATOM     15  O   UNL     1      -3.162  -0.498   0.000  0.00  0.00    +0.000 OA
ATOM     16  O   UNL     1      -3.743   0.807   0.000  0.00  0.00    +0.000 OA
ENDBRANCH   9  14
ENDBRANCH   1  12
BRANCH   5  17
ATOM     17  O   UNL     1       1.429   1.650   0.000  0.00  0.00    +0.000 OA
BRANCH  17  18
ATOM     18  C   UNL     1       2.143   2.062   0.000  0.00  0.00    +0.000 C 
BRANCH  18  19
ATOM     19  C   UNL     1       2.858   1.650   0.000  0.00  0.00    +0.000 C 
BRANCH  19  20
ATOM     20  O   UNL     1       3.572   2.062   0.000  0.00  0.00    +0.000 OA
BRANCH  20  21
ATOM     21  C   UNL     1       4.287   1.650   0.000  0.00  0.00    +0.000 C 
BRANCH  21  22
ATOM     22  C   UNL     1       5.001   2.062   0.000  0.00  0.00    +0.000 C 
BRANCH  22  23
ATOM     23  O   UNL     1       5.716   1.650   0.000  0.00  0.00    +0.000 OA
BRANCH  23  24
ATOM     24  C   UNL     1       6.430   2.062   0.000  0.00  0.00    +0.000 C 
BRANCH  24  25
ATOM     25  C   UNL     1       7.145   1.650   0.000  0.00  0.00    +0.000 C 
BRANCH  25  26
ATOM     26  O   UNL     1       7.859   2.062   0.000  0.00  0.00    +0.000 OA
ATOM     27  C   UNL     1       8.574   1.650   0.000  0.00  0.00    +0.000 C 
ENDBRANCH  25  26
ENDBRANCH  24  25
ENDBRANCH  23  24
ENDBRANCH  22  23
ENDBRANCH  21  22
ENDBRANCH  20  21
ENDBRANCH  19  20
ENDBRANCH  18  19
ENDBRANCH  17  18
ENDBRANCH   5  17
TORSDOF 12
