REMARK  Name = 
REMARK  8 active torsions:
REMARK  status: ('A' for Active; 'I' for Inactive)
REMARK    1  A    between atoms: O_2  and  C_3
REMARK    2  A    between atoms: C_3  and  C_4
REMARK    3  A    between atoms: C_3  and  C_21
REMARK    4  A    between atoms: C_4  and  N_5
REMARK    5  A    between atoms: N_8  and  C_11
REMARK    6  A    between atoms: C_11  and  C_12
REMARK    7  A    between atoms: C_12  and  C_13
REMARK    8  A    between atoms: C_13  and  C_14
REMARK                            x       y       z     vdW  Elec       q    Type
REMARK                         _______ _______ _______ _____ _____    ______ ____
ROOT
ATOM      1  N   UNL     1       1.429  -2.475   0.000  0.00  0.00    +0.000 NA
ATOM      2  C   UNL     1       2.143  -2.888   0.000  0.00  0.00    +0.000 C 
ATOM      3  C   UNL     1       2.143  -3.712   0.000  0.00  0.00    +0.000 C 
ATOM      4  N   UNL     1       1.429  -4.125   0.000  0.00  0.00    +0.000 NA
ATOM      5  C   UNL     1       0.715  -3.712   0.000  0.00  0.00    +0.000 C 
ATOM      6  C   UNL     1       0.715  -2.888   0.000  0.00  0.00    +0.000 C 
ENDROOT
BRANCH   1   7
ATOM      7  C   UNL     1       1.429  -1.650   0.000  0.00  0.00    +0.000 C 
BRANCH   7   8
ATOM      8  C   UNL     1       0.715  -1.238   0.000  0.00  0.00    +0.000 C 
BRANCH   8   9
ATOM      9  C   UNL     1       0.715  -0.412   0.000  0.00  0.00    +0.000 A 
ATOM     10  C   UNL     1       0.000   0.000   0.000  0.00  0.00    +0.000 A 
ATOM     11  C   UNL     1       0.000   0.825   0.000  0.00  0.00    +0.000 A 
ATOM     12  C   UNL     1       0.715   1.238   0.000  0.00  0.00    +0.000 A 
ATOM     13  C   UNL     1       1.429   0.825   0.000  0.00  0.00    +0.000 A 
ATOM     14  C   UNL     1       1.429   0.000   0.000  0.00  0.00    +0.000 A 
ENDBRANCH   8   9
BRANCH   8  16
ATOM     15  C   UNL     1      -0.715  -1.238   0.000  0.00  0.00    +0.000 C 
ATOM     16  O   UNL     1       0.000  -1.650   0.000  0.00  0.00    +0.000 OA
ENDBRANCH   8  16
ENDBRANCH   7   8
ENDBRANCH   1   7
BRANCH   4  17
ATOM     17  C   UNL     1       1.429  -4.950   0.000  0.00  0.00    +0.000 C 
BRANCH  17  18
ATOM     18  C   UNL     1       0.715  -5.362   0.000  0.00  0.00    +0.000 C 
BRANCH  18  19
ATOM     19  C   UNL     1       0.715  -6.188   0.000  0.00  0.00    +0.000 C 
ATOM     20  O   UNL     1       1.429  -6.600   0.000  0.00  0.00    +0.000 OA
BRANCH  19  21
ATOM     21  C   UNL     1       0.000  -6.600   0.000  0.00  0.00    +0.000 A 
ATOM     22  C   UNL     1       0.000  -7.425   0.000  0.00  0.00    +0.000 A 
ATOM     23  C   UNL     1      -0.715  -7.838   0.000  0.00  0.00    +0.000 A 
ATOM     24  C   UNL     1      -1.429  -7.425   0.000  0.00  0.00    +0.000 A 
ATOM     25  C   UNL     1      -1.429  -6.600   0.000  0.00  0.00    +0.000 A 
ATOM     26  C   UNL     1      -0.715  -6.188   0.000  0.00  0.00    +0.000 A 
ENDBRANCH  19  21
ENDBRANCH  18  19
ENDBRANCH  17  18
ENDBRANCH   4  17
TORSDOF 8
