REMARK  Name = 
REMARK  7 active torsions:
REMARK  status: ('A' for Active; 'I' for Inactive)
REMARK    1  A    between atoms: C_2  and  C_3
REMARK    2  A    between atoms: C_12  and  O_33
REMARK    3  A    between atoms: C_14  and  O_20
REMARK    4  A    between atoms: O_20  and  C_21
REMARK    5  A    between atoms: C_23  and  O_30
REMARK    6  A    between atoms: O_33  and  C_34
REMARK    7  A    between atoms: C_36  and  N_41
REMARK                            x       y       z     vdW  Elec       q    Type
REMARK                         _______ _______ _______ _____ _____    ______ ____
ROOT
ATOM      1  C   UNL     1       0.000  -4.950   0.000  0.00  0.00    +0.000 C 
ATOM      2  C   UNL     1      -0.715  -5.362   0.000  0.00  0.00    +0.000 C 
ATOM      3  C   UNL     1      -1.429  -4.950   0.000  0.00  0.00    +0.000 C 
ATOM      4  C   UNL     1      -1.429  -4.125   0.000  0.00  0.00    +0.000 C 
ATOM      5  C   UNL     1      -0.715  -3.712   0.000  0.00  0.00    +0.000 C 
ATOM      6  O   UNL     1       0.000  -4.125   0.000  0.00  0.00    +0.000 OA
ATOM      7  C   UNL     1      -0.715  -2.888   0.000  0.00  0.00    +0.000 C 
ATOM      8  C   UNL     1       0.000  -2.475   0.000  0.00  0.00    +0.000 C 
ATOM      9  C   UNL     1       0.715  -2.888   0.000  0.00  0.00    +0.000 C 
ATOM     10  C   UNL     1       1.429  -2.475   0.000  0.00  0.00    +0.000 C 
ATOM     11  C   UNL     1       2.143  -2.888   0.000  0.00  0.00    +0.000 C 
ATOM     12  C   UNL     1       2.143  -3.712   0.000  0.00  0.00    +0.000 C 
ATOM     13  C   UNL     1       1.429  -4.125   0.000  0.00  0.00    +0.000 C 
ATOM     14  C   UNL     1       1.429  -4.950   0.000  0.00  0.00    +0.000 C 
ATOM     15  O   UNL     1       2.143  -5.362   0.000  0.00  0.00    +0.000 OA
ATOM     16  O   UNL     1       0.715  -5.362   0.000  0.00  0.00    +0.000 OA
ATOM     17  C   UNL     1       0.715  -3.712   0.000  0.00  0.00    +0.000 C 
ATOM     18  C   UNL     1       2.858  -2.475   0.000  0.00  0.00    +0.000 C 
ATOM     19  C   UNL     1       0.914  -2.087   0.000  0.00  0.00    +0.000 C 
ATOM     20  O   UNL     1       0.515  -2.087   0.000  0.00  0.00    +0.000 OA
ATOM     21  C   UNL     1      -1.539  -2.859   0.000  0.00  0.00    +0.000 C 
ATOM     22  F   UNL     1      -1.152  -2.188   0.000  0.00  0.00    +0.000 F 
ATOM     23  C   UNL     1      -2.143  -3.712   0.000  0.00  0.00    +0.000 C 
ATOM     24  O   UNL     1      -2.143  -5.362   0.000  0.00  0.00    +0.000 OA
ATOM     25  C   UNL     1      -0.327  -6.091   0.000  0.00  0.00    +0.000 C 
ATOM     26  O   UNL     1      -1.102  -6.091   0.000  0.00  0.00    +0.000 OA
ENDROOT
BRANCH   1  28
ATOM     27  C   UNL     1       0.715  -6.188   0.000  0.00  0.00    +0.000 C 
ATOM     28  C   UNL     1       0.000  -5.775   0.000  0.00  0.00    +0.000 C 
ENDBRANCH   1  28
BRANCH  10  29
ATOM     29  O   UNL     1       1.429  -1.650   0.000  0.00  0.00    +0.000 OA
BRANCH  29  30
ATOM     30  C   UNL     1       2.143  -1.238   0.000  0.00  0.00    +0.000 C 
ATOM     31  C   UNL     1       2.143  -0.412   0.000  0.00  0.00    +0.000 C 
ATOM     32  C   UNL     1       2.858   0.000   0.000  0.00  0.00    +0.000 C 
ATOM     33  C   UNL     1       3.572  -0.412   0.000  0.00  0.00    +0.000 C 
ATOM     34  C   UNL     1       3.572  -1.238   0.000  0.00  0.00    +0.000 C 
ATOM     35  O   UNL     1       2.858  -1.650   0.000  0.00  0.00    +0.000 OA
ATOM     36  C   UNL     1       4.287  -1.650   0.000  0.00  0.00    +0.000 C 
ATOM     37  O   UNL     1       1.429   0.000   0.000  0.00  0.00    +0.000 OA
BRANCH  32  38
ATOM     38  N   UNL     1       2.858   0.825   0.000  0.00  0.00    +0.000 NA
ATOM     39  C   UNL     1       2.143   1.238   0.000  0.00  0.00    +0.000 C 
ATOM     40  C   UNL     1       3.572   1.238   0.000  0.00  0.00    +0.000 C 
ENDBRANCH  32  38
ENDBRANCH  29  30
ENDBRANCH  10  29
BRANCH  12  41
ATOM     41  O   UNL     1       2.858  -4.125   0.000  0.00  0.00    +0.000 OA
BRANCH  41  42
ATOM     42  C   UNL     1       3.572  -3.712   0.000  0.00  0.00    +0.000 C 
ATOM     43  C   UNL     1       3.572  -2.888   0.000  0.00  0.00    +0.000 C 
ATOM     44  C   UNL     1       4.287  -2.475   0.000  0.00  0.00    +0.000 C 
ATOM     45  C   UNL     1       5.001  -2.888   0.000  0.00  0.00    +0.000 C 
ATOM     46  C   UNL     1       5.001  -3.712   0.000  0.00  0.00    +0.000 C 
ATOM     47  O   UNL     1       4.287  -4.125   0.000  0.00  0.00    +0.000 OA
ATOM     48  C   UNL     1       5.716  -4.125   0.000  0.00  0.00    +0.000 C 
ATOM     49  O   UNL     1       5.716  -2.475   0.000  0.00  0.00    +0.000 OA
ATOM     50  C   UNL     1       3.900  -1.747   0.000  0.00  0.00    +0.000 C 
BRANCH  44  51
ATOM     51  O   UNL     1       4.674  -1.747   0.000  0.00  0.00    +0.000 OA
ATOM     52  C   UNL     1       5.499  -1.718   0.000  0.00  0.00    +0.000 C 
ENDBRANCH  44  51
ENDBRANCH  41  42
ENDBRANCH  12  41
TORSDOF 7
