REMARK  Name = 
REMARK  9 active torsions:
REMARK  status: ('A' for Active; 'I' for Inactive)
REMARK    1  A    between atoms: C_1  and  C_21
REMARK    2  A    between atoms: C_8  and  C_16
REMARK    3  A    between atoms: C_14  and  C_51
REMARK    4  A    between atoms: C_15  and  C_48
REMARK    5  A    between atoms: C_21  and  C_58
REMARK    6  A    between atoms: C_26  and  C_37
REMARK    7  A    between atoms: C_26  and  C_49
REMARK    8  A    between atoms: O_42  and  C_50
REMARK    9  A    between atoms: C_43  and  C_55
REMARK                            x       y       z     vdW  Elec       q    Type
REMARK                         _______ _______ _______ _____ _____    ______ ____
ROOT
ATOM      1  O   UNL     1       0.220   1.905   0.000  0.00  0.00    +0.000 OA
ATOM      2  C   UNL     1       0.232   3.329   0.000  0.00  0.00    +0.000 C 
ATOM      3  C   UNL     1       1.933   2.890   0.000  0.00  0.00    +0.000 C 
ATOM      4  O   UNL     1       1.045   1.905   0.000  0.00  0.00    +0.000 OA
ATOM      5  C   UNL     1       2.644   2.291   0.000  0.00  0.00    +0.000 C 
ATOM      6  C   UNL     1       1.191   3.229   0.000  0.00  0.00    +0.000 C 
ATOM      7  C   UNL     1       0.655   4.045   0.000  0.00  0.00    +0.000 C 
ATOM      8  C   UNL     1      -0.593   3.342   0.000  0.00  0.00    +0.000 C 
ATOM      9  C   UNL     1       1.845   2.069   0.000  0.00  0.00    +0.000 C 
ATOM     10  C   UNL     1      -1.007   2.630   0.000  0.00  0.00    +0.000 C 
ATOM     11  C   UNL     1       1.593   3.941   0.000  0.00  0.00    +0.000 C 
ATOM     12  C   UNL     1       0.643   2.617   0.000  0.00  0.00    +0.000 C 
ATOM     13  C   UNL     1      -0.605   1.914   0.000  0.00  0.00    +0.000 C 
ENDROOT
BRANCH   9  16
ATOM     14  C   UNL     1       3.620   0.892   0.000  0.00  0.00    +0.000 C 
ATOM     15  C   UNL     1       3.243   1.616   0.000  0.00  0.00    +0.000 C 
ATOM     16  C   UNL     1       2.431   1.491   0.000  0.00  0.00    +0.000 C 
ATOM     17  C   UNL     1       3.842   0.092   0.000  0.00  0.00    +0.000 C 
ATOM     18  C   UNL     1       3.042   0.301   0.000  0.00  0.00    +0.000 C 
ATOM     19  O   UNL     1       2.305   0.678   0.000  0.00  0.00    +0.000 OA
BRANCH  18  22
ATOM     20  C   UNL     1       3.784  -1.709   0.000  0.00  0.00    +0.000 C 
ATOM     21  C   UNL     1       3.905  -0.884   0.000  0.00  0.00    +0.000 C 
ATOM     22  C   UNL     1       3.180  -0.511   0.000  0.00  0.00    +0.000 C 
ATOM     23  O   UNL     1       2.594  -1.097   0.000  0.00  0.00    +0.000 OA
ATOM     24  C   UNL     1       4.730  -0.884   0.000  0.00  0.00    +0.000 C 
ATOM     25  C   UNL     1       2.971  -1.834   0.000  0.00  0.00    +0.000 C 
BRANCH  25  33
ATOM     26  C   UNL     1       1.392  -3.333   0.000  0.00  0.00    +0.000 C 
ATOM     27  C   UNL     1       3.867  -3.208   0.000  0.00  0.00    +0.000 C 
ATOM     28  C   UNL     1       1.845  -4.033   0.000  0.00  0.00    +0.000 C 
ATOM     29  C   UNL     1       3.042  -3.258   0.000  0.00  0.00    +0.000 C 
ATOM     30  O   UNL     1       0.680  -2.923   0.000  0.00  0.00    +0.000 OA
ATOM     31  O   UNL     1       1.769  -2.609   0.000  0.00  0.00    +0.000 OA
ATOM     32  C   UNL     1       1.468  -4.770   0.000  0.00  0.00    +0.000 C 
ATOM     33  C   UNL     1       2.594  -2.571   0.000  0.00  0.00    +0.000 C 
ATOM     34  C   UNL     1       2.670  -3.995   0.000  0.00  0.00    +0.000 C 
BRANCH  26  35
ATOM     35  C   UNL     1       0.806  -3.920   0.000  0.00  0.00    +0.000 C 
ATOM     36  O   UNL     1       0.015  -3.698   0.000  0.00  0.00    +0.000 OA
ENDBRANCH  26  35
ENDBRANCH  25  33
ENDBRANCH  18  22
ENDBRANCH   9  16
BRANCH   8  38
ATOM     37  C   UNL     1      -0.580   4.770   0.000  0.00  0.00    +0.000 C 
ATOM     38  O   UNL     1      -0.995   4.066   0.000  0.00  0.00    +0.000 OA
ENDBRANCH   8  38
BRANCH  13  39
ATOM     39  C   UNL     1      -1.020   1.202   0.000  0.00  0.00    +0.000 C 
BRANCH  39  40
ATOM     40  C   UNL     1      -1.845   1.214   0.000  0.00  0.00    +0.000 C 
ATOM     41  C   UNL     1      -3.495   1.214   0.000  0.00  0.00    +0.000 C 
ATOM     42  C   UNL     1      -4.320   1.227   0.000  0.00  0.00    +0.000 C 
ATOM     43  C   UNL     1      -2.259   0.502   0.000  0.00  0.00    +0.000 C 
ATOM     44  O   UNL     1      -2.255   1.926   0.000  0.00  0.00    +0.000 OA
ATOM     45  C   UNL     1      -3.072   1.926   0.000  0.00  0.00    +0.000 C 
ATOM     46  C   UNL     1      -3.084   0.502   0.000  0.00  0.00    +0.000 C 
BRANCH  45  47
ATOM     47  C   UNL     1      -3.482   2.642   0.000  0.00  0.00    +0.000 C 
ATOM     48  C   UNL     1      -3.067   3.354   0.000  0.00  0.00    +0.000 C 
BRANCH  47  51
ATOM     49  O   UNL     1      -4.730   1.939   0.000  0.00  0.00    +0.000 OA
ATOM     50  O   UNL     1      -4.730   3.367   0.000  0.00  0.00    +0.000 OA
ATOM     51  C   UNL     1      -4.307   2.655   0.000  0.00  0.00    +0.000 C 
ENDBRANCH  47  51
ENDBRANCH  45  47
ENDBRANCH  39  40
ENDBRANCH  13  39
TORSDOF 9
