REMARK  Name = 
REMARK  0 active torsions:
REMARK  status: ('A' for Active; 'I' for Inactive)
REMARK                            x       y       z     vdW  Elec       q    Type
REMARK                         _______ _______ _______ _____ _____    ______ ____
ROOT
ATOM      1  C   UNL     1       0.711   0.418   0.000  0.00  0.00    +0.000 A 
ATOM      2  C   UNL     1       0.000   0.833   0.000  0.00  0.00    +0.000 A 
ATOM      3  C   UNL     1       0.711  -0.418   0.000  0.00  0.00    +0.000 A 
ATOM      4  C   UNL     1      -0.711   0.418   0.000  0.00  0.00    +0.000 A 
ATOM      5  C   UNL     1      -0.711  -0.418   0.000  0.00  0.00    +0.000 A 
ATOM      6  C   UNL     1       0.000  -0.837   0.000  0.00  0.00    +0.000 A 
ATOM      7 CL   UNL     1       1.418   0.833   0.000  0.00  0.00    +0.000 Cl
ATOM      8  O   UNL     1       0.000   1.669   0.000  0.00  0.00    +0.000 OA
ATOM      9  C   UNL     1      -1.418  -0.837   0.000  0.00  0.00    +0.000 C 
ATOM     10  C   UNL     1       0.000  -1.669   0.000  0.00  0.00    +0.000 C 
ENDROOT
TORSDOF 0
