REMARK  Name = 
REMARK  6 active torsions:
REMARK  status: ('A' for Active; 'I' for Inactive)
REMARK    1  A    between atoms: C_4  and  C_7
REMARK    2  A    between atoms: C_7  and  C_8
REMARK    3  A    between atoms: C_8  and  C_9
REMARK    4  A    between atoms: C_12  and  C_18
REMARK    5  A    between atoms: N_19  and  C_20
REMARK    6  A    between atoms: C_20  and  C_21
REMARK                            x       y       z     vdW  Elec       q    Type
REMARK                         _______ _______ _______ _____ _____    ______ ____
ROOT
ATOM      1  C   UNL     1      -0.715   0.243   0.000  0.00  0.00    +0.000 A 
ATOM      2  C   UNL     1       0.000   0.655   0.000  0.00  0.00    +0.000 A 
ATOM      3  C   UNL     1       0.712   0.243   0.000  0.00  0.00    +0.000 A 
ATOM      4  C   UNL     1       0.712  -0.582   0.000  0.00  0.00    +0.000 A 
ATOM      5  C   UNL     1       0.002  -0.994   0.000  0.00  0.00    +0.000 A 
ATOM      6  N   UNL     1      -0.715  -0.586   0.000  0.00  0.00    +0.000 N 
ATOM      7  N   UNL     1      -1.324  -1.141   0.000  0.00  0.00    +0.000 NA
ATOM      8  C   UNL     1      -0.984  -1.892   0.000  0.00  0.00    +0.000 A 
ATOM      9  N   UNL     1      -0.165  -1.801   0.000  0.00  0.00    +0.000 NA
ATOM     10  O   UNL     1       1.427   0.655   0.000  0.00  0.00    +0.000 OA
ENDROOT
BRANCH   4  11
ATOM     11  C   UNL     1       1.427  -0.995   0.000  0.00  0.00    +0.000 C 
ATOM     12  N   UNL     1       2.141  -0.582   0.000  0.00  0.00    +0.000 NA
ATOM     13  O   UNL     1       1.427  -1.820   0.000  0.00  0.00    +0.000 OA
BRANCH  12  14
ATOM     14  C   UNL     1       2.855  -0.995   0.000  0.00  0.00    +0.000 C 
BRANCH  14  15
ATOM     15  C   UNL     1       3.570  -0.582   0.000  0.00  0.00    +0.000 C 
ATOM     16  O   UNL     1       4.285  -0.995   0.000  0.00  0.00    +0.000 OA
ATOM     17  O   UNL     1       3.570   0.243   0.000  0.00  0.00    +0.000 OA
ENDBRANCH  14  15
ENDBRANCH  12  14
ENDBRANCH   4  11
BRANCH   1  18
ATOM     18  C   UNL     1      -1.429   0.655   0.000  0.00  0.00    +0.000 C 
BRANCH  18  19
ATOM     19  C   UNL     1      -2.143   0.243   0.000  0.00  0.00    +0.000 C 
BRANCH  19  23
ATOM     20  C   UNL     1      -4.285   1.480   0.000  0.00  0.00    +0.000 A 
ATOM     21  C   UNL     1      -4.285   0.651   0.000  0.00  0.00    +0.000 A 
ATOM     22  C   UNL     1      -3.568   0.243   0.000  0.00  0.00    +0.000 A 
ATOM     23  C   UNL     1      -2.858   0.655   0.000  0.00  0.00    +0.000 A 
ATOM     24  C   UNL     1      -2.858   1.480   0.000  0.00  0.00    +0.000 A 
ATOM     25  C   UNL     1      -3.570   1.892   0.000  0.00  0.00    +0.000 A 
ENDBRANCH  19  23
ENDBRANCH  18  19
ENDBRANCH   1  18
TORSDOF 6
