REMARK  Name = 
REMARK  6 active torsions:
REMARK  status: ('A' for Active; 'I' for Inactive)
REMARK    1  A    between atoms: O_2  and  C_3
REMARK    2  A    between atoms: C_6  and  C_7
REMARK    3  A    between atoms: C_7  and  N_8
REMARK    4  A    between atoms: C_10  and  C_11
REMARK    5  A    between atoms: N_13  and  C_14
REMARK    6  A    between atoms: C_14  and  C_15
REMARK                            x       y       z     vdW  Elec       q    Type
REMARK                         _______ _______ _______ _____ _____    ______ ____
ROOT
ATOM      1  N   UNL     1      -3.208  -1.939   0.000  0.00  0.00    +0.000 N 
ATOM      2  C   UNL     1      -2.656  -1.325   0.000  0.00  0.00    +0.000 A 
ATOM      3  C   UNL     1      -1.902  -1.661   0.000  0.00  0.00    +0.000 A 
ATOM      4  C   UNL     1      -1.988  -2.482   0.000  0.00  0.00    +0.000 A 
ATOM      5  N   UNL     1      -1.436  -3.095   0.000  0.00  0.00    +0.000 NA
ATOM      6  C   UNL     1      -1.691  -3.879   0.000  0.00  0.00    +0.000 A 
ATOM      7  C   UNL     1      -2.498  -4.051   0.000  0.00  0.00    +0.000 A 
ATOM      8  C   UNL     1      -2.753  -4.835   0.000  0.00  0.00    +0.000 C 
ATOM      9  C   UNL     1      -3.050  -3.438   0.000  0.00  0.00    +0.000 A 
ATOM     10  C   UNL     1      -2.795  -2.653   0.000  0.00  0.00    +0.000 A 
ENDROOT
BRANCH   3  11
ATOM     11  C   UNL     1      -1.188  -1.248   0.000  0.00  0.00    +0.000 C 
ATOM     12  O   UNL     1      -1.188  -0.423   0.000  0.00  0.00    +0.000 OA
ATOM     13  N   UNL     1      -0.473  -1.661   0.000  0.00  0.00    +0.000 NA
BRANCH  13  14
ATOM     14  C   UNL     1       0.241  -1.248   0.000  0.00  0.00    +0.000 C 
BRANCH  14  15
ATOM     15  C   UNL     1       0.956  -1.661   0.000  0.00  0.00    +0.000 C 
ATOM     16  O   UNL     1       1.670  -1.248   0.000  0.00  0.00    +0.000 OA
ENDBRANCH  14  15
ENDBRANCH  13  14
ENDBRANCH   3  11
BRANCH   1  17
ATOM     17  C   UNL     1      -4.028  -1.852   0.000  0.00  0.00    +0.000 C 
BRANCH  17  21
ATOM     18  C   UNL     1      -5.819  -3.101   0.000  0.00  0.00    +0.000 A 
ATOM     19  C   UNL     1      -5.333  -2.433   0.000  0.00  0.00    +0.000 A 
ATOM     20  C   UNL     1      -5.669  -1.680   0.000  0.00  0.00    +0.000 C 
ATOM     21  C   UNL     1      -4.513  -2.520   0.000  0.00  0.00    +0.000 A 
ATOM     22  N   UNL     1      -4.178  -3.273   0.000  0.00  0.00    +0.000 NA
ATOM     23  C   UNL     1      -4.662  -3.941   0.000  0.00  0.00    +0.000 A 
ATOM     24  N   UNL     1      -5.483  -3.855   0.000  0.00  0.00    +0.000 NA
BRANCH  18  26
ATOM     25  C   UNL     1      -7.124  -3.682   0.000  0.00  0.00    +0.000 C 
ATOM     26  O   UNL     1      -6.639  -3.015   0.000  0.00  0.00    +0.000 OA
ENDBRANCH  18  26
ENDBRANCH  17  21
ENDBRANCH   1  17
TORSDOF 6
