REMARK  Name = 
REMARK  0 active torsions:
REMARK  status: ('A' for Active; 'I' for Inactive)
REMARK                            x       y       z     vdW  Elec       q    Type
REMARK                         _______ _______ _______ _____ _____    ______ ____
ROOT
ATOM      1  O   UNL     1      -3.351   0.393   0.000  0.00  0.00    +0.000 OA
ATOM      2  C   UNL     1      -3.351  -0.432   0.000  0.00  0.00    +0.000 A 
ATOM      3  C   UNL     1      -2.639  -0.841   0.000  0.00  0.00    +0.000 A 
ATOM      4  C   UNL     1      -2.639   0.809   0.000  0.00  0.00    +0.000 A 
ATOM      5  C   UNL     1      -1.927   0.393   0.000  0.00  0.00    +0.000 A 
ATOM      6  C   UNL     1      -1.930  -0.432   0.000  0.00  0.00    +0.000 A 
ATOM      7  O   UNL     1      -1.221  -0.846   0.000  0.00  0.00    +0.000 OA
ATOM      8  O   UNL     1      -1.214   0.804   0.000  0.00  0.00    +0.000 OA
ATOM      9  C   UNL     1      -2.647   1.635   0.000  0.00  0.00    +0.000 C 
ENDROOT
TORSDOF 0
REMARK  Name = 
REMARK  0 active torsions:
REMARK  status: ('A' for Active; 'I' for Inactive)
REMARK                            x       y       z     vdW  Elec       q    Type
REMARK                         _______ _______ _______ _____ _____    ______ ____
ROOT
ATOM      1 FE   UNL     1       0.208  -0.016   0.000  0.00  0.00    +0.000 Fe
ENDROOT
TORSDOF 0
REMARK  Name = 
REMARK  0 active torsions:
REMARK  status: ('A' for Active; 'I' for Inactive)
REMARK                            x       y       z     vdW  Elec       q    Type
REMARK                         _______ _______ _______ _____ _____    ______ ____
ROOT
ATOM      1  O   UNL     1       2.644   2.674   0.000  0.00  0.00    +0.000 OA
ATOM      2  C   UNL     1       1.935   3.096   0.000  0.00  0.00    +0.000 A 
ATOM      3  C   UNL     1       1.220   2.693   0.000  0.00  0.00    +0.000 A 
ATOM      4  C   UNL     1       2.638   1.849   0.000  0.00  0.00    +0.000 A 
ATOM      5  C   UNL     1       1.916   1.450   0.000  0.00  0.00    +0.000 A 
ATOM      6  C   UNL     1       1.208   1.875   0.000  0.00  0.00    +0.000 A 
ATOM      7  O   UNL     1       0.491   1.477   0.000  0.00  0.00    +0.000 OA
ATOM      8  O   UNL     1       1.905   0.627   0.000  0.00  0.00    +0.000 OA
ATOM      9  C   UNL     1       3.351   1.433   0.000  0.00  0.00    +0.000 C 
ENDROOT
TORSDOF 0
REMARK  Name = 
REMARK  0 active torsions:
REMARK  status: ('A' for Active; 'I' for Inactive)
REMARK                            x       y       z     vdW  Elec       q    Type
REMARK                         _______ _______ _______ _____ _____    ______ ____
ROOT
ATOM      1  O   UNL     1       1.476  -3.096   0.000  0.00  0.00    +0.000 OA
ATOM      2  C   UNL     1       2.200  -2.699   0.000  0.00  0.00    +0.000 A 
ATOM      3  C   UNL     1       2.215  -1.878   0.000  0.00  0.00    +0.000 A 
ATOM      4  C   UNL     1       0.769  -2.672   0.000  0.00  0.00    +0.000 A 
ATOM      5  C   UNL     1       0.791  -1.847   0.000  0.00  0.00    +0.000 A 
ATOM      6  C   UNL     1       1.516  -1.453   0.000  0.00  0.00    +0.000 A 
ATOM      7  O   UNL     1       1.538  -0.633   0.000  0.00  0.00    +0.000 OA
ATOM      8  O   UNL     1       0.088  -1.421   0.000  0.00  0.00    +0.000 OA
ATOM      9  C   UNL     1       0.049  -3.076   0.000  0.00  0.00    +0.000 C 
ENDROOT
TORSDOF 0
