REMARK  Name = 
REMARK  6 active torsions:
REMARK  status: ('A' for Active; 'I' for Inactive)
REMARK    1  A    between atoms: C_2  and  C_3
REMARK    2  A    between atoms: C_4  and  C_5
REMARK    3  A    between atoms: C_5  and  O_6
REMARK    4  A    between atoms: O_6  and  C_7
REMARK    5  A    between atoms: C_10  and  O_11
REMARK    6  A    between atoms: C_13  and  C_19
REMARK                            x       y       z     vdW  Elec       q    Type
REMARK                         _______ _______ _______ _____ _____    ______ ____
ROOT
ATOM      1  C   UNL     1       1.429   0.000   0.000  0.00  0.00    +0.000 A 
ATOM      2  C   UNL     1       2.143  -0.412   0.000  0.00  0.00    +0.000 A 
ATOM      3  C   UNL     1       2.858   0.000   0.000  0.00  0.00    +0.000 A 
ATOM      4  C   UNL     1       3.572  -0.412   0.000  0.00  0.00    +0.000 A 
ATOM      5  C   UNL     1       3.572  -1.238   0.000  0.00  0.00    +0.000 A 
ATOM      6  C   UNL     1       2.858  -1.650   0.000  0.00  0.00    +0.000 A 
ATOM      7  C   UNL     1       2.143  -1.238   0.000  0.00  0.00    +0.000 A 
ATOM      8  C   UNL     1       1.429  -1.650   0.000  0.00  0.00    +0.000 A 
ATOM      9  C   UNL     1       0.715  -1.238   0.000  0.00  0.00    +0.000 A 
ATOM     10  N   UNL     1       0.715  -0.412   0.000  0.00  0.00    +0.000 NA
ENDROOT
BRANCH   5  11
ATOM     11  C   UNL     1       4.287  -1.650   0.000  0.00  0.00    +0.000 C 
ATOM     12  N   UNL     1       5.001  -1.238   0.000  0.00  0.00    +0.000 NA
ATOM     13  O   UNL     1       4.287  -2.475   0.000  0.00  0.00    +0.000 OA
ENDBRANCH   5  11
BRANCH   4  14
ATOM     14  O   UNL     1       4.287   0.000   0.000  0.00  0.00    +0.000 OA
ATOM     15  C   UNL     1       5.001  -0.412   0.000  0.00  0.00    +0.000 C 
ENDBRANCH   4  14
BRANCH   1  16
ATOM     16  O   UNL     1       1.429   0.825   0.000  0.00  0.00    +0.000 OA
BRANCH  16  17
ATOM     17  C   UNL     1       0.715   1.238   0.000  0.00  0.00    +0.000 C 
BRANCH  17  19
ATOM     18  C   UNL     1       1.382   2.547   0.000  0.00  0.00    +0.000 C 
ATOM     19  C   UNL     1       0.715   2.062   0.000  0.00  0.00    +0.000 C 
ATOM     20  N   UNL     1       0.047   2.547   0.000  0.00  0.00    +0.000 NA
ATOM     21  C   UNL     1       0.302   3.332   0.000  0.00  0.00    +0.000 C 
ATOM     22  O   UNL     1      -0.183   3.999   0.000  0.00  0.00    +0.000 OA
ATOM     23  C   UNL     1       1.127   3.332   0.000  0.00  0.00    +0.000 C 
ATOM     24  F   UNL     1       1.612   3.999   0.000  0.00  0.00    +0.000 F 
BRANCH  18  26
ATOM     25  C   UNL     1       2.780   2.845   0.000  0.00  0.00    +0.000 C 
ATOM     26  C   UNL     1       2.167   2.292   0.000  0.00  0.00    +0.000 C 
ENDBRANCH  18  26
ENDBRANCH  17  19
ENDBRANCH  16  17
ENDBRANCH   1  16
TORSDOF 6
