REMARK  Name = 
REMARK  3 active torsions:
REMARK  status: ('A' for Active; 'I' for Inactive)
REMARK    1  A    between atoms: C_2  and  C_4
REMARK    2  A    between atoms: C_2  and  C_19
REMARK    3  A    between atoms: C_11  and  C_13
REMARK                            x       y       z     vdW  Elec       q    Type
REMARK                         _______ _______ _______ _____ _____    ______ ____
ROOT
ATOM      1  C   UNL     1      -0.573  -1.319   0.000  0.00  0.00    +0.000 A 
ATOM      2  N   UNL     1      -1.328  -0.984   0.000  0.00  0.00    +0.000 N 
ATOM      3  C   UNL     1      -1.880  -1.599   0.000  0.00  0.00    +0.000 A 
ATOM      4  N   UNL     1      -1.466  -2.314   0.000  0.00  0.00    +0.000 NA
ATOM      5  N   UNL     1      -0.658  -2.141   0.000  0.00  0.00    +0.000 NA
ATOM      6  C   UNL     1      -2.683  -1.426   0.000  0.00  0.00    +0.000 A 
ATOM      7  C   UNL     1      -2.940  -0.646   0.000  0.00  0.00    +0.000 A 
ATOM      8  C   UNL     1      -2.388  -0.032   0.000  0.00  0.00    +0.000 A 
ATOM      9  N   UNL     1      -1.580  -0.198   0.000  0.00  0.00    +0.000 NA
ENDROOT
BRANCH   8  10
ATOM     10  C   UNL     1      -2.645   0.747   0.000  0.00  0.00    +0.000 A 
ATOM     11  C   UNL     1      -2.097   1.358   0.000  0.00  0.00    +0.000 A 
ATOM     12  C   UNL     1      -2.356   2.142   0.000  0.00  0.00    +0.000 A 
ATOM     13  N   UNL     1      -3.162   2.314   0.000  0.00  0.00    +0.000 NA
ATOM     14  C   UNL     1      -3.708   1.696   0.000  0.00  0.00    +0.000 A 
ATOM     15  C   UNL     1      -3.450   0.912   0.000  0.00  0.00    +0.000 A 
ENDBRANCH   8  10
BRANCH   1  17
ATOM     16  F   UNL     1       0.549  -1.618   0.000  0.00  0.00    +0.000 F 
ATOM     17  C   UNL     1       0.138  -0.908   0.000  0.00  0.00    +0.000 C 
ATOM     18  F   UNL     1      -0.274  -0.198   0.000  0.00  0.00    +0.000 F 
BRANCH  17  19
ATOM     19  C   UNL     1       0.848  -0.496   0.000  0.00  0.00    +0.000 A 
ATOM     20  C   UNL     1       0.848   0.332   0.000  0.00  0.00    +0.000 A 
ATOM     21  C   UNL     1       1.562   0.750   0.000  0.00  0.00    +0.000 A 
ATOM     22  C   UNL     1       2.274   0.332   0.000  0.00  0.00    +0.000 A 
ATOM     23  C   UNL     1       2.274  -0.496   0.000  0.00  0.00    +0.000 A 
ATOM     24  C   UNL     1       1.562  -0.906   0.000  0.00  0.00    +0.000 A 
ATOM     25  C   UNL     1       2.985  -0.911   0.000  0.00  0.00    +0.000 A 
ATOM     26  C   UNL     1       3.708  -0.502   0.000  0.00  0.00    +0.000 A 
ATOM     27  C   UNL     1       3.708   0.326   0.000  0.00  0.00    +0.000 A 
ATOM     28  N   UNL     1       2.992   0.745   0.000  0.00  0.00    +0.000 NA
ENDBRANCH  17  19
ENDBRANCH   1  17
TORSDOF 3
