REMARK  Name = 
REMARK  3 active torsions:
REMARK  status: ('A' for Active; 'I' for Inactive)
REMARK    1  A    between atoms: C_12  and  C_13
REMARK    2  A    between atoms: C_12  and  N_19
REMARK    3  A    between atoms: C_13  and  N_21
REMARK                            x       y       z     vdW  Elec       q    Type
REMARK                         _______ _______ _______ _____ _____    ______ ____
ROOT
ATOM      1  C   UNL     1       3.804   2.520   0.000  0.00  0.00    +0.000 C 
ATOM      2  C   UNL     1       6.124   0.851   0.000  0.00  0.00    +0.000 A 
ATOM      3  C   UNL     1       5.940   1.655   0.000  0.00  0.00    +0.000 A 
ATOM      4  C   UNL     1       1.667   1.655   0.000  0.00  0.00    +0.000 A 
ATOM      5  C   UNL     1       1.484   0.851   0.000  0.00  0.00    +0.000 A 
ATOM      6  C   UNL     1       5.519   0.290   0.000  0.00  0.00    +0.000 A 
ATOM      7  C   UNL     1       5.152   1.899   0.000  0.00  0.00    +0.000 A 
ATOM      8  C   UNL     1       2.456   1.899   0.000  0.00  0.00    +0.000 A 
ATOM      9  C   UNL     1       2.088   0.290   0.000  0.00  0.00    +0.000 A 
ATOM     10  C   UNL     1       4.731   0.533   0.000  0.00  0.00    +0.000 A 
ATOM     11  C   UNL     1       4.547   1.337   0.000  0.00  0.00    +0.000 A 
ATOM     12  C   UNL     1       3.060   1.337   0.000  0.00  0.00    +0.000 A 
ATOM     13  C   UNL     1       2.877   0.533   0.000  0.00  0.00    +0.000 A 
ATOM     14  C   UNL     1       4.216  -0.112   0.000  0.00  0.00    +0.000 C 
ATOM     15  N   UNL     1       3.804   1.695   0.000  0.00  0.00    +0.000 N 
ATOM     16  N   UNL     1       3.391  -0.112   0.000  0.00  0.00    +0.000 N 
ATOM     17  O   UNL     1       4.574  -0.855   0.000  0.00  0.00    +0.000 OA
ENDROOT
BRANCH  16  18
ATOM     18  C   UNL     1       3.033  -0.855   0.000  0.00  0.00    +0.000 C 
BRANCH  18  19
ATOM     19  C   UNL     1       2.211  -0.917   0.000  0.00  0.00    +0.000 C 
BRANCH  19  22
ATOM     20  C   UNL     1       1.030  -1.722   0.000  0.00  0.00    +0.000 C 
ATOM     21  C   UNL     1       2.317  -2.342   0.000  0.00  0.00    +0.000 C 
ATOM     22  N   UNL     1       1.853  -1.660   0.000  0.00  0.00    +0.000 NA
ENDBRANCH  19  22
ENDBRANCH  18  19
ENDBRANCH  16  18
TORSDOF 3
