REMARK  Name = 
REMARK  7 active torsions:
REMARK  status: ('A' for Active; 'I' for Inactive)
REMARK    1  A    between atoms: C_3  and  C_9
REMARK    2  A    between atoms: C_9  and  C_14
REMARK    3  A    between atoms: C_14  and  O_19
REMARK    4  A    between atoms: O_19  and  C_23
REMARK    5  A    between atoms: C_23  and  C_26
REMARK    6  A    between atoms: C_26  and  C_29
REMARK    7  A    between atoms: C_29  and  C_31
REMARK                            x       y       z     vdW  Elec       q    Type
REMARK                         _______ _______ _______ _____ _____    ______ ____
ROOT
ATOM      1  C   UNL     1      -1.098   0.016   0.000  0.00  0.00    +0.000 C 
ATOM      2  C   UNL     1      -1.088  -0.805   0.000  0.00  0.00    +0.000 C 
ATOM      3  C   UNL     1      -0.387   0.434   0.000  0.00  0.00    +0.000 C 
ATOM      4  C   UNL     1      -1.796   0.423   0.000  0.00  0.00    +0.000 C 
ATOM      5  C   UNL     1      -1.134   0.809   0.000  0.00  0.00    +0.000 C 
ATOM      6  C   UNL     1      -1.785  -1.219   0.000  0.00  0.00    +0.000 C 
ATOM      7  C   UNL     1       0.339  -0.833   0.000  0.00  0.00    +0.000 C 
ATOM      8  C   UNL     1       0.332   0.030   0.000  0.00  0.00    +0.000 C 
ATOM      9  O   UNL     1       0.427   0.607   0.000  0.00  0.00    +0.000 OA
ATOM     10  C   UNL     1      -2.514   0.005   0.000  0.00  0.00    +0.000 C 
ATOM     11  C   UNL     1      -2.510  -0.812   0.000  0.00  0.00    +0.000 C 
ATOM     12  C   UNL     1      -1.785  -2.041   0.000  0.00  0.00    +0.000 C 
ATOM     13  O   UNL     1      -3.250   0.430   0.000  0.00  0.00    +0.000 OA
ATOM     14  C   UNL     1      -3.208  -1.223   0.000  0.00  0.00    +0.000 C 
ATOM     15  C   UNL     1      -2.496  -2.455   0.000  0.00  0.00    +0.000 C 
ATOM     16  C   UNL     1      -3.201  -2.048   0.000  0.00  0.00    +0.000 C 
ATOM     17  C   UNL     1      -3.923  -0.819   0.000  0.00  0.00    +0.000 C 
ATOM     18  C   UNL     1      -3.254  -0.437   0.000  0.00  0.00    +0.000 C 
ATOM     19  C   UNL     1      -3.916  -2.465   0.000  0.00  0.00    +0.000 C 
ATOM     20  C   UNL     1      -4.638  -1.230   0.000  0.00  0.00    +0.000 C 
ATOM     21  C   UNL     1      -4.649  -2.097   0.000  0.00  0.00    +0.000 C 
ATOM     22  O   UNL     1      -5.367  -2.483   0.000  0.00  0.00    +0.000 OA
ENDROOT
BRANCH   3  23
ATOM     23  C   UNL     1      -0.394   1.258   0.000  0.00  0.00    +0.000 C 
ATOM     24  O   UNL     1      -1.134   1.687   0.000  0.00  0.00    +0.000 OA
BRANCH  23  25
ATOM     25  C   UNL     1       0.356   1.655   0.000  0.00  0.00    +0.000 C 
BRANCH  25  26
ATOM     26  O   UNL     1       1.085   1.205   0.000  0.00  0.00    +0.000 OA
BRANCH  26  27
ATOM     27  C   UNL     1       1.815   1.626   0.000  0.00  0.00    +0.000 C 
ATOM     28  O   UNL     1       1.808   2.483   0.000  0.00  0.00    +0.000 OA
BRANCH  27  29
ATOM     29  C   UNL     1       2.548   1.205   0.000  0.00  0.00    +0.000 C 
BRANCH  29  30
ATOM     30  C   UNL     1       3.280   1.626   0.000  0.00  0.00    +0.000 C 
BRANCH  30  31
ATOM     31  C   UNL     1       4.006   1.206   0.000  0.00  0.00    +0.000 C 
ATOM     32  C   UNL     1       4.269   0.405   0.000  0.00  0.00    +0.000 C 
ATOM     33  C   UNL     1       4.685   1.696   0.000  0.00  0.00    +0.000 C 
ATOM     34  C   UNL     1       5.109   0.411   0.000  0.00  0.00    +0.000 C 
ATOM     35  C   UNL     1       5.367   1.208   0.000  0.00  0.00    +0.000 C 
ENDBRANCH  30  31
ENDBRANCH  29  30
ENDBRANCH  27  29
ENDBRANCH  26  27
ENDBRANCH  25  26
ENDBRANCH  23  25
ENDBRANCH   3  23
TORSDOF 7
