REMARK  Name = 
REMARK  6 active torsions:
REMARK  status: ('A' for Active; 'I' for Inactive)
REMARK    1  A    between atoms: C_5  and  C_8
REMARK    2  A    between atoms: C_6  and  O_11
REMARK    3  A    between atoms: O_11  and  C_12
REMARK    4  A    between atoms: C_12  and  C_14
REMARK    5  A    between atoms: C_14  and  O_15
REMARK    6  A    between atoms: O_15  and  C_16
REMARK                            x       y       z     vdW  Elec       q    Type
REMARK                         _______ _______ _______ _____ _____    ______ ____
ROOT
ATOM      1  C   UNL     1       0.015  -0.623   0.000  0.00  0.00    +0.000 C 
ATOM      2  C   UNL     1       0.015  -1.448   0.000  0.00  0.00    +0.000 C 
ATOM      3  C   UNL     1       0.727  -1.856   0.000  0.00  0.00    +0.000 C 
ATOM      4  C   UNL     1       1.439  -1.448   0.000  0.00  0.00    +0.000 C 
ATOM      5  C   UNL     1       1.439  -0.623   0.000  0.00  0.00    +0.000 C 
ATOM      6  C   UNL     1       0.727  -0.206   0.000  0.00  0.00    +0.000 C 
ATOM      7  C   UNL     1      -0.702  -1.856   0.000  0.00  0.00    +0.000 C 
ENDROOT
BRANCH   5   8
ATOM      8  C   UNL     1       2.148  -0.206   0.000  0.00  0.00    +0.000 C 
ATOM      9  C   UNL     1       2.144   0.619   0.000  0.00  0.00    +0.000 C 
ATOM     10  C   UNL     1       2.861  -0.619   0.000  0.00  0.00    +0.000 C 
ENDBRANCH   5   8
BRANCH   6  11
ATOM     11  O   UNL     1       0.727   0.619   0.000  0.00  0.00    +0.000 OA
BRANCH  11  12
ATOM     12  C   UNL     1       0.006   1.031   0.000  0.00  0.00    +0.000 C 
ATOM     13  O   UNL     1       0.003   1.856   0.000  0.00  0.00    +0.000 OA
BRANCH  12  14
ATOM     14  C   UNL     1      -0.707   0.616   0.000  0.00  0.00    +0.000 C 
BRANCH  14  15
ATOM     15  O   UNL     1      -1.427   1.031   0.000  0.00  0.00    +0.000 OA
BRANCH  15  16
ATOM     16  C   UNL     1      -2.144   0.623   0.000  0.00  0.00    +0.000 C 
ATOM     17  C   UNL     1      -2.861   1.036   0.000  0.00  0.00    +0.000 C 
ENDBRANCH  15  16
ENDBRANCH  14  15
ENDBRANCH  12  14
ENDBRANCH  11  12
ENDBRANCH   6  11
TORSDOF 6
