REMARK  Name = 
REMARK  11 active torsions:
REMARK  status: ('A' for Active; 'I' for Inactive)
REMARK    1  A    between atoms: C_1  and  C_2
REMARK    2  A    between atoms: C_1  and  C_3
REMARK    3  A    between atoms: C_4  and  C_9
REMARK    4  A    between atoms: C_4  and  C_10
REMARK    5  A    between atoms: C_9  and  O_15
REMARK    6  A    between atoms: O_15  and  C_20
REMARK    7  A    between atoms: C_20  and  C_21
REMARK    8  A    between atoms: C_21  and  C_22
REMARK    9  A    between atoms: C_21  and  C_23
REMARK   10  A    between atoms: C_22  and  C_24
REMARK   11  A    between atoms: C_24  and  C_26
REMARK                            x       y       z     vdW  Elec       q    Type
REMARK                         _______ _______ _______ _____ _____    ______ ____
ROOT
ATOM      1  C   UNL     1      -2.140  -0.210   0.000  0.00  0.00    +0.000 C 
ATOM      2  C   UNL     1      -1.428  -0.614   0.000  0.00  0.00    +0.000 C 
ENDROOT
BRANCH   1   3
ATOM      3  C   UNL     1      -2.852  -0.628   0.000  0.00  0.00    +0.000 A 
ATOM      4  C   UNL     1      -2.848  -1.452   0.000  0.00  0.00    +0.000 A 
ATOM      5  C   UNL     1      -3.571  -0.218   0.000  0.00  0.00    +0.000 A 
ATOM      6  C   UNL     1      -3.554  -1.862   0.000  0.00  0.00    +0.000 A 
ATOM      7  C   UNL     1      -4.285  -0.635   0.000  0.00  0.00    +0.000 A 
ATOM      8  C   UNL     1      -4.276  -1.459   0.000  0.00  0.00    +0.000 A 
ENDBRANCH   1   3
BRANCH   1   9
ATOM      9  C   UNL     1      -2.151   0.608   0.000  0.00  0.00    +0.000 A 
ATOM     10  C   UNL     1      -1.444   1.033   0.000  0.00  0.00    +0.000 A 
ATOM     11  C   UNL     1      -2.872   1.008   0.000  0.00  0.00    +0.000 A 
ATOM     12  C   UNL     1      -1.455   1.857   0.000  0.00  0.00    +0.000 A 
ATOM     13  C   UNL     1      -2.888   1.836   0.000  0.00  0.00    +0.000 A 
ATOM     14  C   UNL     1      -2.191   2.255   0.000  0.00  0.00    +0.000 A 
ENDBRANCH   1   9
BRANCH   2  15
ATOM     15  C   UNL     1      -0.715  -0.198   0.000  0.00  0.00    +0.000 C 
ATOM     16  O   UNL     1      -0.725   0.625   0.000  0.00  0.00    +0.000 OA
BRANCH  15  17
ATOM     17  O   UNL     1      -0.007  -0.600   0.000  0.00  0.00    +0.000 OA
BRANCH  17  18
ATOM     18  C   UNL     1       0.707  -0.189   0.000  0.00  0.00    +0.000 C 
BRANCH  18  19
ATOM     19  C   UNL     1       1.421  -0.598   0.000  0.00  0.00    +0.000 C 
BRANCH  19  20
ATOM     20  C   UNL     1       1.427  -1.423   0.000  0.00  0.00    +0.000 C 
ATOM     21  C   UNL     1       0.721  -1.833   0.000  0.00  0.00    +0.000 C 
ENDBRANCH  19  20
BRANCH  19  22
ATOM     22  C   UNL     1       2.138  -0.183   0.000  0.00  0.00    +0.000 C 
BRANCH  22  23
ATOM     23  C   UNL     1       2.855  -0.597   0.000  0.00  0.00    +0.000 C 
BRANCH  23  24
ATOM     24  C   UNL     1       3.569  -0.184   0.000  0.00  0.00    +0.000 C 
ATOM     25  C   UNL     1       4.285  -0.594   0.000  0.00  0.00    +0.000 C 
ENDBRANCH  23  24
ENDBRANCH  22  23
ENDBRANCH  19  22
ENDBRANCH  18  19
ENDBRANCH  17  18
ENDBRANCH  15  17
ENDBRANCH   2  15
BRANCH   2  26
ATOM     26  C   UNL     1      -1.421  -1.437   0.000  0.00  0.00    +0.000 C 
ATOM     27  N   UNL     1      -1.412  -2.255   0.000  0.00  0.00    +0.000 NA
ENDBRANCH   2  26
TORSDOF 11
