REMARK  Name = 
REMARK  2 active torsions:
REMARK  status: ('A' for Active; 'I' for Inactive)
REMARK    1  A    between atoms: C_31  and  C_32
REMARK    2  A    between atoms: C_32  and  N_35
REMARK                            x       y       z     vdW  Elec       q    Type
REMARK                         _______ _______ _______ _____ _____    ______ ____
ROOT
ATOM      1  C   UNL     1      -0.667   2.719   0.000  0.00  0.00    +0.000 C 
ATOM      2  C   UNL     1       0.667   2.719   0.000  0.00  0.00    +0.000 C 
ATOM      3  N   UNL     1       0.000   3.206   0.000  0.00  0.00    +0.000 NA
ATOM      4  O   UNL     1      -1.455   2.975   0.000  0.00  0.00    +0.000 OA
ATOM      5  O   UNL     1       1.449   2.975   0.000  0.00  0.00    +0.000 OA
ATOM      6  C   UNL     1      -0.410   1.936   0.000  0.00  0.00    +0.000 C 
ATOM      7  C   UNL     1       0.410   1.936   0.000  0.00  0.00    +0.000 C 
ATOM      8  C   UNL     1       0.410   0.506   0.000  0.00  0.00    +0.000 A 
ATOM      9  C   UNL     1       0.827   1.218   0.000  0.00  0.00    +0.000 A 
ATOM     10  C   UNL     1      -0.827   1.218   0.000  0.00  0.00    +0.000 A 
ATOM     11  C   UNL     1      -0.410   0.506   0.000  0.00  0.00    +0.000 A 
ATOM     12  C   UNL     1       1.718   0.231   0.000  0.00  0.00    +0.000 A 
ATOM     13  C   UNL     1       1.635   1.052   0.000  0.00  0.00    +0.000 A 
ATOM     14  C   UNL     1       2.302   1.532   0.000  0.00  0.00    +0.000 A 
ATOM     15  C   UNL     1       2.475  -0.109   0.000  0.00  0.00    +0.000 A 
ATOM     16  C   UNL     1       3.142   0.378   0.000  0.00  0.00    +0.000 A 
ATOM     17  C   UNL     1       3.052   1.199   0.000  0.00  0.00    +0.000 A 
ATOM     18  C   UNL     1      -1.635   1.052   0.000  0.00  0.00    +0.000 A 
ATOM     19  C   UNL     1      -1.718   0.231   0.000  0.00  0.00    +0.000 A 
ATOM     20  C   UNL     1      -2.302   1.532   0.000  0.00  0.00    +0.000 A 
ATOM     21  C   UNL     1      -3.058   1.199   0.000  0.00  0.00    +0.000 A 
ATOM     22  C   UNL     1      -3.142   0.378   0.000  0.00  0.00    +0.000 A 
ATOM     23  C   UNL     1      -2.475  -0.109   0.000  0.00  0.00    +0.000 A 
ATOM     24  N   UNL     1      -0.968  -0.109   0.000  0.00  0.00    +0.000 N 
ATOM     25  N   UNL     1       0.962  -0.109   0.000  0.00  0.00    +0.000 N 
ATOM     26  C   UNL     1      -0.385  -0.693   0.000  0.00  0.00    +0.000 C 
ATOM     27  C   UNL     1       0.378  -0.693   0.000  0.00  0.00    +0.000 C 
ATOM     28  C   UNL     1       0.795  -1.404   0.000  0.00  0.00    +0.000 C 
ATOM     29  C   UNL     1      -0.795  -1.404   0.000  0.00  0.00    +0.000 C 
ATOM     30  O   UNL     1      -0.385  -2.122   0.000  0.00  0.00    +0.000 OA
ATOM     31  C   UNL     1       0.378  -2.122   0.000  0.00  0.00    +0.000 C 
ENDROOT
BRANCH  31  32
ATOM     32  C   UNL     1       0.795  -2.834   0.000  0.00  0.00    +0.000 C 
BRANCH  32  35
ATOM     33  C   UNL     1       2.174  -3.206   0.000  0.00  0.00    +0.000 C 
ATOM     34  C   UNL     1       1.802  -1.827   0.000  0.00  0.00    +0.000 C 
ATOM     35  N   UNL     1       1.590  -2.623   0.000  0.00  0.00    +0.000 NA
ENDBRANCH  32  35
ENDBRANCH  31  32
TORSDOF 2
