REMARK  Name = 
REMARK  2 active torsions:
REMARK  status: ('A' for Active; 'I' for Inactive)
REMARK    1  A    between atoms: C_1  and  C_8
REMARK    2  A    between atoms: C_8  and  C_9
REMARK                            x       y       z     vdW  Elec       q    Type
REMARK                         _______ _______ _______ _____ _____    ______ ____
ROOT
ATOM      1  C   UNL     1      -0.206   0.000   0.000  0.00  0.00    +0.000 A 
ATOM      2  C   UNL     1      -0.619  -0.714   0.000  0.00  0.00    +0.000 A 
ATOM      3  C   UNL     1      -1.444  -0.714   0.000  0.00  0.00    +0.000 A 
ATOM      4  C   UNL     1      -1.856   0.000   0.000  0.00  0.00    +0.000 A 
ATOM      5  C   UNL     1      -1.444   0.715   0.000  0.00  0.00    +0.000 A 
ATOM      6  C   UNL     1      -0.619   0.715   0.000  0.00  0.00    +0.000 A 
ENDROOT
BRANCH   1   8
ATOM      7  O   UNL     1       0.619  -0.825   0.000  0.00  0.00    +0.000 OA
ATOM      8  C   UNL     1       0.619   0.000   0.000  0.00  0.00    +0.000 C 
ATOM      9  C   UNL     1       0.619   0.825   0.000  0.00  0.00    +0.000 C 
BRANCH   8  10
ATOM     10  C   UNL     1       1.444   0.000   0.000  0.00  0.00    +0.000 C 
ATOM     11  O   UNL     1       1.856  -0.714   0.000  0.00  0.00    +0.000 OA
ATOM     12  O   UNL     1       1.856   0.715   0.000  0.00  0.00    +0.000 OA
ENDBRANCH   8  10
ENDBRANCH   1   8
TORSDOF 2
