REMARK  Name = 
REMARK  14 active torsions:
REMARK  status: ('A' for Active; 'I' for Inactive)
REMARK    1  A    between atoms: O_2  and  C_3
REMARK    2  A    between atoms: C_5  and  N_27
REMARK    3  A    between atoms: C_8  and  C_9
REMARK    4  A    between atoms: C_9  and  N_10
REMARK    5  A    between atoms: N_10  and  C_11
REMARK    6  A    between atoms: C_11  and  C_12
REMARK    7  A    between atoms: C_12  and  C_13
REMARK    8  A    between atoms: C_28  and  C_30
REMARK    9  A    between atoms: C_30  and  C_31
REMARK   10  A    between atoms: C_31  and  N_32
REMARK   11  A    between atoms: C_35  and  O_38
REMARK   12  A    between atoms: O_38  and  C_39
REMARK   13  A    between atoms: N_41  and  C_42
REMARK   14  A    between atoms: C_47  and  C_48
REMARK                            x       y       z     vdW  Elec       q    Type
REMARK                         _______ _______ _______ _____ _____    ______ ____
ROOT
ATOM      1  N   UNL     1      -1.429   5.775   0.000  0.00  0.00    +0.000 NA
ATOM      2  C   UNL     1      -2.143   6.188   0.000  0.00  0.00    +0.000 C 
ATOM      3  O   UNL     1      -2.858   5.775   0.000  0.00  0.00    +0.000 OA
ENDROOT
BRANCH   1   6
ATOM      4  C   UNL     1      -2.143   3.712   0.000  0.00  0.00    +0.000 A 
ATOM      5  C   UNL     1      -2.143   4.537   0.000  0.00  0.00    +0.000 A 
ATOM      6  C   UNL     1      -1.429   4.950   0.000  0.00  0.00    +0.000 A 
ATOM      7  C   UNL     1      -0.715   4.537   0.000  0.00  0.00    +0.000 A 
ATOM      8  C   UNL     1      -0.715   3.712   0.000  0.00  0.00    +0.000 A 
ATOM      9  C   UNL     1      -1.429   3.300   0.000  0.00  0.00    +0.000 A 
ATOM     10 CL   UNL     1       0.000   4.950   0.000  0.00  0.00    +0.000 Cl
BRANCH   4  12
ATOM     11  C   UNL     1      -2.858   2.475   0.000  0.00  0.00    +0.000 C 
ATOM     12  O   UNL     1      -2.858   3.300   0.000  0.00  0.00    +0.000 OA
ENDBRANCH   4  12
BRANCH   9  13
ATOM     13  C   UNL     1      -1.429   2.475   0.000  0.00  0.00    +0.000 C 
BRANCH  13  14
ATOM     14  N   UNL     1      -0.715   2.062   0.000  0.00  0.00    +0.000 NA
BRANCH  14  15
ATOM     15  C   UNL     1      -0.715   1.238   0.000  0.00  0.00    +0.000 C 
BRANCH  15  16
ATOM     16  C   UNL     1       0.000   0.825   0.000  0.00  0.00    +0.000 C 
ATOM     17  O   UNL     1       0.715   1.238   0.000  0.00  0.00    +0.000 OA
BRANCH  16  18
ATOM     18  C   UNL     1       0.000   0.000   0.000  0.00  0.00    +0.000 A 
ATOM     19  C   UNL     1      -0.715  -0.412   0.000  0.00  0.00    +0.000 A 
ATOM     20  C   UNL     1      -0.715  -1.238   0.000  0.00  0.00    +0.000 A 
ATOM     21  C   UNL     1       0.000  -1.650   0.000  0.00  0.00    +0.000 A 
ATOM     22  C   UNL     1       0.715  -1.238   0.000  0.00  0.00    +0.000 A 
ATOM     23  C   UNL     1       0.715  -0.412   0.000  0.00  0.00    +0.000 A 
ATOM     24  C   UNL     1       1.429   0.000   0.000  0.00  0.00    +0.000 A 
ATOM     25  C   UNL     1       2.143  -0.412   0.000  0.00  0.00    +0.000 A 
ATOM     26  C   UNL     1       2.143  -1.238   0.000  0.00  0.00    +0.000 A 
ATOM     27  O   UNL     1       2.858  -1.650   0.000  0.00  0.00    +0.000 OA
ATOM     28  N   UNL     1       1.429  -1.650   0.000  0.00  0.00    +0.000 NA
ATOM     29  O   UNL     1       0.000  -2.475   0.000  0.00  0.00    +0.000 OA
ENDBRANCH  16  18
ENDBRANCH  15  16
ENDBRANCH  14  15
ENDBRANCH  13  14
ENDBRANCH   9  13
ENDBRANCH   1   6
BRANCH   2  30
ATOM     30  C   UNL     1      -2.143   7.013   0.000  0.00  0.00    +0.000 C 
BRANCH  30  31
ATOM     31  C   UNL     1      -2.858   7.425   0.000  0.00  0.00    +0.000 C 
BRANCH  31  32
ATOM     32  N   UNL     1      -2.858   8.250   0.000  0.00  0.00    +0.000 NA
ATOM     33  C   UNL     1      -3.572   8.662   0.000  0.00  0.00    +0.000 C 
ATOM     34  C   UNL     1      -3.572   9.488   0.000  0.00  0.00    +0.000 C 
ATOM     35  C   UNL     1      -2.858   9.900   0.000  0.00  0.00    +0.000 C 
ATOM     36  C   UNL     1      -2.143   9.488   0.000  0.00  0.00    +0.000 C 
ATOM     37  C   UNL     1      -2.143   8.662   0.000  0.00  0.00    +0.000 C 
BRANCH  35  38
ATOM     38  O   UNL     1      -2.858  10.725   0.000  0.00  0.00    +0.000 OA
BRANCH  38  39
ATOM     39  C   UNL     1      -3.572  11.137   0.000  0.00  0.00    +0.000 C 
ATOM     40  O   UNL     1      -4.287  10.725   0.000  0.00  0.00    +0.000 OA
ATOM     41  N   UNL     1      -3.572  11.963   0.000  0.00  0.00    +0.000 NA
BRANCH  41  42
ATOM     42  C   UNL     1      -4.287  12.375   0.000  0.00  0.00    +0.000 A 
ATOM     43  C   UNL     1      -5.001  11.963   0.000  0.00  0.00    +0.000 A 
ATOM     44  C   UNL     1      -5.716  12.375   0.000  0.00  0.00    +0.000 A 
ATOM     45  C   UNL     1      -5.716  13.200   0.000  0.00  0.00    +0.000 A 
ATOM     46  C   UNL     1      -5.001  13.613   0.000  0.00  0.00    +0.000 A 
ATOM     47  C   UNL     1      -4.287  13.200   0.000  0.00  0.00    +0.000 A 
BRANCH  47  48
ATOM     48  C   UNL     1      -3.572  13.613   0.000  0.00  0.00    +0.000 A 
ATOM     49  C   UNL     1      -3.572  14.438   0.000  0.00  0.00    +0.000 A 
ATOM     50  C   UNL     1      -2.858  14.850   0.000  0.00  0.00    +0.000 A 
ATOM     51  C   UNL     1      -2.143  14.438   0.000  0.00  0.00    +0.000 A 
ATOM     52  C   UNL     1      -2.143  13.613   0.000  0.00  0.00    +0.000 A 
ATOM     53  C   UNL     1      -2.858  13.200   0.000  0.00  0.00    +0.000 A 
ENDBRANCH  47  48
ENDBRANCH  41  42
ENDBRANCH  38  39
ENDBRANCH  35  38
ENDBRANCH  31  32
ENDBRANCH  30  31
ENDBRANCH   2  30
TORSDOF 14
