REMARK  Name = 
REMARK  3 active torsions:
REMARK  status: ('A' for Active; 'I' for Inactive)
REMARK    1  A    between atoms: C_8  and  C_12
REMARK    2  A    between atoms: N_13  and  N_14
REMARK    3  A    between atoms: C_15  and  C_16
REMARK                            x       y       z     vdW  Elec       q    Type
REMARK                         _______ _______ _______ _____ _____    ______ ____
ROOT
ATOM      1  C   UNL     1      -0.714   0.206   0.000  0.00  0.00    +0.000 C 
ATOM      2  N   UNL     1       0.000  -0.206   0.000  0.00  0.00    +0.000 NA
ATOM      3  O   UNL     1      -0.714   1.031   0.000  0.00  0.00    +0.000 OA
ENDROOT
BRANCH   1  11
ATOM      4  C   UNL     1      -3.572   0.206   0.000  0.00  0.00    +0.000 A 
ATOM      5  C   UNL     1      -2.858  -0.206   0.000  0.00  0.00    +0.000 A 
ATOM      6  C   UNL     1      -2.858  -1.031   0.000  0.00  0.00    +0.000 A 
ATOM      7  C   UNL     1      -3.572  -1.444   0.000  0.00  0.00    +0.000 A 
ATOM      8  C   UNL     1      -4.287  -1.031   0.000  0.00  0.00    +0.000 A 
ATOM      9  C   UNL     1      -4.287  -0.206   0.000  0.00  0.00    +0.000 A 
ATOM     10  C   UNL     1      -2.143   0.206   0.000  0.00  0.00    +0.000 A 
ATOM     11  C   UNL     1      -1.429  -0.206   0.000  0.00  0.00    +0.000 A 
ATOM     12  C   UNL     1      -1.429  -1.031   0.000  0.00  0.00    +0.000 A 
ATOM     13  C   UNL     1      -2.143  -1.444   0.000  0.00  0.00    +0.000 A 
ATOM     14  O   UNL     1      -0.714  -1.444   0.000  0.00  0.00    +0.000 OA
ENDBRANCH   1  11
BRANCH   2  15
ATOM     15  N   UNL     1       0.715   0.206   0.000  0.00  0.00    +0.000 NA
ATOM     16  C   UNL     1       1.429  -0.206   0.000  0.00  0.00    +0.000 C 
BRANCH  16  17
ATOM     17  C   UNL     1       2.143   0.206   0.000  0.00  0.00    +0.000 A 
ATOM     18  C   UNL     1       2.858  -0.206   0.000  0.00  0.00    +0.000 A 
ATOM     19  C   UNL     1       3.572   0.206   0.000  0.00  0.00    +0.000 A 
ATOM     20  C   UNL     1       3.572   1.031   0.000  0.00  0.00    +0.000 A 
ATOM     21  C   UNL     1       2.858   1.444   0.000  0.00  0.00    +0.000 A 
ATOM     22  C   UNL     1       2.143   1.031   0.000  0.00  0.00    +0.000 A 
ATOM     23  O   UNL     1       4.287   1.444   0.000  0.00  0.00    +0.000 OA
ATOM     24  O   UNL     1       4.287  -0.206   0.000  0.00  0.00    +0.000 OA
ENDBRANCH  16  17
ENDBRANCH   2  15
TORSDOF 3
