REMARK  Name = 
REMARK  4 active torsions:
REMARK  status: ('A' for Active; 'I' for Inactive)
REMARK    1  A    between atoms: C_2  and  C_3
REMARK    2  A    between atoms: C_12  and  O_13
REMARK    3  A    between atoms: O_13  and  C_14
REMARK    4  A    between atoms: C_14  and  C_16
REMARK                            x       y       z     vdW  Elec       q    Type
REMARK                         _______ _______ _______ _____ _____    ______ ____
ROOT
ATOM      1  C   UNL     1       0.110   0.285   0.000  0.00  0.00    +0.000 C 
ATOM      2  C   UNL     1       0.979   0.188   0.000  0.00  0.00    +0.000 C 
ATOM      3  C   UNL     1       0.949   1.023   0.000  0.00  0.00    +0.000 C 
ATOM      4  C   UNL     1       1.586   0.432   0.000  0.00  0.00    +0.000 C 
ATOM      5  C   UNL     1       2.448   0.579   0.000  0.00  0.00    +0.000 C 
ATOM      6  C   UNL     1       2.680  -0.256   0.000  0.00  0.00    +0.000 C 
ATOM      7  C   UNL     1       2.122  -1.072   0.000  0.00  0.00    +0.000 C 
ATOM      8  C   UNL     1       1.319  -1.167   0.000  0.00  0.00    +0.000 C 
ATOM      9  C   UNL     1       1.756  -0.448   0.000  0.00  0.00    +0.000 C 
ATOM     10  C   UNL     1       2.606  -0.969   0.000  0.00  0.00    +0.000 C 
ATOM     11  N   UNL     1       1.069  -0.381   0.000  0.00  0.00    +0.000 NA
ATOM     12  C   UNL     1       0.220  -0.534   0.000  0.00  0.00    +0.000 C 
ATOM     13  O   UNL     1      -0.266  -1.201   0.000  0.00  0.00    +0.000 OA
ATOM     14  C   UNL     1       3.545  -0.146   0.000  0.00  0.00    +0.000 A 
ATOM     15  C   UNL     1       4.198  -0.649   0.000  0.00  0.00    +0.000 A 
ATOM     16  C   UNL     1       4.961  -0.335   0.000  0.00  0.00    +0.000 A 
ATOM     17  C   UNL     1       5.070   0.483   0.000  0.00  0.00    +0.000 A 
ATOM     18  C   UNL     1       4.417   0.986   0.000  0.00  0.00    +0.000 A 
ATOM     19  C   UNL     1       3.654   0.672   0.000  0.00  0.00    +0.000 A 
ATOM     20  N   UNL     1       3.017   1.236   0.000  0.00  0.00    +0.000 N 
ATOM     21  C   UNL     1       2.962   2.059   0.000  0.00  0.00    +0.000 C 
ENDROOT
BRANCH   1  23
ATOM     22  C   UNL     1      -1.274   0.639   0.000  0.00  0.00    +0.000 C 
ATOM     23  C   UNL     1      -0.480   0.861   0.000  0.00  0.00    +0.000 C 
ENDBRANCH   1  23
BRANCH  10  24
ATOM     24  O   UNL     1       2.971  -1.709   0.000  0.00  0.00    +0.000 OA
BRANCH  24  25
ATOM     25  C   UNL     1       3.795  -1.762   0.000  0.00  0.00    +0.000 C 
ATOM     26  O   UNL     1       4.253  -1.076   0.000  0.00  0.00    +0.000 OA
BRANCH  25  27
ATOM     27  C   UNL     1       4.160  -2.502   0.000  0.00  0.00    +0.000 C 
ATOM     28 CL   UNL     1       4.983  -2.555   0.000  0.00  0.00    +0.000 Cl
ENDBRANCH  25  27
ENDBRANCH  24  25
ENDBRANCH  10  24
TORSDOF 4
