REMARK  Name = 
REMARK  11 active torsions:
REMARK  status: ('A' for Active; 'I' for Inactive)
REMARK    1  A    between atoms: C_2  and  C_3
REMARK    2  A    between atoms: C_3  and  C_4
REMARK    3  A    between atoms: C_4  and  C_5
REMARK    4  A    between atoms: C_5  and  C_6
REMARK    5  A    between atoms: C_7  and  N_8
REMARK    6  A    between atoms: N_8  and  C_9
REMARK    7  A    between atoms: C_13  and  C_14
REMARK    8  A    between atoms: C_14  and  C_15
REMARK    9  A    between atoms: C_16  and  C_18
REMARK   10  A    between atoms: C_18  and  C_19
REMARK   11  A    between atoms: C_19  and  C_20
REMARK                            x       y       z     vdW  Elec       q    Type
REMARK                         _______ _______ _______ _____ _____    ______ ____
ROOT
ATOM      1  C   UNL     1       3.572  -2.888   0.000  0.00  0.00    +0.000 C 
ATOM      2  C   UNL     1       4.287  -2.475   0.000  0.00  0.00    +0.000 C 
ATOM      3  C   UNL     1       5.001  -2.888   0.000  0.00  0.00    +0.000 C 
ATOM      4  O   UNL     1       5.716  -2.475   0.000  0.00  0.00    +0.000 OA
ATOM      5  C   UNL     1       5.001  -3.712   0.000  0.00  0.00    +0.000 C 
ATOM      6  C   UNL     1       4.287  -4.125   0.000  0.00  0.00    +0.000 C 
ATOM      7  O   UNL     1       4.287  -4.950   0.000  0.00  0.00    +0.000 OA
ATOM      8  C   UNL     1       3.572  -3.712   0.000  0.00  0.00    +0.000 C 
ATOM      9  O   UNL     1       2.858  -4.125   0.000  0.00  0.00    +0.000 OA
ENDROOT
BRANCH   2  10
ATOM     10  N   UNL     1       4.287  -1.650   0.000  0.00  0.00    +0.000 NA
BRANCH  10  11
ATOM     11  C   UNL     1       3.572  -1.238   0.000  0.00  0.00    +0.000 C 
ATOM     12  C   UNL     1       3.572  -0.412   0.000  0.00  0.00    +0.000 C 
ENDBRANCH  10  11
ENDBRANCH   2  10
BRANCH   1  13
ATOM     13  C   UNL     1       2.858  -2.475   0.000  0.00  0.00    +0.000 C 
BRANCH  13  14
ATOM     14  C   UNL     1       2.143  -2.888   0.000  0.00  0.00    +0.000 C 
BRANCH  14  15
ATOM     15  C   UNL     1       1.429  -2.475   0.000  0.00  0.00    +0.000 C 
BRANCH  15  17
ATOM     16  C   UNL     1       0.000  -2.475   0.000  0.00  0.00    +0.000 C 
ATOM     17  C   UNL     1       0.715  -2.888   0.000  0.00  0.00    +0.000 C 
ENDBRANCH  15  17
ENDBRANCH  14  15
ENDBRANCH  13  14
ENDBRANCH   1  13
BRANCH   5  18
ATOM     18  C   UNL     1       5.716  -4.125   0.000  0.00  0.00    +0.000 C 
BRANCH  18  19
ATOM     19  C   UNL     1       6.430  -3.712   0.000  0.00  0.00    +0.000 C 
ATOM     20  C   UNL     1       7.145  -4.125   0.000  0.00  0.00    +0.000 C 
ATOM     21  C   UNL     1       7.145  -4.950   0.000  0.00  0.00    +0.000 C 
BRANCH  20  22
ATOM     22  C   UNL     1       7.859  -3.712   0.000  0.00  0.00    +0.000 C 
BRANCH  22  23
ATOM     23  C   UNL     1       8.574  -4.125   0.000  0.00  0.00    +0.000 C 
BRANCH  23  24
ATOM     24  C   UNL     1       9.288  -3.712   0.000  0.00  0.00    +0.000 C 
ATOM     25  C   UNL     1      10.003  -4.125   0.000  0.00  0.00    +0.000 C 
ATOM     26  C   UNL     1      10.717  -3.712   0.000  0.00  0.00    +0.000 C 
ATOM     27  C   UNL     1      10.003  -4.950   0.000  0.00  0.00    +0.000 C 
ENDBRANCH  23  24
ENDBRANCH  22  23
ENDBRANCH  20  22
ENDBRANCH  18  19
ENDBRANCH   5  18
TORSDOF 11
