REMARK  Name = 
REMARK  5 active torsions:
REMARK  status: ('A' for Active; 'I' for Inactive)
REMARK    1  A    between atoms: C_2  and  CA_4
REMARK    2  A    between atoms: CA_4  and  CB_6
REMARK    3  A    between atoms: CB_6  and  CG_7
REMARK    4  A    between atoms: CG_7  and  CD_8
REMARK    5  A    between atoms: CD_8  and  NE_9
REMARK                            x       y       z     vdW  Elec       q    Type
REMARK                         _______ _______ _______ _____ _____    ______ ____
ROOT
ATOM      1  CB  ARG A   1       0.715   0.206   0.000  0.00  0.00    +0.000 C 
ENDROOT
BRANCH   1   2
ATOM      2  CA  ARG A   1       1.429  -0.206   0.000  0.00  0.00    +0.000 C 
ATOM      3  N   ARG A   1       1.429  -1.031   0.000  0.00  0.00    +0.000 NA
BRANCH   2   5
ATOM      4  O   ARG A   1       2.143   1.031   0.000  0.00  0.00    +0.000 OA
ATOM      5  C   ARG A   1       2.143   0.206   0.000  0.00  0.00    +0.000 C 
ATOM      6  OXT ARG A   1       2.858  -0.206   0.000  0.00  0.00    +0.000 OA
ENDBRANCH   2   5
ENDBRANCH   1   2
BRANCH   1   7
ATOM      7  CG  ARG A   1       0.000  -0.206   0.000  0.00  0.00    +0.000 C 
BRANCH   7   8
ATOM      8  CD  ARG A   1      -0.714   0.206   0.000  0.00  0.00    +0.000 C 
BRANCH   8   9
ATOM      9  NE  ARG A   1      -1.429  -0.206   0.000  0.00  0.00    +0.000 NA
ATOM     10  CZ  ARG A   1      -2.143   0.206   0.000  0.00  0.00    +0.000 C 
ATOM     11  NH1 ARG A   1      -2.143   1.031   0.000  0.00  0.00    +0.000 NA
ATOM     12  NH2 ARG A   1      -2.858  -0.206   0.000  0.00  0.00    +0.000 NA
ENDBRANCH   8   9
ENDBRANCH   7   8
ENDBRANCH   1   7
TORSDOF 5
