REMARK  Name = 
REMARK  7 active torsions:
REMARK  status: ('A' for Active; 'I' for Inactive)
REMARK    1  A    between atoms: C_10  and  O_31
REMARK    2  A    between atoms: C_13  and  O_31
REMARK    3  A    between atoms: C_14  and  O_33
REMARK    4  A    between atoms: C_20  and  O_50
REMARK    5  A    between atoms: C_22  and  O_33
REMARK    6  A    between atoms: C_26  and  C_46
REMARK    7  A    between atoms: C_27  and  O_51
REMARK                            x       y       z     vdW  Elec       q    Type
REMARK                         _______ _______ _______ _____ _____    ______ ____
ROOT
ATOM      1  C   UNL     1       2.045  -1.980   0.000  0.00  0.00    +0.000 C 
ATOM      2  C   UNL     1       1.325  -2.391   0.000  0.00  0.00    +0.000 C 
ATOM      3  C   UNL     1       1.325  -3.123   0.000  0.00  0.00    +0.000 C 
ATOM      4  C   UNL     1       2.045  -1.164   0.000  0.00  0.00    +0.000 C 
ATOM      5  C   UNL     1       3.527   1.380   0.000  0.00  0.00    +0.000 C 
ATOM      6  C   UNL     1       2.761  -2.391   0.000  0.00  0.00    +0.000 C 
ATOM      7  C   UNL     1       2.761  -3.207   0.000  0.00  0.00    +0.000 C 
ATOM      8  O   UNL     1      -0.026  -3.123   0.000  0.00  0.00    +0.000 OA
ATOM      9  C   UNL     1       0.651  -1.913   0.000  0.00  0.00    +0.000 C 
ATOM     10  C   UNL     1       2.045  -3.630   0.000  0.00  0.00    +0.000 C 
ATOM     11  O   UNL     1       4.242   0.966   0.000  0.00  0.00    +0.000 OA
ATOM     12  O   UNL     1       2.807  -0.674   0.000  0.00  0.00    +0.000 OA
ATOM     13  C   UNL     1      -0.780   1.380   0.000  0.00  0.00    +0.000 C 
ATOM     14  C   UNL     1       3.527   0.552   0.000  0.00  0.00    +0.000 C 
ATOM     15  O   UNL     1       2.807   1.782   0.000  0.00  0.00    +0.000 OA
ATOM     16  C   UNL     1       4.958   1.380   0.000  0.00  0.00    +0.000 C 
ATOM     17  C   UNL     1       2.807   0.142   0.000  0.00  0.00    +0.000 C 
ATOM     18  C   UNL     1      -0.064   1.782   0.000  0.00  0.00    +0.000 C 
ATOM     19  C   UNL     1       3.527   2.188   0.000  0.00  0.00    +0.000 C 
ATOM     20  C   UNL     1       4.242   2.603   0.000  0.00  0.00    +0.000 C 
ATOM     21  C   UNL     1       0.651   1.380   0.000  0.00  0.00    +0.000 C 
ATOM     22  C   UNL     1      -0.026  -2.391   0.000  0.00  0.00    +0.000 C 
ATOM     23  C   UNL     1       0.651  -1.089   0.000  0.00  0.00    +0.000 C 
ATOM     24  O   UNL     1       1.317  -0.767   0.000  0.00  0.00    +0.000 OA
ATOM     25  C   UNL     1      -0.064  -0.704   0.000  0.00  0.00    +0.000 C 
ATOM     26  C   UNL     1       4.958   2.188   0.000  0.00  0.00    +0.000 C 
ATOM     27  C   UNL     1       2.091   0.552   0.000  0.00  0.00    +0.000 C 
ATOM     28  C   UNL     1       2.091   1.380   0.000  0.00  0.00    +0.000 C 
ATOM     29  C   UNL     1      -0.780   0.552   0.000  0.00  0.00    +0.000 C 
ATOM     30  C   UNL     1      -0.064   0.142   0.000  0.00  0.00    +0.000 C 
ATOM     31  O   UNL     1       1.325  -1.566   0.000  0.00  0.00    +0.000 OA
ATOM     32  C   UNL     1       1.371   1.782   0.000  0.00  0.00    +0.000 C 
ATOM     33  O   UNL     1       2.045  -4.446   0.000  0.00  0.00    +0.000 OA
ATOM     34  C   UNL     1       3.485  -3.630   0.000  0.00  0.00    +0.000 C 
ATOM     35  C   UNL     1      -0.064   2.603   0.000  0.00  0.00    +0.000 C 
ATOM     36  C   UNL     1       5.674   2.603   0.000  0.00  0.00    +0.000 C 
ATOM     37  C   UNL     1      -1.500   0.142   0.000  0.00  0.00    +0.000 C 
ENDROOT
BRANCH  16  38
ATOM     38  C   UNL     1       5.674   0.966   0.000  0.00  0.00    +0.000 C 
ATOM     39  C   UNL     1       6.385   1.372   0.000  0.00  0.00    +0.000 C 
ATOM     40  C   UNL     1       5.674   0.142   0.000  0.00  0.00    +0.000 C 
ATOM     41  C   UNL     1       6.385  -0.273   0.000  0.00  0.00    +0.000 C 
ATOM     42  C   UNL     1       7.109   0.966   0.000  0.00  0.00    +0.000 C 
ATOM     43  C   UNL     1       7.109   0.142   0.000  0.00  0.00    +0.000 C 
ENDBRANCH  16  38
BRANCH  13  44
ATOM     44  O   UNL     1      -1.500   1.782   0.000  0.00  0.00    +0.000 OA
BRANCH  44  46
ATOM     45  C   UNL     1      -3.502   3.236   0.000  0.00  0.00    +0.000 C 
ATOM     46  C   UNL     1      -2.113   2.344   0.000  0.00  0.00    +0.000 C 
ATOM     47  O   UNL     1      -2.113   3.170   0.000  0.00  0.00    +0.000 OA
ATOM     48  C   UNL     1      -2.837   1.970   0.000  0.00  0.00    +0.000 C 
ATOM     49  C   UNL     1      -3.502   2.409   0.000  0.00  0.00    +0.000 C 
ATOM     50  C   UNL     1      -2.773   3.614   0.000  0.00  0.00    +0.000 C 
ATOM     51  C   UNL     1      -2.773   4.446   0.000  0.00  0.00    +0.000 C 
BRANCH  49  52
ATOM     52  O   UNL     1      -4.265   2.036   0.000  0.00  0.00    +0.000 OA
ATOM     53  C   UNL     1      -4.265   1.205   0.000  0.00  0.00    +0.000 C 
ENDBRANCH  49  52
BRANCH  45  54
ATOM     54  O   UNL     1      -4.201   3.680   0.000  0.00  0.00    +0.000 OA
BRANCH  54  55
ATOM     55  C   UNL     1      -4.925   3.301   0.000  0.00  0.00    +0.000 C 
ATOM     56  O   UNL     1      -5.620   3.746   0.000  0.00  0.00    +0.000 OA
ATOM     57  C   UNL     1      -4.925   2.480   0.000  0.00  0.00    +0.000 C 
ATOM     58  C   UNL     1      -6.379   2.545   0.000  0.00  0.00    +0.000 C 
ATOM     59  C   UNL     1      -5.686   2.097   0.000  0.00  0.00    +0.000 C 
ATOM     60  C   UNL     1      -6.379   3.364   0.000  0.00  0.00    +0.000 C 
ATOM     61  O   UNL     1      -7.109   2.163   0.000  0.00  0.00    +0.000 OA
ATOM     62  C   UNL     1      -7.032   3.794   0.000  0.00  0.00    +0.000 C 
BRANCH  59  63
ATOM     63  O   UNL     1      -5.686   1.270   0.000  0.00  0.00    +0.000 OA
ATOM     64  C   UNL     1      -5.022   0.823   0.000  0.00  0.00    +0.000 C 
ENDBRANCH  59  63
ENDBRANCH  54  55
ENDBRANCH  45  54
ENDBRANCH  44  46
ENDBRANCH  13  44
TORSDOF 7
