REMARK  Name = 
REMARK  3 active torsions:
REMARK  status: ('A' for Active; 'I' for Inactive)
REMARK    1  A    between atoms: N_7  and  N_8
REMARK    2  A    between atoms: C_9  and  C_11
REMARK    3  A    between atoms: C_15  and  S_17
REMARK                            x       y       z     vdW  Elec       q    Type
REMARK                         _______ _______ _______ _____ _____    ______ ____
ROOT
ATOM      1  N   UNL     1      -1.429  -2.475   0.000  0.00  0.00    +0.000 NA
ATOM      2  C   UNL     1      -1.429  -1.650   0.000  0.00  0.00    +0.000 C 
ATOM      3  O   UNL     1      -0.715  -1.238   0.000  0.00  0.00    +0.000 OA
ENDROOT
BRANCH   1  10
ATOM      4  C   UNL     1       0.000  -1.650   0.000  0.00  0.00    +0.000 C 
ATOM      5  C   UNL     1       0.000  -2.475   0.000  0.00  0.00    +0.000 C 
ATOM      6  C   UNL     1       0.715  -2.888   0.000  0.00  0.00    +0.000 C 
ATOM      7  C   UNL     1       0.715  -3.712   0.000  0.00  0.00    +0.000 C 
ATOM      8  C   UNL     1       0.000  -4.125   0.000  0.00  0.00    +0.000 C 
ATOM      9  C   UNL     1      -0.715  -3.712   0.000  0.00  0.00    +0.000 C 
ATOM     10  N   UNL     1      -0.715  -2.888   0.000  0.00  0.00    +0.000 NA
ATOM     11  C   UNL     1      -1.429  -4.125   0.000  0.00  0.00    +0.000 C 
ENDBRANCH   1  10
BRANCH   2  12
ATOM     12  C   UNL     1      -2.143  -1.238   0.000  0.00  0.00    +0.000 A 
ATOM     13  C   UNL     1      -2.858  -1.650   0.000  0.00  0.00    +0.000 A 
ATOM     14  C   UNL     1      -3.572  -1.238   0.000  0.00  0.00    +0.000 A 
ATOM     15  C   UNL     1      -3.572  -0.412   0.000  0.00  0.00    +0.000 A 
ATOM     16  C   UNL     1      -2.858   0.000   0.000  0.00  0.00    +0.000 A 
ATOM     17  C   UNL     1      -2.143  -0.412   0.000  0.00  0.00    +0.000 A 
ATOM     18 CL   UNL     1      -4.287   0.000   0.000  0.00  0.00    +0.000 Cl
BRANCH  16  19
ATOM     19  S   UNL     1      -2.858   0.825   0.000  0.00  0.00    +0.000 S 
ATOM     20  O   UNL     1      -2.858   1.650   0.000  0.00  0.00    +0.000 OA
ATOM     21  O   UNL     1      -2.033   0.825   0.000  0.00  0.00    +0.000 OA
ATOM     22  N   UNL     1      -3.683   0.825   0.000  0.00  0.00    +0.000 NA
ENDBRANCH  16  19
ENDBRANCH   2  12
TORSDOF 3
