REMARK  Name = 
REMARK  7 active torsions:
REMARK  status: ('A' for Active; 'I' for Inactive)
REMARK    1  A    between atoms: C_2  and  C_3
REMARK    2  A    between atoms: C_3  and  N_4
REMARK    3  A    between atoms: C_10  and  C_12
REMARK    4  A    between atoms: N_15  and  C_17
REMARK    5  A    between atoms: C_17  and  C_18
REMARK    6  A    between atoms: C_22  and  C_24
REMARK    7  A    between atoms: N_28  and  C_31
REMARK                            x       y       z     vdW  Elec       q    Type
REMARK                         _______ _______ _______ _____ _____    ______ ____
ROOT
ATOM      1  N   UNL     1       2.070   1.110   0.000  0.00  0.00    +0.000 N 
ATOM      2  C   UNL     1       1.356   0.698   0.000  0.00  0.00    +0.000 A 
ATOM      3  O   UNL     1       1.356  -0.127   0.000  0.00  0.00    +0.000 OA
ATOM      4  C   UNL     1       0.641   1.110   0.000  0.00  0.00    +0.000 A 
ATOM      5  C   UNL     1       0.641   1.935   0.000  0.00  0.00    +0.000 A 
ATOM      6  N   UNL     1      -0.143   2.190   0.000  0.00  0.00    +0.000 NA
ATOM      7  C   UNL     1      -0.628   1.523   0.000  0.00  0.00    +0.000 A 
ATOM      8  N   UNL     1      -0.143   0.856   0.000  0.00  0.00    +0.000 NA
ATOM      9  N   UNL     1       1.356   2.348   0.000  0.00  0.00    +0.000 N 
ATOM     10  C   UNL     1       2.070   1.935   0.000  0.00  0.00    +0.000 A 
ATOM     11  O   UNL     1       2.784   2.348   0.000  0.00  0.00    +0.000 OA
ENDROOT
BRANCH   7  12
ATOM     12  C   UNL     1      -1.453   1.523   0.000  0.00  0.00    +0.000 A 
ATOM     13  C   UNL     1      -1.938   0.856   0.000  0.00  0.00    +0.000 A 
ATOM     14  N   UNL     1      -2.723   1.110   0.000  0.00  0.00    +0.000 NA
ATOM     15  N   UNL     1      -2.723   1.935   0.000  0.00  0.00    +0.000 N 
ATOM     16  C   UNL     1      -1.938   2.190   0.000  0.00  0.00    +0.000 A 
BRANCH  15  17
ATOM     17  C   UNL     1      -3.390   2.420   0.000  0.00  0.00    +0.000 C 
BRANCH  17  18
ATOM     18  C   UNL     1      -4.144   2.085   0.000  0.00  0.00    +0.000 A 
ATOM     19  C   UNL     1      -4.230   1.264   0.000  0.00  0.00    +0.000 A 
ATOM     20  C   UNL     1      -4.984   0.929   0.000  0.00  0.00    +0.000 A 
ATOM     21  C   UNL     1      -5.651   1.414   0.000  0.00  0.00    +0.000 A 
ATOM     22  C   UNL     1      -5.565   2.234   0.000  0.00  0.00    +0.000 A 
ATOM     23  C   UNL     1      -4.811   2.570   0.000  0.00  0.00    +0.000 A 
BRANCH  22  24
ATOM     24  C   UNL     1      -6.233   2.719   0.000  0.00  0.00    +0.000 C 
ATOM     25  F   UNL     1      -6.900   3.204   0.000  0.00  0.00    +0.000 F 
ATOM     26  F   UNL     1      -5.748   3.386   0.000  0.00  0.00    +0.000 F 
ATOM     27  F   UNL     1      -6.718   2.052   0.000  0.00  0.00    +0.000 F 
ENDBRANCH  22  24
ENDBRANCH  17  18
ENDBRANCH  15  17
ENDBRANCH   7  12
BRANCH   9  28
ATOM     28  C   UNL     1       1.356   3.173   0.000  0.00  0.00    +0.000 C 
ATOM     29  C   UNL     1       2.070   3.585   0.000  0.00  0.00    +0.000 C 
ENDBRANCH   9  28
BRANCH   1  30
ATOM     30  C   UNL     1       2.784   0.698   0.000  0.00  0.00    +0.000 C 
BRANCH  30  32
ATOM     31  C   UNL     1       4.213   0.698   0.000  0.00  0.00    +0.000 C 
ATOM     32  C   UNL     1       3.499   1.110   0.000  0.00  0.00    +0.000 C 
ENDBRANCH  30  32
ENDBRANCH   1  30
TORSDOF 7
