REMARK  Name = 
REMARK  5 active torsions:
REMARK  status: ('A' for Active; 'I' for Inactive)
REMARK    1  A    between atoms: N_4  and  C_5
REMARK    2  A    between atoms: C_5  and  C_6
REMARK    3  A    between atoms: C_8  and  C_30
REMARK    4  A    between atoms: C_10  and  N_11
REMARK    5  A    between atoms: C_17  and  C_19
REMARK                            x       y       z     vdW  Elec       q    Type
REMARK                         _______ _______ _______ _____ _____    ______ ____
ROOT
ATOM      1  C   UNL     1      -3.584   3.623   0.000  0.00  0.00    +0.000 A 
ATOM      2  C   UNL     1      -3.032   4.236   0.000  0.00  0.00    +0.000 A 
ATOM      3  C   UNL     1      -2.225   4.064   0.000  0.00  0.00    +0.000 A 
ATOM      4  C   UNL     1      -1.970   3.280   0.000  0.00  0.00    +0.000 A 
ATOM      5  C   UNL     1      -2.522   2.666   0.000  0.00  0.00    +0.000 A 
ATOM      6  C   UNL     1      -3.329   2.838   0.000  0.00  0.00    +0.000 A 
ENDROOT
BRANCH   5   7
ATOM      7  N   UNL     1      -2.267   1.882   0.000  0.00  0.00    +0.000 NA
ATOM      8  C   UNL     1      -1.460   1.710   0.000  0.00  0.00    +0.000 A 
ATOM      9  N   UNL     1      -0.908   2.323   0.000  0.00  0.00    +0.000 NA
ATOM     10  C   UNL     1      -0.101   2.152   0.000  0.00  0.00    +0.000 A 
ATOM     11  C   UNL     1       0.154   1.367   0.000  0.00  0.00    +0.000 A 
ATOM     12 CL   UNL     1       0.961   1.196   0.000  0.00  0.00    +0.000 Cl
ATOM     13  C   UNL     1      -0.398   0.754   0.000  0.00  0.00    +0.000 A 
ATOM     14  N   UNL     1      -1.205   0.926   0.000  0.00  0.00    +0.000 NA
BRANCH  13  15
ATOM     15  C   UNL     1      -0.143  -0.030   0.000  0.00  0.00    +0.000 A 
ATOM     16  C   UNL     1      -0.628  -0.698   0.000  0.00  0.00    +0.000 A 
ATOM     17  N   UNL     1      -0.143  -1.365   0.000  0.00  0.00    +0.000 NA
ATOM     18  C   UNL     1       0.641  -1.110   0.000  0.00  0.00    +0.000 A 
ATOM     19  C   UNL     1       0.641  -0.285   0.000  0.00  0.00    +0.000 A 
ATOM     20  C   UNL     1       1.356   0.127   0.000  0.00  0.00    +0.000 A 
ATOM     21  C   UNL     1       2.070  -0.285   0.000  0.00  0.00    +0.000 A 
ATOM     22  C   UNL     1       2.070  -1.110   0.000  0.00  0.00    +0.000 A 
ATOM     23  C   UNL     1       2.784  -1.523   0.000  0.00  0.00    +0.000 C 
ATOM     24  C   UNL     1       1.356  -1.523   0.000  0.00  0.00    +0.000 A 
ENDBRANCH  13  15
ENDBRANCH   5   7
BRANCH   3  25
ATOM     25  C   UNL     1      -1.673   4.677   0.000  0.00  0.00    +0.000 C 
ATOM     26  C   UNL     1      -1.502   5.484   0.000  0.00  0.00    +0.000 C 
ATOM     27  C   UNL     1      -0.888   4.932   0.000  0.00  0.00    +0.000 C 
ENDBRANCH   3  25
BRANCH   1  28
ATOM     28  C   UNL     1      -4.391   3.794   0.000  0.00  0.00    +0.000 C 
BRANCH  28  32
ATOM     29  C   UNL     1      -3.797   6.590   0.000  0.00  0.00    +0.000 C 
ATOM     30  C   UNL     1      -4.349   5.976   0.000  0.00  0.00    +0.000 C 
ATOM     31  C   UNL     1      -4.094   5.192   0.000  0.00  0.00    +0.000 C 
ATOM     32  N   UNL     1      -4.646   4.579   0.000  0.00  0.00    +0.000 NA
ATOM     33  C   UNL     1      -5.453   4.750   0.000  0.00  0.00    +0.000 C 
ATOM     34  C   UNL     1      -5.708   5.535   0.000  0.00  0.00    +0.000 C 
ATOM     35  C   UNL     1      -6.515   5.706   0.000  0.00  0.00    +0.000 C 
ATOM     36  N   UNL     1      -5.156   6.148   0.000  0.00  0.00    +0.000 NA
ENDBRANCH  28  32
ENDBRANCH   1  28
TORSDOF 5
