REMARK  Name = 
REMARK  3 active torsions:
REMARK  status: ('A' for Active; 'I' for Inactive)
REMARK    1  A    between atoms: C_7  and  C_18
REMARK    2  A    between atoms: N_20  and  C_21
REMARK    3  A    between atoms: C_21  and  C_22
REMARK                            x       y       z     vdW  Elec       q    Type
REMARK                         _______ _______ _______ _____ _____    ______ ____
ROOT
ATOM      1  C   UNL     1       2.858  -1.650   0.000  0.00  0.00    +0.000 C 
ATOM      2  N   UNL     1       2.858  -2.475   0.000  0.00  0.00    +0.000 N 
ATOM      3  C   UNL     1       3.572  -2.888   0.000  0.00  0.00    +0.000 A 
ATOM      4  O   UNL     1       4.287  -2.475   0.000  0.00  0.00    +0.000 OA
ATOM      5  C   UNL     1       3.572  -3.712   0.000  0.00  0.00    +0.000 A 
ATOM      6  O   UNL     1       4.287  -4.125   0.000  0.00  0.00    +0.000 OA
ATOM      7  C   UNL     1       2.858  -4.125   0.000  0.00  0.00    +0.000 A 
ATOM      8  N   UNL     1       2.143  -3.712   0.000  0.00  0.00    +0.000 NA
ATOM      9  C   UNL     1       2.143  -2.888   0.000  0.00  0.00    +0.000 A 
ATOM     10  N   UNL     1       1.429  -2.475   0.000  0.00  0.00    +0.000 N 
ATOM     11  C   UNL     1       0.715  -2.888   0.000  0.00  0.00    +0.000 C 
ATOM     12  C   UNL     1       0.000  -2.475   0.000  0.00  0.00    +0.000 C 
ATOM     13  C   UNL     1       0.000  -1.650   0.000  0.00  0.00    +0.000 C 
ATOM     14  C   UNL     1       0.715  -1.238   0.000  0.00  0.00    +0.000 C 
ATOM     15  S   UNL     1       1.429  -1.650   0.000  0.00  0.00    +0.000 S 
ATOM     16  O   UNL     1       1.866  -0.950   0.000  0.00  0.00    +0.000 OA
ATOM     17  O   UNL     1       2.253  -1.621   0.000  0.00  0.00    +0.000 OA
ENDROOT
BRANCH   7  18
ATOM     18  C   UNL     1       2.858  -4.950   0.000  0.00  0.00    +0.000 C 
ATOM     19  O   UNL     1       3.572  -5.362   0.000  0.00  0.00    +0.000 OA
ATOM     20  N   UNL     1       2.143  -5.362   0.000  0.00  0.00    +0.000 NA
BRANCH  20  21
ATOM     21  C   UNL     1       2.143  -6.188   0.000  0.00  0.00    +0.000 C 
BRANCH  21  22
ATOM     22  C   UNL     1       1.429  -6.600   0.000  0.00  0.00    +0.000 A 
ATOM     23  C   UNL     1       1.429  -7.425   0.000  0.00  0.00    +0.000 A 
ATOM     24  C   UNL     1       0.715  -7.838   0.000  0.00  0.00    +0.000 A 
ATOM     25  C   UNL     1       0.000  -7.425   0.000  0.00  0.00    +0.000 A 
ATOM     26  F   UNL     1      -0.715  -7.838   0.000  0.00  0.00    +0.000 F 
ATOM     27  C   UNL     1       0.000  -6.600   0.000  0.00  0.00    +0.000 A 
ATOM     28  C   UNL     1       0.715  -6.188   0.000  0.00  0.00    +0.000 A 
ENDBRANCH  21  22
ENDBRANCH  20  21
ENDBRANCH   7  18
TORSDOF 3
