REMARK  Name = 
REMARK  13 active torsions:
REMARK  status: ('A' for Active; 'I' for Inactive)
REMARK    1  A    between atoms: C_2  and  C_3
REMARK    2  A    between atoms: C_3  and  C_4
REMARK    3  A    between atoms: C_4  and  O_5
REMARK    4  A    between atoms: O_5  and  C_6
REMARK    5  A    between atoms: C_6  and  C_8
REMARK    6  A    between atoms: C_16  and  C_17
REMARK    7  A    between atoms: C_17  and  C_18
REMARK    8  A    between atoms: C_18  and  C_19
REMARK    9  A    between atoms: C_19  and  O_21
REMARK   10  A    between atoms: C_41  and  C_42
REMARK   11  A    between atoms: N_46  and  C_47
REMARK   12  A    between atoms: C_47  and  C_48
REMARK   13  A    between atoms: C_48  and  C_49
REMARK                            x       y       z     vdW  Elec       q    Type
REMARK                         _______ _______ _______ _____ _____    ______ ____
ROOT
ATOM      1  C   UNL     1       7.625   3.283   0.000  0.00  0.00    +0.000 A 
ATOM      2  C   UNL     1       7.367   2.499   0.000  0.00  0.00    +0.000 A 
ATOM      3  C   UNL     1       7.815   1.763   0.000  0.00  0.00    +0.000 C 
ATOM      4  C   UNL     1       6.542   2.503   0.000  0.00  0.00    +0.000 A 
ATOM      5  C   UNL     1       5.803   1.726   0.000  0.00  0.00    +0.000 C 
ATOM      6  C   UNL     1       5.008   1.505   0.000  0.00  0.00    +0.000 C 
ATOM      7  N   UNL     1       4.222   1.254   0.000  0.00  0.00    +0.000 NA
ATOM      8  C   UNL     1       3.740   1.923   0.000  0.00  0.00    +0.000 C 
ATOM      9  C   UNL     1       4.228   2.588   0.000  0.00  0.00    +0.000 C 
ATOM     10  C   UNL     1       5.011   2.330   0.000  0.00  0.00    +0.000 C 
ATOM     11  C   UNL     1       5.827   2.304   0.000  0.00  0.00    +0.000 C 
ATOM     12  C   UNL     1       2.963   2.662   0.000  0.00  0.00    +0.000 C 
ATOM     13  C   UNL     1       2.957   3.487   0.000  0.00  0.00    +0.000 A 
ATOM     14  C   UNL     1       2.239   3.894   0.000  0.00  0.00    +0.000 A 
ATOM     15  C   UNL     1       2.405   4.702   0.000  0.00  0.00    +0.000 A 
ATOM     16  C   UNL     1       1.883   5.388   0.000  0.00  0.00    +0.000 C 
ATOM     17  C   UNL     1       3.225   4.794   0.000  0.00  0.00    +0.000 A 
ATOM     18  N   UNL     1       3.566   4.043   0.000  0.00  0.00    +0.000 NA
ATOM     19  C   UNL     1       3.899   5.502   0.000  0.00  0.00    +0.000 C 
ATOM     20  C   UNL     1       4.694   5.722   0.000  0.00  0.00    +0.000 C 
ATOM     21  N   UNL     1       5.176   5.053   0.000  0.00  0.00    +0.000 NA
ATOM     22  C   UNL     1       5.962   5.304   0.000  0.00  0.00    +0.000 C 
ATOM     23  C   UNL     1       6.739   4.566   0.000  0.00  0.00    +0.000 C 
ATOM     24  C   UNL     1       6.960   3.771   0.000  0.00  0.00    +0.000 A 
ATOM     25  N   UNL     1       6.290   3.288   0.000  0.00  0.00    +0.000 NA
ATOM     26  C   UNL     1       5.965   6.129   0.000  0.00  0.00    +0.000 C 
ATOM     27  C   UNL     1       6.639   6.678   0.000  0.00  0.00    +0.000 C 
ATOM     28  C   UNL     1       5.182   6.388   0.000  0.00  0.00    +0.000 C 
ATOM     29  C   UNL     1       1.528   3.476   0.000  0.00  0.00    +0.000 C 
ATOM     30  O   UNL     1       0.866   4.032   0.000  0.00  0.00    +0.000 OA
ATOM     31  N   UNL     1       1.534   2.651   0.000  0.00  0.00    +0.000 N 
ATOM     32  C   UNL     1       2.252   2.244   0.000  0.00  0.00    +0.000 C 
ATOM     33  O   UNL     1       2.201   1.379   0.000  0.00  0.00    +0.000 OA
ENDROOT
BRANCH  28  34
ATOM     34  C   UNL     1       4.952   7.244   0.000  0.00  0.00    +0.000 C 
ATOM     35  C   UNL     1       5.374   7.989   0.000  0.00  0.00    +0.000 C 
ENDBRANCH  28  34
BRANCH   1  36
ATOM     36  C   UNL     1       8.506   3.402   0.000  0.00  0.00    +0.000 C 
ATOM     37  C   UNL     1       9.144   2.822   0.000  0.00  0.00    +0.000 C 
BRANCH  36  38
ATOM     38  O   UNL     1       8.932   4.162   0.000  0.00  0.00    +0.000 OA
BRANCH  38  39
ATOM     39  C   UNL     1       9.650   4.636   0.000  0.00  0.00    +0.000 C 
BRANCH  39  40
ATOM     40  C   UNL     1       9.770   5.491   0.000  0.00  0.00    +0.000 C 
BRANCH  40  42
ATOM     41  C   UNL     1      10.728   6.624   0.000  0.00  0.00    +0.000 C 
ATOM     42  C   UNL     1      10.569   5.796   0.000  0.00  0.00    +0.000 C 
ENDBRANCH  40  42
ENDBRANCH  39  40
ENDBRANCH  38  39
ENDBRANCH  36  38
ENDBRANCH   1  36
BRANCH   9  43
ATOM     43  C   UNL     1       4.152   3.340   0.000  0.00  0.00    +0.000 C 
BRANCH  43  44
ATOM     44  C   UNL     1       4.358   4.138   0.000  0.00  0.00    +0.000 C 
BRANCH  44  45
ATOM     45  C   UNL     1       5.150   4.350   0.000  0.00  0.00    +0.000 C 
ATOM     46  O   UNL     1       4.860   3.661   0.000  0.00  0.00    +0.000 OA
BRANCH  45  47
ATOM     47  O   UNL     1       5.845   4.738   0.000  0.00  0.00    +0.000 OA
ATOM     48  C   UNL     1       6.439   4.139   0.000  0.00  0.00    +0.000 C 
ENDBRANCH  45  47
ENDBRANCH  44  45
ENDBRANCH  43  44
ENDBRANCH   9  43
BRANCH  31  49
ATOM     49  C   UNL     1       0.780   2.206   0.000  0.00  0.00    +0.000 C 
BRANCH  49  50
ATOM     50  C   UNL     1      -0.064   2.395   0.000  0.00  0.00    +0.000 C 
BRANCH  50  51
ATOM     51  C   UNL     1      -0.855   2.061   0.000  0.00  0.00    +0.000 C 
ATOM     52  C   UNL     1      -1.579   2.507   0.000  0.00  0.00    +0.000 C 
ENDBRANCH  50  51
ENDBRANCH  49  50
ENDBRANCH  31  49
TORSDOF 13
