REMARK  Name = 
REMARK  0 active torsions:
REMARK  status: ('A' for Active; 'I' for Inactive)
REMARK                            x       y       z     vdW  Elec       q    Type
REMARK                         _______ _______ _______ _____ _____    ______ ____
ROOT
ATOM      1  C   UNL     1      -0.360  -0.420   0.000  0.00  0.00    +0.000 A 
ATOM      2  C   UNL     1       0.352  -0.005   0.000  0.00  0.00    +0.000 A 
ATOM      3  C   UNL     1      -1.073  -0.005   0.000  0.00  0.00    +0.000 A 
ATOM      4  N   UNL     1      -0.360  -1.241   0.000  0.00  0.00    +0.000 NA
ATOM      5  C   UNL     1       0.352   0.828   0.000  0.00  0.00    +0.000 A 
ATOM      6  N   UNL     1       1.073  -0.428   0.000  0.00  0.00    +0.000 NA
ATOM      7  C   UNL     1      -1.073   0.820   0.000  0.00  0.00    +0.000 A 
ATOM      8  N   UNL     1      -0.360   1.241   0.000  0.00  0.00    +0.000 NA
ENDROOT
TORSDOF 0
