REMARK  Name = 
REMARK  1 active torsions:
REMARK  status: ('A' for Active; 'I' for Inactive)
REMARK    1  A    between atoms: C_13  and  O_21
REMARK                            x       y       z     vdW  Elec       q    Type
REMARK                         _______ _______ _______ _____ _____    ______ ____
ROOT
ATOM      1  C   UNL     1       1.030   1.549   0.000  0.00  0.00    +0.000 C 
ATOM      2  C   UNL     1       1.030   0.120   0.000  0.00  0.00    +0.000 C 
ATOM      3  C   UNL     1       1.855   0.120   0.000  0.00  0.00    +0.000 C 
ATOM      4  C   UNL     1       2.268   0.835   0.000  0.00  0.00    +0.000 C 
ATOM      5  C   UNL     1      -0.982  -1.288   0.000  0.00  0.00    +0.000 A 
ATOM      6  C   UNL     1      -0.267  -1.700   0.000  0.00  0.00    +0.000 A 
ATOM      7  C   UNL     1       1.855   1.549   0.000  0.00  0.00    +0.000 C 
ATOM      8  O   UNL     1       2.268   2.264   0.000  0.00  0.00    +0.000 OA
ATOM      9  C   UNL     1      -0.267  -0.050   0.000  0.00  0.00    +0.000 A 
ATOM     10  O   UNL     1      -0.121   0.761   0.000  0.00  0.00    +0.000 OA
ATOM     11  C   UNL     1       0.618   0.835   0.000  0.00  0.00    +0.000 C 
ATOM     12  C   UNL     1      -0.982  -0.463   0.000  0.00  0.00    +0.000 A 
ATOM     13  C   UNL     1       0.447  -0.463   0.000  0.00  0.00    +0.000 A 
ATOM     14  C   UNL     1       0.447  -1.288   0.000  0.00  0.00    +0.000 A 
ATOM     15  C   UNL     1       1.092  -1.802   0.000  0.00  0.00    +0.000 C 
ATOM     16  C   UNL     1       2.254  -0.875   0.000  0.00  0.00    +0.000 C 
ATOM     17  C   UNL     1       1.896  -0.132   0.000  0.00  0.00    +0.000 C 
ATOM     18  N   UNL     1       1.896  -1.619   0.000  0.00  0.00    +0.000 NA
ATOM     19  C   UNL     1       2.411  -2.264   0.000  0.00  0.00    +0.000 C 
ENDROOT
BRANCH  12  20
ATOM     20  O   UNL     1      -1.696  -0.051   0.000  0.00  0.00    +0.000 OA
ATOM     21  C   UNL     1      -2.411  -0.463   0.000  0.00  0.00    +0.000 C 
ENDBRANCH  12  20
TORSDOF 1
