REMARK  Name = 
REMARK  10 active torsions:
REMARK  status: ('A' for Active; 'I' for Inactive)
REMARK    1  A    between atoms: C_4  and  O_32
REMARK    2  A    between atoms: C_8  and  O_21
REMARK    3  A    between atoms: C_9  and  O_19
REMARK    4  A    between atoms: C_11  and  N_12
REMARK    5  A    between atoms: N_12  and  C_13
REMARK    6  A    between atoms: C_13  and  C_15
REMARK    7  A    between atoms: C_15  and  C_16
REMARK    8  A    between atoms: C_16  and  C_17
REMARK    9  A    between atoms: O_21  and  C_22
REMARK   10  A    between atoms: C_26  and  C_28
REMARK                            x       y       z     vdW  Elec       q    Type
REMARK                         _______ _______ _______ _____ _____    ______ ____
ROOT
ATOM      1  C   UNL     1       0.000  -3.300   0.000  0.00  0.00    +0.000 C 
ATOM      2  C   UNL     1       0.715  -2.888   0.000  0.00  0.00    +0.000 A 
ATOM      3  C   UNL     1       1.429  -3.300   0.000  0.00  0.00    +0.000 A 
ATOM      4  C   UNL     1       2.143  -2.888   0.000  0.00  0.00    +0.000 A 
ATOM      5  N   UNL     1       2.143  -2.062   0.000  0.00  0.00    +0.000 NA
ATOM      6  C   UNL     1       1.429  -1.650   0.000  0.00  0.00    +0.000 A 
ATOM      7  C   UNL     1       0.715  -2.062   0.000  0.00  0.00    +0.000 A 
ATOM      8  C   UNL     1       0.000  -1.650   0.000  0.00  0.00    +0.000 A 
ATOM      9  C   UNL     1       0.000  -0.825   0.000  0.00  0.00    +0.000 A 
ATOM     10  C   UNL     1       0.715  -0.412   0.000  0.00  0.00    +0.000 A 
ATOM     11  C   UNL     1       1.429  -0.825   0.000  0.00  0.00    +0.000 A 
ENDROOT
BRANCH   4  12
ATOM     12  O   UNL     1       2.858  -3.300   0.000  0.00  0.00    +0.000 OA
ATOM     13  C   UNL     1       2.858  -4.125   0.000  0.00  0.00    +0.000 C 
ENDBRANCH   4  12
BRANCH   9  14
ATOM     14  O   UNL     1      -0.715  -0.412   0.000  0.00  0.00    +0.000 OA
ATOM     15  C   UNL     1      -0.715   0.412   0.000  0.00  0.00    +0.000 C 
ENDBRANCH   9  14
BRANCH  11  16
ATOM     16  N   UNL     1       2.143  -0.412   0.000  0.00  0.00    +0.000 NA
BRANCH  16  17
ATOM     17  C   UNL     1       2.858  -0.825   0.000  0.00  0.00    +0.000 C 
ATOM     18  C   UNL     1       2.858  -1.650   0.000  0.00  0.00    +0.000 C 
BRANCH  17  19
ATOM     19  C   UNL     1       3.572  -0.412   0.000  0.00  0.00    +0.000 C 
BRANCH  19  20
ATOM     20  C   UNL     1       4.287  -0.825   0.000  0.00  0.00    +0.000 C 
BRANCH  20  21
ATOM     21  C   UNL     1       5.001  -0.412   0.000  0.00  0.00    +0.000 C 
ATOM     22  N   UNL     1       5.716  -0.825   0.000  0.00  0.00    +0.000 NA
ENDBRANCH  20  21
ENDBRANCH  19  20
ENDBRANCH  17  19
ENDBRANCH  16  17
ENDBRANCH  11  16
BRANCH   8  23
ATOM     23  O   UNL     1      -0.715  -2.062   0.000  0.00  0.00    +0.000 OA
BRANCH  23  24
ATOM     24  C   UNL     1      -1.429  -1.650   0.000  0.00  0.00    +0.000 A 
ATOM     25  C   UNL     1      -2.143  -2.062   0.000  0.00  0.00    +0.000 A 
ATOM     26  C   UNL     1      -2.858  -1.650   0.000  0.00  0.00    +0.000 A 
ATOM     27  C   UNL     1      -2.858  -0.825   0.000  0.00  0.00    +0.000 A 
ATOM     28  C   UNL     1      -2.143  -0.412   0.000  0.00  0.00    +0.000 A 
ATOM     29  C   UNL     1      -1.429  -0.825   0.000  0.00  0.00    +0.000 A 
BRANCH  28  30
ATOM     30  C   UNL     1      -2.143   0.412   0.000  0.00  0.00    +0.000 C 
ATOM     31  F   UNL     1      -2.143   1.238   0.000  0.00  0.00    +0.000 F 
ATOM     32  F   UNL     1      -1.318   0.412   0.000  0.00  0.00    +0.000 F 
ATOM     33  F   UNL     1      -2.968   0.412   0.000  0.00  0.00    +0.000 F 
ENDBRANCH  28  30
ENDBRANCH  23  24
ENDBRANCH   8  23
TORSDOF 10
