REMARK  Name = 
REMARK  7 active torsions:
REMARK  status: ('A' for Active; 'I' for Inactive)
REMARK    1  A    between atoms: C_2  and  C_7
REMARK    2  A    between atoms: C_4  and  N_38
REMARK    3  A    between atoms: C_7  and  N_8
REMARK    4  A    between atoms: N_8  and  C_9
REMARK    5  A    between atoms: C_9  and  C_10
REMARK    6  A    between atoms: C_23  and  N_31
REMARK    7  A    between atoms: C_25  and  C_26
REMARK                            x       y       z     vdW  Elec       q    Type
REMARK                         _______ _______ _______ _____ _____    ______ ____
ROOT
ATOM      1  C   UNL     1      -1.072   1.061   0.000  0.00  0.00    +0.000 A 
ATOM      2  C   UNL     1      -1.786   0.649   0.000  0.00  0.00    +0.000 A 
ATOM      3  C   UNL     1      -1.786  -0.176   0.000  0.00  0.00    +0.000 A 
ATOM      4  C   UNL     1      -1.072  -0.589   0.000  0.00  0.00    +0.000 A 
ATOM      5  C   UNL     1      -0.357  -0.176   0.000  0.00  0.00    +0.000 A 
ATOM      6  C   UNL     1      -0.357   0.649   0.000  0.00  0.00    +0.000 A 
ATOM      7  C   UNL     1       0.357   1.061   0.000  0.00  0.00    +0.000 C 
ATOM      8  C   UNL     1       0.357  -0.589   0.000  0.00  0.00    +0.000 C 
ATOM      9  C   UNL     1       1.072  -0.176   0.000  0.00  0.00    +0.000 C 
ATOM     10  C   UNL     1       1.072   0.649   0.000  0.00  0.00    +0.000 C 
ATOM     11  C   UNL     1       1.786   1.061   0.000  0.00  0.00    +0.000 C 
ATOM     12  C   UNL     1       1.786  -0.589   0.000  0.00  0.00    +0.000 C 
ATOM     13  C   UNL     1       2.501  -0.176   0.000  0.00  0.00    +0.000 C 
ATOM     14  C   UNL     1       2.501   0.649   0.000  0.00  0.00    +0.000 C 
ATOM     15  C   UNL     1       3.215   1.061   0.000  0.00  0.00    +0.000 C 
ATOM     16  C   UNL     1       3.215  -0.589   0.000  0.00  0.00    +0.000 C 
ATOM     17  C   UNL     1       3.930  -0.176   0.000  0.00  0.00    +0.000 C 
ATOM     18  C   UNL     1       3.930   0.649   0.000  0.00  0.00    +0.000 C 
ATOM     19  O   UNL     1       4.644  -0.589   0.000  0.00  0.00    +0.000 OA
ATOM     20  O   UNL     1       3.215   1.886   0.000  0.00  0.00    +0.000 OA
ATOM     21  O   UNL     1       2.501   1.474   0.000  0.00  0.00    +0.000 OA
ATOM     22  O   UNL     1       1.786   1.886   0.000  0.00  0.00    +0.000 OA
ATOM     23  O   UNL     1       0.357   1.886   0.000  0.00  0.00    +0.000 OA
ATOM     24  O   UNL     1      -1.072   1.886   0.000  0.00  0.00    +0.000 OA
ENDROOT
BRANCH  18  25
ATOM     25  C   UNL     1       4.644   1.061   0.000  0.00  0.00    +0.000 C 
ATOM     26  O   UNL     1       4.644   1.886   0.000  0.00  0.00    +0.000 OA
ATOM     27  N   UNL     1       5.358   0.649   0.000  0.00  0.00    +0.000 NA
ENDBRANCH  18  25
BRANCH  16  28
ATOM     28  N   UNL     1       3.799  -1.172   0.000  0.00  0.00    +0.000 NA
ATOM     29  C   UNL     1       4.623  -1.172   0.000  0.00  0.00    +0.000 C 
ATOM     30  C   UNL     1       3.386  -1.886   0.000  0.00  0.00    +0.000 C 
ENDBRANCH  16  28
BRANCH   4  31
ATOM     31  N   UNL     1      -1.072  -1.413   0.000  0.00  0.00    +0.000 N 
ATOM     32  C   UNL     1      -0.357  -1.826   0.000  0.00  0.00    +0.000 C 
ATOM     33  C   UNL     1      -1.786  -1.826   0.000  0.00  0.00    +0.000 C 
ENDBRANCH   4  31
BRANCH   2  34
ATOM     34  C   UNL     1      -2.501   1.061   0.000  0.00  0.00    +0.000 C 
BRANCH  34  35
ATOM     35  N   UNL     1      -3.215   0.649   0.000  0.00  0.00    +0.000 NA
BRANCH  35  36
ATOM     36  C   UNL     1      -3.929   1.061   0.000  0.00  0.00    +0.000 C 
BRANCH  36  37
ATOM     37  C   UNL     1      -4.644   0.649   0.000  0.00  0.00    +0.000 C 
ATOM     38  C   UNL     1      -5.359   1.061   0.000  0.00  0.00    +0.000 C 
ATOM     39  C   UNL     1      -5.359   0.236   0.000  0.00  0.00    +0.000 C 
ATOM     40  C   UNL     1      -4.430  -0.148   0.000  0.00  0.00    +0.000 C 
ENDBRANCH  36  37
ENDBRANCH  35  36
ENDBRANCH  34  35
ENDBRANCH   2  34
TORSDOF 7
