REMARK  Name = 
REMARK  4 active torsions:
REMARK  status: ('A' for Active; 'I' for Inactive)
REMARK    1  A    between atoms: P_1  and  O_4
REMARK    2  A    between atoms: O_4  and  C_21
REMARK    3  A    between atoms: N_11  and  C_13
REMARK    4  A    between atoms: C_14  and  C_21
REMARK                            x       y       z     vdW  Elec       q    Type
REMARK                         _______ _______ _______ _____ _____    ______ ____
ROOT
ATOM      1  O   UNL     1       0.466  -0.618   0.000  0.00  0.00    +0.000 OA
ATOM      2  O   UNL     1      -0.434  -2.547   0.000  0.00  0.00    +0.000 OA
ATOM      3  C   UNL     1       1.139  -1.097   0.000  0.00  0.00    +0.000 C 
ATOM      4  C   UNL     1      -0.194  -1.097   0.000  0.00  0.00    +0.000 C 
ATOM      5  C   UNL     1       0.052  -1.881   0.000  0.00  0.00    +0.000 C 
ATOM      6  C   UNL     1       0.880  -1.881   0.000  0.00  0.00    +0.000 C 
ENDROOT
BRANCH   3  10
ATOM      7  F   UNL     1       3.237   1.725   0.000  0.00  0.00    +0.000 F 
ATOM      8  O   UNL     1       0.375   0.068   0.000  0.00  0.00    +0.000 OA
ATOM      9  O   UNL     1       1.800   2.547   0.000  0.00  0.00    +0.000 OA
ATOM     10  N   UNL     1       1.800   0.061   0.000  0.00  0.00    +0.000 N 
ATOM     11  N   UNL     1       1.094   1.311   0.000  0.00  0.00    +0.000 NA
ATOM     12  C   UNL     1       1.094   0.482   0.000  0.00  0.00    +0.000 A 
ATOM     13  C   UNL     1       2.525   0.482   0.000  0.00  0.00    +0.000 A 
ATOM     14  C   UNL     1       2.525   1.311   0.000  0.00  0.00    +0.000 A 
ATOM     15  C   UNL     1       1.800   1.725   0.000  0.00  0.00    +0.000 A 
ENDBRANCH   3  10
BRANCH   4  16
ATOM     16  C   UNL     1      -0.977  -0.838   0.000  0.00  0.00    +0.000 C 
BRANCH  16  17
ATOM     17  O   UNL     1      -1.592  -1.389   0.000  0.00  0.00    +0.000 OA
BRANCH  17  18
ATOM     18  P   UNL     1      -2.414  -1.389   0.000  0.00  0.00    +0.000 P 
ATOM     19  O   UNL     1      -2.414  -2.204   0.000  0.00  0.00    +0.000 OA
ATOM     20  O   UNL     1      -3.237  -1.389   0.000  0.00  0.00    +0.000 OA
ATOM     21  O   UNL     1      -2.414  -0.560   0.000  0.00  0.00    +0.000 OA
ENDBRANCH  17  18
ENDBRANCH  16  17
ENDBRANCH   4  16
TORSDOF 4
