REMARK  Name = 
REMARK  8 active torsions:
REMARK  status: ('A' for Active; 'I' for Inactive)
REMARK    1  A    between atoms: C_1  and  N_2
REMARK    2  A    between atoms: N_2  and  C_5
REMARK    3  A    between atoms: N_2  and  C_6
REMARK    4  A    between atoms: C_5  and  C_18
REMARK    5  A    between atoms: C_6  and  C_16
REMARK    6  A    between atoms: C_9  and  C_10
REMARK    7  A    between atoms: C_10  and  CA_11
REMARK    8  A    between atoms: CA_11  and  C_12
REMARK                            x       y       z     vdW  Elec       q    Type
REMARK                         _______ _______ _______ _____ _____    ______ ____
ROOT
ATOM      1  C   UNL     1      12.367 -12.531   0.000  0.00  0.00    +0.000 A 
ATOM      2  C   UNL     1      13.081 -12.939   0.000  0.00  0.00    +0.000 A 
ATOM      3  C   UNL     1      12.367 -11.705   0.000  0.00  0.00    +0.000 A 
ATOM      4  C   UNL     1      13.797 -12.531   0.000  0.00  0.00    +0.000 A 
ATOM      5  C   UNL     1      13.081 -11.290   0.000  0.00  0.00    +0.000 A 
ATOM      6  C   UNL     1      13.794 -11.712   0.000  0.00  0.00    +0.000 A 
ENDROOT
BRANCH   1   7
ATOM      7  N   UNL     1      11.654 -12.939   0.000  0.00  0.00    +0.000 N 
BRANCH   7   8
ATOM      8  C   UNL     1      10.938 -12.531   0.000  0.00  0.00    +0.000 C 
BRANCH   8   9
ATOM      9  C   UNL     1      10.936 -11.722   0.000  0.00  0.00    +0.000 C 
ATOM     10 CL   UNL     1      10.214 -11.307   0.000  0.00  0.00    +0.000 Cl
ENDBRANCH   8   9
ENDBRANCH   7   8
BRANCH   7  11
ATOM     11  C   UNL     1      11.654 -13.766   0.000  0.00  0.00    +0.000 C 
BRANCH  11  12
ATOM     12  C   UNL     1      12.379 -14.184   0.000  0.00  0.00    +0.000 C 
ATOM     13 CL   UNL     1      12.379 -15.011   0.000  0.00  0.00    +0.000 Cl
ENDBRANCH  11  12
ENDBRANCH   7  11
ENDBRANCH   1   7
BRANCH   6  14
ATOM     14  C   UNL     1      14.507 -11.297   0.000  0.00  0.00    +0.000 C 
BRANCH  14  15
ATOM     15  CA  UNL     1      15.220 -11.712   0.000  0.00  0.00    +0.000 C 
ATOM     16  N   UNL     1      15.220 -12.535   0.000  0.00  0.00    +0.000 NA
BRANCH  15  17
ATOM     17  C   UNL     1      15.937 -11.297   0.000  0.00  0.00    +0.000 C 
ATOM     18  O   UNL     1      16.646 -11.712   0.000  0.00  0.00    +0.000 OA
ATOM     19  OXT UNL     1      15.937 -10.471   0.000  0.00  0.00    +0.000 OA
ENDBRANCH  15  17
ENDBRANCH  14  15
ENDBRANCH   6  14
TORSDOF 8
