REMARK  Name = 
REMARK  8 active torsions:
REMARK  status: ('A' for Active; 'I' for Inactive)
REMARK    1  A    between atoms: C_2  and  C_3
REMARK    2  A    between atoms: C_3  and  C_4
REMARK    3  A    between atoms: C_4  and  C_5
REMARK    4  A    between atoms: C_4  and  N_11
REMARK    5  A    between atoms: N_11  and  C_12
REMARK    6  A    between atoms: C_13  and  N_18
REMARK    7  A    between atoms: N_18  and  C_19
REMARK    8  A    between atoms: C_23  and  C_26
REMARK                            x       y       z     vdW  Elec       q    Type
REMARK                         _______ _______ _______ _____ _____    ______ ____
ROOT
ATOM      1  C   UNL     1       3.896  -4.701   0.000  0.00  0.00    +0.000 C 
ATOM      2  C   UNL     1       4.480  -5.284   0.000  0.00  0.00    +0.000 C 
ATOM      3  C   UNL     1       3.896  -5.868   0.000  0.00  0.00    +0.000 C 
ATOM      4  O   UNL     1       3.896  -6.693   0.000  0.00  0.00    +0.000 OA
ATOM      5  C   UNL     1       3.313  -5.284   0.000  0.00  0.00    +0.000 C 
ATOM      6  O   UNL     1       2.488  -5.284   0.000  0.00  0.00    +0.000 OA
ENDROOT
BRANCH   2   7
ATOM      7  N   UNL     1       5.305  -5.284   0.000  0.00  0.00    +0.000 NA
BRANCH   7   8
ATOM      8  C   UNL     1       5.717  -5.999   0.000  0.00  0.00    +0.000 A 
ATOM      9  C   UNL     1       6.542  -5.999   0.000  0.00  0.00    +0.000 A 
ATOM     10  C   UNL     1       6.955  -6.713   0.000  0.00  0.00    +0.000 A 
ATOM     11  C   UNL     1       6.542  -7.428   0.000  0.00  0.00    +0.000 A 
ATOM     12  C   UNL     1       5.717  -7.428   0.000  0.00  0.00    +0.000 A 
ATOM     13  C   UNL     1       5.305  -6.713   0.000  0.00  0.00    +0.000 A 
ATOM     14  O   UNL     1       4.480  -6.713   0.000  0.00  0.00    +0.000 OA
BRANCH  12  15
ATOM     15  C   UNL     1       5.305  -8.142   0.000  0.00  0.00    +0.000 C 
ATOM     16  O   UNL     1       5.717  -8.857   0.000  0.00  0.00    +0.000 OA
ATOM     17  N   UNL     1       4.480  -8.142   0.000  0.00  0.00    +0.000 N 
ATOM     18  C   UNL     1       4.067  -8.857   0.000  0.00  0.00    +0.000 C 
ATOM     19  C   UNL     1       4.067  -7.428   0.000  0.00  0.00    +0.000 C 
ENDBRANCH  12  15
ENDBRANCH   7   8
ENDBRANCH   2   7
BRANCH   1  20
ATOM     20  N   UNL     1       3.896  -3.876   0.000  0.00  0.00    +0.000 NA
BRANCH  20  21
ATOM     21  C   UNL     1       3.182  -3.463   0.000  0.00  0.00    +0.000 C 
BRANCH  21  22
ATOM     22  C   UNL     1       3.182  -2.638   0.000  0.00  0.00    +0.000 A 
ATOM     23  C   UNL     1       3.849  -2.153   0.000  0.00  0.00    +0.000 A 
ATOM     24  C   UNL     1       3.594  -1.369   0.000  0.00  0.00    +0.000 A 
ATOM     25  C   UNL     1       2.769  -1.369   0.000  0.00  0.00    +0.000 A 
ATOM     26  O   UNL     1       2.514  -2.153   0.000  0.00  0.00    +0.000 OA
ATOM     27  C   UNL     1       2.284  -0.701   0.000  0.00  0.00    +0.000 C 
ENDBRANCH  21  22
BRANCH  21  28
ATOM     28  C   UNL     1       2.467  -3.876   0.000  0.00  0.00    +0.000 C 
BRANCH  28  30
ATOM     29  C   UNL     1       1.753  -5.113   0.000  0.00  0.00    +0.000 C 
ATOM     30  C   UNL     1       2.467  -4.701   0.000  0.00  0.00    +0.000 C 
ENDBRANCH  28  30
ENDBRANCH  21  28
ENDBRANCH  20  21
ENDBRANCH   1  20
TORSDOF 8
