REMARK  Name = 
REMARK  2 active torsions:
REMARK  status: ('A' for Active; 'I' for Inactive)
REMARK    1  A    between atoms: C_7  and  C_10
REMARK    2  A    between atoms: C_10  and  C_11
REMARK                            x       y       z     vdW  Elec       q    Type
REMARK                         _______ _______ _______ _____ _____    ______ ____
ROOT
ATOM      1  C   UNL     1      -1.051  -1.617   0.000  0.00  0.00    +0.000 A 
ATOM      2  C   UNL     1      -0.336  -1.204   0.000  0.00  0.00    +0.000 A 
ATOM      3  C   UNL     1      -0.336  -0.379   0.000  0.00  0.00    +0.000 A 
ATOM      4  C   UNL     1      -1.051   0.033   0.000  0.00  0.00    +0.000 A 
ATOM      5  C   UNL     1      -1.765  -0.379   0.000  0.00  0.00    +0.000 A 
ATOM      6  C   UNL     1      -1.765  -1.204   0.000  0.00  0.00    +0.000 A 
ATOM      7  C   UNL     1       0.448  -0.124   0.000  0.00  0.00    +0.000 A 
ATOM      8  N   UNL     1       0.448  -1.459   0.000  0.00  0.00    +0.000 NA
ATOM      9  C   UNL     1       0.933  -0.791   0.000  0.00  0.00    +0.000 A 
ENDROOT
BRANCH   7  10
ATOM     10  C   UNL     1       0.703   0.660   0.000  0.00  0.00    +0.000 C 
BRANCH  10  11
ATOM     11  C   UNL     1       1.510   0.832   0.000  0.00  0.00    +0.000 C 
ATOM     12  N   UNL     1       1.765   1.617   0.000  0.00  0.00    +0.000 NA
ENDBRANCH  10  11
ENDBRANCH   7  10
TORSDOF 2
