REMARK  Name = 
REMARK  6 active torsions:
REMARK  status: ('A' for Active; 'I' for Inactive)
REMARK    1  A    between atoms: C_5  and  C_7
REMARK    2  A    between atoms: N_12  and  C_16
REMARK    3  A    between atoms: C_16  and  C_17
REMARK    4  A    between atoms: C_20  and  C_23
REMARK    5  A    between atoms: C_26  and  C_33
REMARK    6  A    between atoms: C_28  and  C_29
REMARK                            x       y       z     vdW  Elec       q    Type
REMARK                         _______ _______ _______ _____ _____    ______ ____
ROOT
ATOM      1  C   UNL     1       4.067  -2.348   0.000  0.00  0.00    +0.000 A 
ATOM      2  C   UNL     1       4.781  -2.760   0.000  0.00  0.00    +0.000 A 
ATOM      3  C   UNL     1       4.781  -3.585   0.000  0.00  0.00    +0.000 A 
ATOM      4  C   UNL     1       4.067  -3.998   0.000  0.00  0.00    +0.000 A 
ATOM      5  N   UNL     1       3.352  -3.585   0.000  0.00  0.00    +0.000 NA
ATOM      6  N   UNL     1       3.352  -2.760   0.000  0.00  0.00    +0.000 NA
ENDROOT
BRANCH   4   7
ATOM      7  C   UNL     1       4.067  -4.823   0.000  0.00  0.00    +0.000 A 
ATOM      8  C   UNL     1       4.781  -5.235   0.000  0.00  0.00    +0.000 A 
ATOM      9  C   UNL     1       4.781  -6.060   0.000  0.00  0.00    +0.000 A 
ATOM     10  C   UNL     1       4.067  -6.473   0.000  0.00  0.00    +0.000 A 
ATOM     11  C   UNL     1       3.352  -6.060   0.000  0.00  0.00    +0.000 A 
ATOM     12  C   UNL     1       3.352  -5.235   0.000  0.00  0.00    +0.000 A 
BRANCH  12  13
ATOM     13  C   UNL     1       2.638  -4.823   0.000  0.00  0.00    +0.000 C 
ATOM     14  F   UNL     1       1.923  -4.410   0.000  0.00  0.00    +0.000 F 
ATOM     15  F   UNL     1       3.050  -4.109   0.000  0.00  0.00    +0.000 F 
ATOM     16  F   UNL     1       2.225  -5.537   0.000  0.00  0.00    +0.000 F 
ENDBRANCH  12  13
BRANCH  10  17
ATOM     17  C   UNL     1       4.067  -7.298   0.000  0.00  0.00    +0.000 C 
ATOM     18  F   UNL     1       4.067  -8.123   0.000  0.00  0.00    +0.000 F 
ATOM     19  F   UNL     1       3.242  -7.298   0.000  0.00  0.00    +0.000 F 
ATOM     20  F   UNL     1       4.892  -7.298   0.000  0.00  0.00    +0.000 F 
ENDBRANCH  10  17
ENDBRANCH   4   7
BRANCH   1  21
ATOM     21  C   UNL     1       4.067  -1.523   0.000  0.00  0.00    +0.000 C 
BRANCH  21  27
ATOM     22  C   UNL     1       0.654  -0.698   0.000  0.00  0.00    +0.000 A 
ATOM     23  N   UNL     1       1.139  -0.030   0.000  0.00  0.00    +0.000 NA
ATOM     24  C   UNL     1       1.923  -0.285   0.000  0.00  0.00    +0.000 A 
ATOM     25  C   UNL     1       2.638   0.127   0.000  0.00  0.00    +0.000 A 
ATOM     26  C   UNL     1       3.352  -0.285   0.000  0.00  0.00    +0.000 A 
ATOM     27  N   UNL     1       3.352  -1.110   0.000  0.00  0.00    +0.000 N 
ATOM     28  C   UNL     1       2.638  -1.523   0.000  0.00  0.00    +0.000 A 
ATOM     29  C   UNL     1       1.923  -1.110   0.000  0.00  0.00    +0.000 A 
ATOM     30  N   UNL     1       1.139  -1.365   0.000  0.00  0.00    +0.000 NA
BRANCH  22  35
ATOM     31  C   UNL     1      -1.409  -1.412   0.000  0.00  0.00    +0.000 A 
ATOM     32  C   UNL     1      -1.821  -0.698   0.000  0.00  0.00    +0.000 A 
ATOM     33  C   UNL     1      -1.409   0.017   0.000  0.00  0.00    +0.000 A 
ATOM     34  C   UNL     1      -0.584   0.017   0.000  0.00  0.00    +0.000 A 
ATOM     35  C   UNL     1      -0.171  -0.698   0.000  0.00  0.00    +0.000 A 
ATOM     36  C   UNL     1      -0.584  -1.412   0.000  0.00  0.00    +0.000 A 
ATOM     37  F   UNL     1      -0.171   0.731   0.000  0.00  0.00    +0.000 F 
ENDBRANCH  22  35
ENDBRANCH  21  27
ENDBRANCH   1  21
TORSDOF 6
