REMARK  Name = 
REMARK  4 active torsions:
REMARK  status: ('A' for Active; 'I' for Inactive)
REMARK    1  A    between atoms: C_11  and  C_15
REMARK    2  A    between atoms: C_11  and  N_18
REMARK    3  A    between atoms: C_12  and  C_16
REMARK    4  A    between atoms: C_12  and  N_19
REMARK                            x       y       z     vdW  Elec       q    Type
REMARK                         _______ _______ _______ _____ _____    ______ ____
ROOT
ATOM      1  C   UNL     1      -1.429   5.775   0.000  0.00  0.00    +0.000 C 
ATOM      2  C   UNL     1      -2.858   5.775   0.000  0.00  0.00    +0.000 C 
ATOM      3  C   UNL     1      -2.143   4.537   0.000  0.00  0.00    +0.000 C 
ATOM      4  N   UNL     1      -2.143   6.188   0.000  0.00  0.00    +0.000 NA
ATOM      5  N   UNL     1      -1.429   4.950   0.000  0.00  0.00    +0.000 N 
ATOM      6  S   UNL     1      -2.143   3.712   0.000  0.00  0.00    +0.000 S 
ATOM      7  S   UNL     1      -2.858   4.950   0.000  0.00  0.00    +0.000 S 
ENDROOT
BRANCH   4   8
ATOM      8  C   UNL     1      -2.143   7.013   0.000  0.00  0.00    +0.000 C 
BRANCH   8  14
ATOM      9  C   UNL     1      -4.287   8.250   0.000  0.00  0.00    +0.000 A 
ATOM     10  C   UNL     1      -4.287   7.425   0.000  0.00  0.00    +0.000 A 
ATOM     11  C   UNL     1      -3.572   8.662   0.000  0.00  0.00    +0.000 A 
ATOM     12  C   UNL     1      -3.572   7.013   0.000  0.00  0.00    +0.000 A 
ATOM     13  C   UNL     1      -2.858   8.250   0.000  0.00  0.00    +0.000 A 
ATOM     14  C   UNL     1      -2.858   7.425   0.000  0.00  0.00    +0.000 A 
ENDBRANCH   8  14
ENDBRANCH   4   8
BRANCH   5  15
ATOM     15  C   UNL     1      -0.715   4.537   0.000  0.00  0.00    +0.000 C 
BRANCH  15  21
ATOM     16  C   UNL     1      -0.715   2.062   0.000  0.00  0.00    +0.000 A 
ATOM     17  C   UNL     1       0.000   2.475   0.000  0.00  0.00    +0.000 A 
ATOM     18  C   UNL     1      -1.429   2.475   0.000  0.00  0.00    +0.000 A 
ATOM     19  C   UNL     1       0.000   3.300   0.000  0.00  0.00    +0.000 A 
ATOM     20  C   UNL     1      -1.429   3.300   0.000  0.00  0.00    +0.000 A 
ATOM     21  C   UNL     1      -0.715   3.712   0.000  0.00  0.00    +0.000 A 
ENDBRANCH  15  21
ENDBRANCH   5  15
TORSDOF 4
