REMARK  Name = 
REMARK  4 active torsions:
REMARK  status: ('A' for Active; 'I' for Inactive)
REMARK    1  A    between atoms: C_3  and  N_17
REMARK    2  A    between atoms: C_5  and  C_6
REMARK    3  A    between atoms: C_7  and  C_8
REMARK    4  A    between atoms: N_9  and  N_10
REMARK                            x       y       z     vdW  Elec       q    Type
REMARK                         _______ _______ _______ _____ _____    ______ ____
ROOT
ATOM      1  C   UNL     1       3.380  -2.092   0.000  0.00  0.00    +0.000 C 
ATOM      2  C   UNL     1       2.666  -1.680   0.000  0.00  0.00    +0.000 C 
ENDROOT
BRANCH   1   7
ATOM      3  C   UNL     1       4.048  -3.402   0.000  0.00  0.00    +0.000 A 
ATOM      4  C   UNL     1       3.793  -4.187   0.000  0.00  0.00    +0.000 A 
ATOM      5  C   UNL     1       2.968  -4.187   0.000  0.00  0.00    +0.000 A 
ATOM      6  O   UNL     1       2.713  -3.402   0.000  0.00  0.00    +0.000 OA
ATOM      7  C   UNL     1       3.380  -2.917   0.000  0.00  0.00    +0.000 A 
BRANCH   5   8
ATOM      8  N   UNL     1       2.483  -4.854   0.000  0.00  0.00    +0.000 N 
ATOM      9  O   UNL     1       2.818  -5.608   0.000  0.00  0.00    +0.000 OA
ATOM     10  O   UNL     1       1.662  -4.768   0.000  0.00  0.00    +0.000 OA
ENDBRANCH   5   8
ENDBRANCH   1   7
BRANCH   2  11
ATOM     11  C   UNL     1       2.666  -0.855   0.000  0.00  0.00    +0.000 C 
ATOM     12  N   UNL     1       1.951  -0.443   0.000  0.00  0.00    +0.000 NA
BRANCH  12  13
ATOM     13  N   UNL     1       1.951   0.383   0.000  0.00  0.00    +0.000 N 
ATOM     14  C   UNL     1       1.284   0.867   0.000  0.00  0.00    +0.000 C 
ATOM     15  C   UNL     1       1.539   1.652   0.000  0.00  0.00    +0.000 C 
ATOM     16  O   UNL     1       1.054   2.320   0.000  0.00  0.00    +0.000 OA
ATOM     17  N   UNL     1       2.364   1.652   0.000  0.00  0.00    +0.000 NA
ATOM     18  C   UNL     1       2.619   0.867   0.000  0.00  0.00    +0.000 C 
ATOM     19  O   UNL     1       3.403   0.613   0.000  0.00  0.00    +0.000 OA
ENDBRANCH  12  13
ENDBRANCH   2  11
TORSDOF 4
