REMARK  Name = 
REMARK  15 active torsions:
REMARK  status: ('A' for Active; 'I' for Inactive)
REMARK    1  A    between atoms: C_4  and  O_60
REMARK    2  A    between atoms: C_11  and  O_53
REMARK    3  A    between atoms: C_13  and  O_42
REMARK    4  A    between atoms: C_19  and  O_20
REMARK    5  A    between atoms: O_20  and  C_21
REMARK    6  A    between atoms: C_21  and  C_23
REMARK    7  A    between atoms: C_23  and  C_24
REMARK    8  A    between atoms: C_24  and  C_25
REMARK    9  A    between atoms: C_24  and  N_31
REMARK   10  A    between atoms: C_32  and  C_34
REMARK   11  A    between atoms: O_42  and  C_43
REMARK   12  A    between atoms: C_43  and  C_45
REMARK   13  A    between atoms: O_53  and  C_54
REMARK   14  A    between atoms: C_54  and  O_56
REMARK   15  A    between atoms: O_60  and  C_61
REMARK                            x       y       z     vdW  Elec       q    Type
REMARK                         _______ _______ _______ _____ _____    ______ ____
ROOT
ATOM      1  C   UNL     1      -1.000  -0.158   0.000  0.00  0.00    +0.000 C 
ATOM      2  C   UNL     1      -0.290   0.262   0.000  0.00  0.00    +0.000 C 
ATOM      3  C   UNL     1       0.458  -0.206   0.000  0.00  0.00    +0.000 C 
ATOM      4  C   UNL     1       1.020  -0.880   0.000  0.00  0.00    +0.000 C 
ATOM      5  C   UNL     1       1.866  -1.036   0.000  0.00  0.00    +0.000 C 
ATOM      6  O   UNL     1       2.053  -1.840   0.000  0.00  0.00    +0.000 OA
ATOM      7  C   UNL     1       2.537  -0.537   0.000  0.00  0.00    +0.000 C 
ATOM      8  C   UNL     1       3.201  -1.028   0.000  0.00  0.00    +0.000 C 
ATOM      9  C   UNL     1       3.957  -0.698   0.000  0.00  0.00    +0.000 C 
ATOM     10  C   UNL     1       4.050   0.122   0.000  0.00  0.00    +0.000 C 
ATOM     11  C   UNL     1       3.386   0.612   0.000  0.00  0.00    +0.000 C 
ATOM     12  C   UNL     1       2.630   0.282   0.000  0.00  0.00    +0.000 C 
ATOM     13  C   UNL     1       2.071   0.947   0.000  0.00  0.00    +0.000 C 
ATOM     14  C   UNL     1       1.206   1.094   0.000  0.00  0.00    +0.000 C 
ATOM     15  C   UNL     1       0.876   0.418   0.000  0.00  0.00    +0.000 C 
ATOM     16  C   UNL     1       1.694   0.303   0.000  0.00  0.00    +0.000 C 
ATOM     17  C   UNL     1       1.386  -0.231   0.000  0.00  0.00    +0.000 C 
ATOM     18  C   UNL     1       0.425   1.506   0.000  0.00  0.00    +0.000 C 
ATOM     19  C   UNL     1      -0.339   1.117   0.000  0.00  0.00    +0.000 C 
ATOM     20  O   UNL     1       1.470   1.875   0.000  0.00  0.00    +0.000 OA
ATOM     21  C   UNL     1       3.877   1.275   0.000  0.00  0.00    +0.000 C 
ATOM     22  O   UNL     1       4.540   0.785   0.000  0.00  0.00    +0.000 OA
ATOM     23  O   UNL     1       3.108  -1.847   0.000  0.00  0.00    +0.000 OA
ATOM     24  C   UNL     1       2.538  -1.362   0.000  0.00  0.00    +0.000 C 
ENDROOT
BRANCH  11  25
ATOM     25  O   UNL     1       2.872   1.257   0.000  0.00  0.00    +0.000 OA
BRANCH  25  26
ATOM     26  C   UNL     1       3.174   2.025   0.000  0.00  0.00    +0.000 C 
ATOM     27  O   UNL     1       2.660   2.670   0.000  0.00  0.00    +0.000 OA
BRANCH  26  28
ATOM     28  O   UNL     1       3.990   2.147   0.000  0.00  0.00    +0.000 OA
ATOM     29  C   UNL     1       4.292   2.915   0.000  0.00  0.00    +0.000 C 
ENDBRANCH  26  28
ENDBRANCH  25  26
ENDBRANCH  11  25
BRANCH  19  30
ATOM     30  O   UNL     1      -1.054   1.529   0.000  0.00  0.00    +0.000 OA
BRANCH  30  31
ATOM     31  C   UNL     1      -1.768   1.115   0.000  0.00  0.00    +0.000 C 
ATOM     32  O   UNL     1      -1.766   0.290   0.000  0.00  0.00    +0.000 OA
BRANCH  31  33
ATOM     33  C   UNL     1      -2.483   1.527   0.000  0.00  0.00    +0.000 C 
ATOM     34  O   UNL     1      -2.484   2.352   0.000  0.00  0.00    +0.000 OA
BRANCH  33  35
ATOM     35  C   UNL     1      -3.196   1.113   0.000  0.00  0.00    +0.000 C 
BRANCH  35  36
ATOM     36  C   UNL     1      -3.195   0.288   0.000  0.00  0.00    +0.000 A 
ATOM     37  C   UNL     1      -2.480  -0.123   0.000  0.00  0.00    +0.000 A 
ATOM     38  C   UNL     1      -2.479  -0.948   0.000  0.00  0.00    +0.000 A 
ATOM     39  C   UNL     1      -3.193  -1.362   0.000  0.00  0.00    +0.000 A 
ATOM     40  C   UNL     1      -3.908  -0.950   0.000  0.00  0.00    +0.000 A 
ATOM     41  C   UNL     1      -3.909  -0.125   0.000  0.00  0.00    +0.000 A 
ENDBRANCH  35  36
BRANCH  35  42
ATOM     42  N   UNL     1      -3.912   1.525   0.000  0.00  0.00    +0.000 NA
ATOM     43  C   UNL     1      -4.625   1.111   0.000  0.00  0.00    +0.000 C 
ATOM     44  O   UNL     1      -4.624   0.286   0.000  0.00  0.00    +0.000 OA
BRANCH  43  45
ATOM     45  C   UNL     1      -5.340   1.522   0.000  0.00  0.00    +0.000 A 
ATOM     46  C   UNL     1      -6.054   1.109   0.000  0.00  0.00    +0.000 A 
ATOM     47  C   UNL     1      -6.769   1.520   0.000  0.00  0.00    +0.000 A 
ATOM     48  C   UNL     1      -6.771   2.345   0.000  0.00  0.00    +0.000 A 
ATOM     49  C   UNL     1      -6.057   2.759   0.000  0.00  0.00    +0.000 A 
ATOM     50  C   UNL     1      -5.342   2.348   0.000  0.00  0.00    +0.000 A 
ENDBRANCH  43  45
ENDBRANCH  35  42
ENDBRANCH  33  35
ENDBRANCH  31  33
ENDBRANCH  30  31
ENDBRANCH  19  30
BRANCH   4  51
ATOM     51  O   UNL     1       0.603  -1.592   0.000  0.00  0.00    +0.000 OA
BRANCH  51  52
ATOM     52  C   UNL     1       1.012  -2.309   0.000  0.00  0.00    +0.000 C 
ATOM     53  O   UNL     1       1.837  -2.314   0.000  0.00  0.00    +0.000 OA
ATOM     54  C   UNL     1       0.595  -3.021   0.000  0.00  0.00    +0.000 C 
ENDBRANCH  51  52
ENDBRANCH   4  51
BRANCH  13  55
ATOM     55  O   UNL     1       2.481   1.663   0.000  0.00  0.00    +0.000 OA
BRANCH  55  56
ATOM     56  C   UNL     1       2.065   2.376   0.000  0.00  0.00    +0.000 C 
ATOM     57  O   UNL     1       1.240   2.373   0.000  0.00  0.00    +0.000 OA
BRANCH  56  58
ATOM     58  C   UNL     1       2.475   3.092   0.000  0.00  0.00    +0.000 A 
ATOM     59  C   UNL     1       2.059   3.805   0.000  0.00  0.00    +0.000 A 
ATOM     60  C   UNL     1       2.469   4.521   0.000  0.00  0.00    +0.000 A 
ATOM     61  C   UNL     1       3.294   4.524   0.000  0.00  0.00    +0.000 A 
ATOM     62  C   UNL     1       3.709   3.811   0.000  0.00  0.00    +0.000 A 
ATOM     63  C   UNL     1       3.300   3.095   0.000  0.00  0.00    +0.000 A 
ENDBRANCH  56  58
ENDBRANCH  55  56
ENDBRANCH  13  55
TORSDOF 15
