REMARK  Name = 
REMARK  12 active torsions:
REMARK  status: ('A' for Active; 'I' for Inactive)
REMARK    1  A    between atoms: C_2  and  C_4
REMARK    2  A    between atoms: C_4  and  O_6
REMARK    3  A    between atoms: O_6  and  C_7
REMARK    4  A    between atoms: C_7  and  C_8
REMARK    5  A    between atoms: C_8  and  N_33
REMARK    6  A    between atoms: C_9  and  O_27
REMARK    7  A    between atoms: C_10  and  O_21
REMARK    8  A    between atoms: C_11  and  N_13
REMARK    9  A    between atoms: O_21  and  C_22
REMARK   10  A    between atoms: C_22  and  C_24
REMARK   11  A    between atoms: O_27  and  C_28
REMARK   12  A    between atoms: C_28  and  C_30
REMARK                            x       y       z     vdW  Elec       q    Type
REMARK                         _______ _______ _______ _____ _____    ______ ____
ROOT
ATOM      1  C   UNL     1       5.436  -2.650   0.000  0.00  0.00    +0.000 C 
ATOM      2  C   UNL     1       6.221  -2.904   0.000  0.00  0.00    +0.000 C 
ATOM      3  C   UNL     1       6.221  -3.729   0.000  0.00  0.00    +0.000 C 
ATOM      4  C   UNL     1       5.436  -3.984   0.000  0.00  0.00    +0.000 C 
ATOM      5  O   UNL     1       4.951  -3.317   0.000  0.00  0.00    +0.000 OA
ENDROOT
BRANCH   4   6
ATOM      6  N   UNL     1       5.181  -4.769   0.000  0.00  0.00    +0.000 N 
ATOM      7  C   UNL     1       5.734  -5.382   0.000  0.00  0.00    +0.000 A 
ATOM      8  C   UNL     1       5.479  -6.167   0.000  0.00  0.00    +0.000 A 
ATOM      9  C   UNL     1       4.671  -6.338   0.000  0.00  0.00    +0.000 A 
ATOM     10  N   UNL     1       4.120  -5.725   0.000  0.00  0.00    +0.000 NA
ATOM     11  C   UNL     1       4.374  -4.941   0.000  0.00  0.00    +0.000 A 
ATOM     12  O   UNL     1       3.822  -4.327   0.000  0.00  0.00    +0.000 OA
ATOM     13  N   UNL     1       4.417  -7.123   0.000  0.00  0.00    +0.000 NA
ENDBRANCH   4   6
BRANCH   1  14
ATOM     14  N   UNL     1       5.772  -1.896   0.000  0.00  0.00    +0.000 NA
ATOM     15  N   UNL     1       5.287  -1.228   0.000  0.00  0.00    +0.000 NA
ATOM     16  N   UNL     1       4.802  -0.561   0.000  0.00  0.00    +0.000 NA
ENDBRANCH   1  14
BRANCH   2  17
ATOM     17  O   UNL     1       6.888  -2.420   0.000  0.00  0.00    +0.000 OA
BRANCH  17  18
ATOM     18  C   UNL     1       6.802  -1.599   0.000  0.00  0.00    +0.000 C 
ATOM     19  O   UNL     1       6.048  -1.264   0.000  0.00  0.00    +0.000 OA
BRANCH  18  20
ATOM     20  C   UNL     1       7.470  -1.114   0.000  0.00  0.00    +0.000 C 
ATOM     21  C   UNL     1       7.383  -0.294   0.000  0.00  0.00    +0.000 C 
ATOM     22  C   UNL     1       8.223  -1.450   0.000  0.00  0.00    +0.000 C 
ENDBRANCH  18  20
ENDBRANCH  17  18
ENDBRANCH   2  17
BRANCH   1  23
ATOM     23  C   UNL     1       4.722  -2.237   0.000  0.00  0.00    +0.000 C 
BRANCH  23  24
ATOM     24  O   UNL     1       4.007  -2.650   0.000  0.00  0.00    +0.000 OA
BRANCH  24  25
ATOM     25  C   UNL     1       3.293  -2.237   0.000  0.00  0.00    +0.000 C 
ATOM     26  O   UNL     1       3.293  -1.412   0.000  0.00  0.00    +0.000 OA
BRANCH  25  28
ATOM     27  C   UNL     1       1.864  -2.237   0.000  0.00  0.00    +0.000 C 
ATOM     28  C   UNL     1       2.579  -2.650   0.000  0.00  0.00    +0.000 C 
ATOM     29  C   UNL     1       2.579  -3.474   0.000  0.00  0.00    +0.000 C 
ENDBRANCH  25  28
ENDBRANCH  24  25
ENDBRANCH  23  24
ENDBRANCH   1  23
BRANCH   3  30
ATOM     30  O   UNL     1       6.888  -4.214   0.000  0.00  0.00    +0.000 OA
BRANCH  30  31
ATOM     31  C   UNL     1       7.642  -3.879   0.000  0.00  0.00    +0.000 C 
ATOM     32  O   UNL     1       7.728  -3.058   0.000  0.00  0.00    +0.000 OA
BRANCH  31  33
ATOM     33  C   UNL     1       8.309  -4.364   0.000  0.00  0.00    +0.000 C 
ATOM     34  C   UNL     1       9.063  -4.028   0.000  0.00  0.00    +0.000 C 
ATOM     35  C   UNL     1       8.223  -5.184   0.000  0.00  0.00    +0.000 C 
ENDBRANCH  31  33
ENDBRANCH  30  31
ENDBRANCH   3  30
TORSDOF 12
