REMARK  Name = 
REMARK  3 active torsions:
REMARK  status: ('A' for Active; 'I' for Inactive)
REMARK    1  A    between atoms: C_4  and  N_9
REMARK    2  A    between atoms: C_6  and  O_8
REMARK    3  A    between atoms: O_8  and  S_12
REMARK                            x       y       z     vdW  Elec       q    Type
REMARK                         _______ _______ _______ _____ _____    ______ ____
ROOT
ATOM      1  C   UNL     1       0.712   1.158   0.000  0.00  0.00    +0.000 A 
ATOM      2  C   UNL     1       0.001   1.585   0.000  0.00  0.00    +0.000 A 
ATOM      3  C   UNL     1      -0.710   1.158   0.000  0.00  0.00    +0.000 A 
ATOM      4  C   UNL     1      -0.710   0.358   0.000  0.00  0.00    +0.000 A 
ATOM      5  C   UNL     1       0.001  -0.086   0.000  0.00  0.00    +0.000 A 
ATOM      6  C   UNL     1       0.712   0.358   0.000  0.00  0.00    +0.000 A 
ATOM      7  O   UNL     1       1.423   1.567   0.000  0.00  0.00    +0.000 OA
ENDROOT
BRANCH   4   8
ATOM      8  N   UNL     1      -1.421  -0.051   0.000  0.00  0.00    +0.000 N 
ATOM      9  O   UNL     1      -2.132   0.358   0.000  0.00  0.00    +0.000 OA
ATOM     10  O   UNL     1      -1.439  -0.869   0.000  0.00  0.00    +0.000 OA
ENDBRANCH   4   8
BRANCH   6  11
ATOM     11  O   UNL     1       1.423  -0.051   0.000  0.00  0.00    +0.000 OA
BRANCH  11  12
ATOM     12  S   UNL     1       1.421  -0.876   0.000  0.00  0.00    +0.000 S 
ATOM     13  O   UNL     1       2.132  -1.291   0.000  0.00  0.00    +0.000 OA
ATOM     14  O   UNL     1       1.008  -1.585   0.000  0.00  0.00    +0.000 OA
ATOM     15  O   UNL     1       0.600  -0.873   0.000  0.00  0.00    +0.000 OA
ENDBRANCH  11  12
ENDBRANCH   6  11
TORSDOF 3
