REMARK  Name = 
REMARK  17 active torsions:
REMARK  status: ('A' for Active; 'I' for Inactive)
REMARK    1  A    between atoms: S_1  and  C_27
REMARK    2  A    between atoms: S_1  and  C_33
REMARK    3  A    between atoms: O_3  and  C_29
REMARK    4  A    between atoms: O_3  and  C_43
REMARK    5  A    between atoms: O_5  and  C_45
REMARK    6  A    between atoms: O_5  and  C_47
REMARK    7  A    between atoms: N_6  and  C_21
REMARK    8  A    between atoms: N_7  and  C_26
REMARK    9  A    between atoms: N_8  and  C_40
REMARK   10  A    between atoms: C_12  and  C_17
REMARK   11  A    between atoms: C_15  and  C_19
REMARK   12  A    between atoms: C_21  and  C_32
REMARK   13  A    between atoms: C_28  and  C_33
REMARK   14  A    between atoms: C_40  and  C_44
REMARK   15  A    between atoms: C_43  and  C_45
REMARK   16  A    between atoms: C_47  and  C_48
REMARK   17  A    between atoms: C_48  and  C_49
REMARK                            x       y       z     vdW  Elec       q    Type
REMARK                         _______ _______ _______ _____ _____    ______ ____
ROOT
ATOM      1  N   UNL     1       1.361   0.570   0.000  0.00  0.00    +0.000 N 
ATOM      2  C   UNL     1       0.783  -0.009   0.000  0.00  0.00    +0.000 A 
ATOM      3  C   UNL     1       0.783  -0.825   0.000  0.00  0.00    +0.000 A 
ATOM      4  C   UNL     1      -0.663  -0.825   0.000  0.00  0.00    +0.000 A 
ATOM      5  C   UNL     1       0.034  -1.233   0.000  0.00  0.00    +0.000 A 
ATOM      6  C   UNL     1       1.361  -1.403   0.000  0.00  0.00    +0.000 C 
ATOM      7  C   UNL     1       2.195  -1.403   0.000  0.00  0.00    +0.000 C 
ATOM      8  C   UNL     1       0.034   0.417   0.000  0.00  0.00    +0.000 A 
ATOM      9  C   UNL     1      -0.663  -0.009   0.000  0.00  0.00    +0.000 A 
ATOM     10  C   UNL     1       2.195   0.570   0.000  0.00  0.00    +0.000 C 
ATOM     11  C   UNL     1       2.773  -0.825   0.000  0.00  0.00    +0.000 C 
ATOM     12  C   UNL     1       2.773  -0.009   0.000  0.00  0.00    +0.000 C 
ENDROOT
BRANCH   4  13
ATOM     13  C   UNL     1      -1.412  -1.233   0.000  0.00  0.00    +0.000 A 
ATOM     14  C   UNL     1      -2.110  -0.825   0.000  0.00  0.00    +0.000 A 
ATOM     15  C   UNL     1      -1.412  -2.067   0.000  0.00  0.00    +0.000 A 
ATOM     16  C   UNL     1      -2.841  -2.067   0.000  0.00  0.00    +0.000 A 
ATOM     17  C   UNL     1      -2.841  -1.233   0.000  0.00  0.00    +0.000 A 
ATOM     18  C   UNL     1      -2.110  -2.475   0.000  0.00  0.00    +0.000 A 
BRANCH  16  19
ATOM     19  O   UNL     1      -3.556  -2.475   0.000  0.00  0.00    +0.000 OA
BRANCH  19  20
ATOM     20  C   UNL     1      -4.253  -2.067   0.000  0.00  0.00    +0.000 C 
BRANCH  20  21
ATOM     21  C   UNL     1      -4.951  -2.475   0.000  0.00  0.00    +0.000 C 
BRANCH  21  22
ATOM     22  O   UNL     1      -5.665  -2.067   0.000  0.00  0.00    +0.000 OA
BRANCH  22  23
ATOM     23  C   UNL     1      -6.363  -2.475   0.000  0.00  0.00    +0.000 C 
BRANCH  23  24
ATOM     24  C   UNL     1      -7.094  -2.067   0.000  0.00  0.00    +0.000 C 
BRANCH  24  25
ATOM     25  C   UNL     1      -7.809  -2.475   0.000  0.00  0.00    +0.000 C 
ATOM     26  C   UNL     1      -8.506  -2.067   0.000  0.00  0.00    +0.000 C 
ENDBRANCH  24  25
ENDBRANCH  23  24
ENDBRANCH  22  23
ENDBRANCH  21  22
ENDBRANCH  20  21
ENDBRANCH  19  20
ENDBRANCH  16  19
ENDBRANCH   4  13
BRANCH   7  29
ATOM     27  O   UNL     1       1.480  -2.645   0.000  0.00  0.00    +0.000 OA
ATOM     28  N   UNL     1       2.892  -2.645   0.000  0.00  0.00    +0.000 NA
ATOM     29  C   UNL     1       2.195  -2.237   0.000  0.00  0.00    +0.000 C 
BRANCH  28  30
ATOM     30  C   UNL     1       3.590  -2.237   0.000  0.00  0.00    +0.000 A 
ATOM     31  C   UNL     1       5.036  -1.403   0.000  0.00  0.00    +0.000 A 
ATOM     32  C   UNL     1       3.590  -1.403   0.000  0.00  0.00    +0.000 A 
ATOM     33  C   UNL     1       4.338  -2.645   0.000  0.00  0.00    +0.000 A 
ATOM     34  C   UNL     1       4.338  -0.995   0.000  0.00  0.00    +0.000 A 
ATOM     35  C   UNL     1       5.036  -2.237   0.000  0.00  0.00    +0.000 A 
BRANCH  31  36
ATOM     36  S   UNL     1       5.733  -0.995   0.000  0.00  0.00    +0.000 S 
ATOM     37  O   UNL     1       5.733  -0.162   0.000  0.00  0.00    +0.000 OA
BRANCH  36  38
ATOM     38  C   UNL     1       6.448  -1.403   0.000  0.00  0.00    +0.000 C 
BRANCH  38  41
ATOM     39  N   UNL     1       7.383  -0.213   0.000  0.00  0.00    +0.000 N 
ATOM     40  N   UNL     1       8.506  -0.995   0.000  0.00  0.00    +0.000 NA
ATOM     41  C   UNL     1       7.145  -0.995   0.000  0.00  0.00    +0.000 A 
ATOM     42  C   UNL     1       7.809  -1.489   0.000  0.00  0.00    +0.000 A 
ATOM     43  C   UNL     1       8.251  -0.213   0.000  0.00  0.00    +0.000 A 
BRANCH  39  44
ATOM     44  C   UNL     1       6.907   0.451   0.000  0.00  0.00    +0.000 C 
BRANCH  44  45
ATOM     45  C   UNL     1       6.074   0.451   0.000  0.00  0.00    +0.000 C 
ATOM     46  C   UNL     1       5.648   1.165   0.000  0.00  0.00    +0.000 C 
ENDBRANCH  44  45
ENDBRANCH  39  44
ENDBRANCH  38  41
ENDBRANCH  36  38
ENDBRANCH  31  36
ENDBRANCH  28  30
ENDBRANCH   7  29
BRANCH   1  47
ATOM     47  C   UNL     1       1.361   1.403   0.000  0.00  0.00    +0.000 C 
BRANCH  47  48
ATOM     48  C   UNL     1       0.612   1.812   0.000  0.00  0.00    +0.000 C 
ATOM     49  C   UNL     1      -0.085   1.403   0.000  0.00  0.00    +0.000 C 
ATOM     50  C   UNL     1       0.612   2.645   0.000  0.00  0.00    +0.000 C 
ENDBRANCH  47  48
ENDBRANCH   1  47
TORSDOF 17
