REMARK  Name = 
REMARK  6 active torsions:
REMARK  status: ('A' for Active; 'I' for Inactive)
REMARK    1  A    between atoms: CA_1  and  C_2
REMARK    2  A    between atoms: CA_1  and  C_4
REMARK    3  A    between atoms: C_15  and  C_34
REMARK    4  A    between atoms: C_17  and  O_21
REMARK    5  A    between atoms: O_21  and  C_22
REMARK    6  A    between atoms: C_25  and  N_31
REMARK                            x       y       z     vdW  Elec       q    Type
REMARK                         _______ _______ _______ _____ _____    ______ ____
ROOT
ATOM      1  C   UNL     1       2.140  -1.056   0.000  0.00  0.00    +0.000 C 
ATOM      2  C   UNL     1       2.140  -0.230   0.000  0.00  0.00    +0.000 C 
ATOM      3  O   UNL     1       2.856   0.181   0.000  0.00  0.00    +0.000 OA
ATOM      4  C   UNL     1       1.429   0.188   0.000  0.00  0.00    +0.000 C 
ATOM      5  O   UNL     1       1.429   1.014   0.000  0.00  0.00    +0.000 OA
ATOM      6  C   UNL     1       0.713  -0.230   0.000  0.00  0.00    +0.000 C 
ATOM      7  O   UNL     1      -0.003   0.181   0.000  0.00  0.00    +0.000 OA
ATOM      8  C   UNL     1       0.713  -1.056   0.000  0.00  0.00    +0.000 C 
ATOM      9  O   UNL     1       0.713  -1.862   0.000  0.00  0.00    +0.000 OA
ATOM     10  C   UNL     1      -0.713  -1.862   0.000  0.00  0.00    +0.000 C 
ATOM     11  C   UNL     1      -1.440  -2.272   0.000  0.00  0.00    +0.000 C 
ATOM     12  C   UNL     1      -2.148  -1.851   0.000  0.00  0.00    +0.000 C 
ATOM     13  O   UNL     1      -2.148  -1.030   0.000  0.00  0.00    +0.000 OA
ATOM     14  C   UNL     1      -1.423  -0.619   0.000  0.00  0.00    +0.000 C 
ATOM     15  C   UNL     1      -0.713  -1.033   0.000  0.00  0.00    +0.000 C 
ATOM     16  O   UNL     1       0.002  -0.629   0.000  0.00  0.00    +0.000 OA
ATOM     17  O   UNL     1      -1.440  -3.098   0.000  0.00  0.00    +0.000 OA
ATOM     18  O   UNL     1       1.429  -1.464   0.000  0.00  0.00    +0.000 OA
ENDROOT
BRANCH  12  19
ATOM     19  C   UNL     1      -2.867  -2.256   0.000  0.00  0.00    +0.000 C 
ATOM     20  O   UNL     1      -3.582  -1.835   0.000  0.00  0.00    +0.000 OA
ENDBRANCH  12  19
BRANCH   1  21
ATOM     21  CA  UNL     1       2.853  -1.468   0.000  0.00  0.00    +0.000 C 
ATOM     22  N   UNL     1       2.853  -2.294   0.000  0.00  0.00    +0.000 NA
BRANCH  21  23
ATOM     23  C   UNL     1       3.565  -1.056   0.000  0.00  0.00    +0.000 C 
ATOM     24  O   UNL     1       4.277  -1.468   0.000  0.00  0.00    +0.000 OA
ENDBRANCH  21  23
ENDBRANCH   1  21
BRANCH  14  25
ATOM     25  O   UNL     1      -1.423   0.206   0.000  0.00  0.00    +0.000 OA
BRANCH  25  26
ATOM     26  C   UNL     1      -2.136   0.620   0.000  0.00  0.00    +0.000 C 
ATOM     27  C   UNL     1      -2.136   1.446   0.000  0.00  0.00    +0.000 C 
ATOM     28  O   UNL     1      -1.421   1.856   0.000  0.00  0.00    +0.000 OA
ATOM     29  C   UNL     1      -2.848   1.859   0.000  0.00  0.00    +0.000 C 
ATOM     30  C   UNL     1      -3.559   1.446   0.000  0.00  0.00    +0.000 C 
ATOM     31  C   UNL     1      -3.559   0.620   0.000  0.00  0.00    +0.000 C 
ATOM     32  N   UNL     1      -4.277   0.206   0.000  0.00  0.00    +0.000 NA
ATOM     33  C   UNL     1      -2.848   0.207   0.000  0.00  0.00    +0.000 C 
ATOM     34  O   UNL     1      -2.848  -0.619   0.000  0.00  0.00    +0.000 OA
BRANCH  29  35
ATOM     35  N   UNL     1      -2.848   2.685   0.000  0.00  0.00    +0.000 NA
ATOM     36  C   UNL     1      -2.134   3.098   0.000  0.00  0.00    +0.000 C 
ENDBRANCH  29  35
ENDBRANCH  25  26
ENDBRANCH  14  25
TORSDOF 6
