REMARK  Name = 
REMARK  6 active torsions:
REMARK  status: ('A' for Active; 'I' for Inactive)
REMARK    1  A    between atoms: C_2  and  N_3
REMARK    2  A    between atoms: C_8  and  N_25
REMARK    3  A    between atoms: C_9  and  C_12
REMARK    4  A    between atoms: C_15  and  C_17
REMARK    5  A    between atoms: C_17  and  C_18
REMARK    6  A    between atoms: N_25  and  C_26
REMARK                            x       y       z     vdW  Elec       q    Type
REMARK                         _______ _______ _______ _____ _____    ______ ____
ROOT
ATOM      1  N   UNL     1      -0.143  -1.365   0.000  0.00  0.00    +0.000 N 
ATOM      2  C   UNL     1       0.641  -1.110   0.000  0.00  0.00    +0.000 A 
ATOM      3  C   UNL     1       0.641  -0.285   0.000  0.00  0.00    +0.000 A 
ATOM      4  C   UNL     1      -0.143  -0.030   0.000  0.00  0.00    +0.000 A 
ATOM      5  N   UNL     1      -0.628  -0.698   0.000  0.00  0.00    +0.000 NA
ATOM      6  C   UNL     1       1.356   0.127   0.000  0.00  0.00    +0.000 A 
ATOM      7  C   UNL     1       2.070  -0.285   0.000  0.00  0.00    +0.000 A 
ATOM      8  C   UNL     1       2.070  -1.110   0.000  0.00  0.00    +0.000 A 
ATOM      9  N   UNL     1       1.356  -1.523   0.000  0.00  0.00    +0.000 NA
ENDROOT
BRANCH   7  10
ATOM     10  C   UNL     1       2.784   0.127   0.000  0.00  0.00    +0.000 A 
ATOM     11  N   UNL     1       2.871   0.948   0.000  0.00  0.00    +0.000 NA
ATOM     12  N   UNL     1       3.678   1.119   0.000  0.00  0.00    +0.000 NA
ATOM     13  C   UNL     1       4.090   0.405   0.000  0.00  0.00    +0.000 A 
ATOM     14  O   UNL     1       3.538  -0.208   0.000  0.00  0.00    +0.000 OA
BRANCH  13  15
ATOM     15  C   UNL     1       4.911   0.318   0.000  0.00  0.00    +0.000 C 
BRANCH  15  16
ATOM     16  C   UNL     1       5.396   0.986   0.000  0.00  0.00    +0.000 A 
ATOM     17  C   UNL     1       5.141   1.770   0.000  0.00  0.00    +0.000 A 
ATOM     18  N   UNL     1       5.808   2.255   0.000  0.00  0.00    +0.000 NA
ATOM     19  C   UNL     1       6.476   1.770   0.000  0.00  0.00    +0.000 A 
ATOM     20  S   UNL     1       6.221   0.986   0.000  0.00  0.00    +0.000 S 
ATOM     21  C   UNL     1       7.260   2.025   0.000  0.00  0.00    +0.000 C 
ATOM     22  C   UNL     1       4.356   2.025   0.000  0.00  0.00    +0.000 C 
ENDBRANCH  15  16
ENDBRANCH  13  15
ENDBRANCH   7  10
BRANCH   1  24
ATOM     23  C   UNL     1       0.154  -2.763   0.000  0.00  0.00    +0.000 C 
ATOM     24  C   UNL     1      -0.398  -2.150   0.000  0.00  0.00    +0.000 C 
ENDBRANCH   1  24
BRANCH   6  25
ATOM     25  N   UNL     1       1.356   0.952   0.000  0.00  0.00    +0.000 NA
BRANCH  25  26
ATOM     26  C   UNL     1       0.641   1.365   0.000  0.00  0.00    +0.000 C 
ATOM     27  C   UNL     1      -0.073   0.952   0.000  0.00  0.00    +0.000 C 
ATOM     28  C   UNL     1      -0.788   1.365   0.000  0.00  0.00    +0.000 C 
ATOM     29  O   UNL     1      -0.788   2.190   0.000  0.00  0.00    +0.000 OA
ATOM     30  C   UNL     1      -0.073   2.602   0.000  0.00  0.00    +0.000 C 
ATOM     31  C   UNL     1       0.641   2.190   0.000  0.00  0.00    +0.000 C 
ENDBRANCH  25  26
ENDBRANCH   6  25
TORSDOF 6
