REMARK  Name = 
REMARK  5 active torsions:
REMARK  status: ('A' for Active; 'I' for Inactive)
REMARK    1  A    between atoms: C_2  and  C_3
REMARK    2  A    between atoms: C_2  and  C_5
REMARK    3  A    between atoms: C_3  and  S_4
REMARK    4  A    between atoms: S_4  and  C_8
REMARK    5  A    between atoms: C_8  and  C_9
REMARK                            x       y       z     vdW  Elec       q    Type
REMARK                         _______ _______ _______ _____ _____    ______ ____
ROOT
ATOM      1  S   UNK     1       0.000   0.000   0.000  0.00  0.00    +0.000 S 
ENDROOT
BRANCH   1   2
ATOM      2  C   UNK     1       0.714   0.412   0.000  0.00  0.00    +0.000 C 
BRANCH   2   4
ATOM      3  N   UNK     1       1.429  -0.825   0.000  0.00  0.00    +0.000 NA
ATOM      4  C   UNK     1       1.429   0.000   0.000  0.00  0.00    +0.000 C 
BRANCH   4   5
ATOM      5  C   UNK     1       2.143   0.412   0.000  0.00  0.00    +0.000 C 
ATOM      6  O   UNK     1       2.858   0.000   0.000  0.00  0.00    +0.000 OA
ATOM      7  O   UNK     1       2.143   1.237   0.000  0.00  0.00    +0.000 OA
ENDBRANCH   4   5
ENDBRANCH   2   4
ENDBRANCH   1   2
BRANCH   1   8
ATOM      8  C   UNK     1      -0.714   0.412   0.000  0.00  0.00    +0.000 C 
BRANCH   8   9
ATOM      9  C   UNK     1      -1.429   0.000   0.000  0.00  0.00    +0.000 A 
ATOM     10  C   UNK     1      -2.143   0.412   0.000  0.00  0.00    +0.000 A 
ATOM     11  C   UNK     1      -2.858   0.000   0.000  0.00  0.00    +0.000 A 
ATOM     12  C   UNK     1      -2.858  -0.825   0.000  0.00  0.00    +0.000 A 
ATOM     13  C   UNK     1      -2.143  -1.238   0.000  0.00  0.00    +0.000 A 
ATOM     14  C   UNK     1      -1.429  -0.825   0.000  0.00  0.00    +0.000 A 
ENDBRANCH   8   9
ENDBRANCH   1   8
TORSDOF 5
