REMARK  Name = 
REMARK  7 active torsions:
REMARK  status: ('A' for Active; 'I' for Inactive)
REMARK    1  A    between atoms: O_3  and  C_13
REMARK    2  A    between atoms: O_3  and  C_22
REMARK    3  A    between atoms: O_5  and  C_20
REMARK    4  A    between atoms: O_5  and  C_24
REMARK    5  A    between atoms: C_12  and  C_20
REMARK    6  A    between atoms: C_24  and  C_28
REMARK    7  A    between atoms: C_26  and  C_29
REMARK                            x       y       z     vdW  Elec       q    Type
REMARK                         _______ _______ _______ _____ _____    ______ ____
ROOT
ATOM      1  O   UNL     1       0.669   2.599   0.000  0.00  0.00    +0.000 OA
ATOM      2  O   UNL     1       2.239   2.671   0.000  0.00  0.00    +0.000 OA
ATOM      3  O   UNL     1       3.600   1.922   0.000  0.00  0.00    +0.000 OA
ATOM      4  C   UNL     1       1.505   1.476   0.000  0.00  0.00    +0.000 C 
ATOM      5  C   UNL     1       0.734   1.181   0.000  0.00  0.00    +0.000 C 
ATOM      6  C   UNL     1       2.289   1.253   0.000  0.00  0.00    +0.000 C 
ATOM      7  C   UNL     1       1.505   2.383   0.000  0.00  0.00    +0.000 C 
ATOM      8  C   UNL     1       0.216   1.829   0.000  0.00  0.00    +0.000 C 
ATOM      9  C   UNL     1       2.750   1.937   0.000  0.00  0.00    +0.000 C 
ATOM     10  C   UNL     1       1.469   0.850   0.000  0.00  0.00    +0.000 C 
ATOM     11  C   UNL     1       1.065   2.160   0.000  0.00  0.00    +0.000 C 
ATOM     12  C   UNL     1      -0.626   1.829   0.000  0.00  0.00    +0.000 C 
ENDROOT
BRANCH   5  13
ATOM     13  O   UNL     1      -0.007   0.770   0.000  0.00  0.00    +0.000 OA
BRANCH  13  18
ATOM     14  O   UNL     1      -1.440   0.792   0.000  0.00  0.00    +0.000 OA
ATOM     15  O   UNL     1      -0.029  -0.878   0.000  0.00  0.00    +0.000 OA
ATOM     16  O   UNL     1      -1.462  -1.685   0.000  0.00  0.00    +0.000 OA
ATOM     17  O   UNL     1      -2.880  -0.842   0.000  0.00  0.00    +0.000 OA
ATOM     18  C   UNL     1      -0.727   0.367   0.000  0.00  0.00    +0.000 C 
ATOM     19  C   UNL     1      -0.742  -0.454   0.000  0.00  0.00    +0.000 C 
ATOM     20  C   UNL     1      -1.454  -0.864   0.000  0.00  0.00    +0.000 C 
ATOM     21  C   UNL     1      -2.153   0.382   0.000  0.00  0.00    +0.000 C 
ATOM     22  C   UNL     1      -2.167  -0.439   0.000  0.00  0.00    +0.000 C 
BRANCH  21  24
ATOM     23  O   UNL     1      -3.600   0.396   0.000  0.00  0.00    +0.000 OA
ATOM     24  C   UNL     1      -2.865   0.799   0.000  0.00  0.00    +0.000 C 
ENDBRANCH  21  24
ENDBRANCH  13  18
ENDBRANCH   5  13
BRANCH   4  25
ATOM     25  C   UNL     1       2.196   0.590   0.000  0.00  0.00    +0.000 C 
BRANCH  25  26
ATOM     26  O   UNL     1       2.189  -0.252   0.000  0.00  0.00    +0.000 OA
BRANCH  26  28
ATOM     27  O   UNL     1       0.763  -0.245   0.000  0.00  0.00    +0.000 OA
ATOM     28  C   UNL     1       1.476  -0.655   0.000  0.00  0.00    +0.000 C 
BRANCH  28  29
ATOM     29  C   UNL     1       1.469  -1.483   0.000  0.00  0.00    +0.000 A 
ATOM     30  C   UNL     1       0.756  -1.893   0.000  0.00  0.00    +0.000 A 
ATOM     31  C   UNL     1       2.181  -1.893   0.000  0.00  0.00    +0.000 A 
ATOM     32  C   UNL     1       0.713  -2.714   0.000  0.00  0.00    +0.000 A 
ATOM     33  C   UNL     1       2.181  -2.714   0.000  0.00  0.00    +0.000 A 
ATOM     34  C   UNL     1       1.469  -3.124   0.000  0.00  0.00    +0.000 A 
ENDBRANCH  28  29
ENDBRANCH  26  28
ENDBRANCH  25  26
ENDBRANCH   4  25
TORSDOF 7
