REMARK  Name = 
REMARK  3 active torsions:
REMARK  status: ('A' for Active; 'I' for Inactive)
REMARK    1  A    between atoms: N_3  and  C_13
REMARK    2  A    between atoms: C_6  and  C_9
REMARK    3  A    between atoms: C_9  and  C_14
REMARK                            x       y       z     vdW  Elec       q    Type
REMARK                         _______ _______ _______ _____ _____    ______ ____
ROOT
ATOM      1  C   UNL     1       0.554   0.992   0.000  0.00  0.00    +0.000 A 
ATOM      2  C   UNL     1      -1.061   0.652   0.000  0.00  0.00    +0.000 A 
ATOM      3  C   UNL     1       0.003   1.606   0.000  0.00  0.00    +0.000 A 
ATOM      4  C   UNL     1       0.297   0.208   0.000  0.00  0.00    +0.000 A 
ATOM      5  C   UNL     1      -0.804   1.436   0.000  0.00  0.00    +0.000 A 
ATOM      6  C   UNL     1      -0.510   0.038   0.000  0.00  0.00    +0.000 A 
ENDROOT
BRANCH   1   8
ATOM      7  O   UNL     1       4.334   1.058   0.000  0.00  0.00    +0.000 OA
ATOM      8  N   UNL     1       1.361   1.162   0.000  0.00  0.00    +0.000 N 
ATOM      9  N   UNL     1       2.976   1.502   0.000  0.00  0.00    +0.000 N 
ATOM     10  C   UNL     1       1.617   1.946   0.000  0.00  0.00    +0.000 C 
ATOM     11  C   UNL     1       1.912   0.548   0.000  0.00  0.00    +0.000 C 
ATOM     12  C   UNL     1       2.425   2.116   0.000  0.00  0.00    +0.000 C 
ATOM     13  C   UNL     1       2.719   0.718   0.000  0.00  0.00    +0.000 C 
ATOM     14  C   UNL     1       3.783   1.673   0.000  0.00  0.00    +0.000 C 
ENDBRANCH   1   8
BRANCH   2  15
ATOM     15  C   UNL     1      -1.868   0.482   0.000  0.00  0.00    +0.000 C 
BRANCH  15  18
ATOM     16  O   UNL     1      -0.818  -0.966   0.000  0.00  0.00    +0.000 OA
ATOM     17  N   UNL     1      -2.124  -1.630   0.000  0.00  0.00    +0.000 N 
ATOM     18  C   UNL     1      -2.124  -0.302   0.000  0.00  0.00    +0.000 C 
ATOM     19  C   UNL     1      -2.905  -0.554   0.000  0.00  0.00    +0.000 A 
ATOM     20  C   UNL     1      -1.643  -0.966   0.000  0.00  0.00    +0.000 C 
ATOM     21  C   UNL     1      -2.905  -1.379   0.000  0.00  0.00    +0.000 A 
ATOM     22  C   UNL     1      -3.619  -0.141   0.000  0.00  0.00    +0.000 A 
ATOM     23  C   UNL     1      -3.619  -1.791   0.000  0.00  0.00    +0.000 A 
ATOM     24  C   UNL     1      -4.334  -0.554   0.000  0.00  0.00    +0.000 A 
ATOM     25  C   UNL     1      -4.334  -1.379   0.000  0.00  0.00    +0.000 A 
ATOM     26  H   UNL     1      -1.965  -2.116   0.000  0.00  0.00    +0.000 HD
ENDBRANCH  15  18
ENDBRANCH   2  15
TORSDOF 3
