REMARK  Name = 
REMARK  4 active torsions:
REMARK  status: ('A' for Active; 'I' for Inactive)
REMARK    1  A    between atoms: O_2  and  C_3
REMARK    2  A    between atoms: C_3  and  C_4
REMARK    3  A    between atoms: C_4  and  C_5
REMARK    4  A    between atoms: C_5  and  N_6
REMARK                            x       y       z     vdW  Elec       q    Type
REMARK                         _______ _______ _______ _____ _____    ______ ____
ROOT
ATOM      1  N   UNL     1       2.886  -2.025   0.000  0.00  0.00    +0.000 N 
ATOM      2  C   UNL     1       2.972  -1.204   0.000  0.00  0.00    +0.000 A 
ATOM      3  C   UNL     1       3.779  -1.033   0.000  0.00  0.00    +0.000 A 
ATOM      4  N   UNL     1       4.192  -1.747   0.000  0.00  0.00    +0.000 NA
ATOM      5  C   UNL     1       3.640  -2.360   0.000  0.00  0.00    +0.000 A 
ATOM      6  N   UNL     1       3.811  -3.167   0.000  0.00  0.00    +0.000 N 
ATOM      7  O   UNL     1       4.596  -3.422   0.000  0.00  0.00    +0.000 OA
ATOM      8  O   UNL     1       3.198  -3.719   0.000  0.00  0.00    +0.000 OA
ENDROOT
BRANCH   1   9
ATOM      9  C   UNL     1       2.171  -2.437   0.000  0.00  0.00    +0.000 C 
BRANCH   9  10
ATOM     10  C   UNL     1       1.457  -2.025   0.000  0.00  0.00    +0.000 C 
ATOM     11  O   UNL     1       1.457  -1.200   0.000  0.00  0.00    +0.000 OA
BRANCH  10  12
ATOM     12  C   UNL     1       0.743  -2.437   0.000  0.00  0.00    +0.000 C 
BRANCH  12  14
ATOM     13  C   UNL     1      -0.686  -2.437   0.000  0.00  0.00    +0.000 C 
ATOM     14  O   UNL     1       0.028  -2.025   0.000  0.00  0.00    +0.000 OA
ENDBRANCH  12  14
ENDBRANCH  10  12
ENDBRANCH   9  10
ENDBRANCH   1   9
TORSDOF 4
