REMARK  Name = 
REMARK  15 active torsions:
REMARK  status: ('A' for Active; 'I' for Inactive)
REMARK    1  A    between atoms: C_1  and  C_18
REMARK    2  A    between atoms: C_2  and  C_3
REMARK    3  A    between atoms: C_3  and  C_4
REMARK    4  A    between atoms: C_5  and  C_6
REMARK    5  A    between atoms: C_6  and  C_7
REMARK    6  A    between atoms: C_8  and  C_9
REMARK    7  A    between atoms: C_9  and  C_10
REMARK    8  A    between atoms: C_11  and  C_12
REMARK    9  A    between atoms: C_12  and  C_13
REMARK   10  A    between atoms: C_14  and  C_15
REMARK   11  A    between atoms: C_15  and  C_16
REMARK   12  A    between atoms: C_16  and  C_17
REMARK   13  A    between atoms: C_17  and  C_22
REMARK   14  A    between atoms: O_21  and  C_22
REMARK   15  A    between atoms: O_21  and  C_23
REMARK                            x       y       z     vdW  Elec       q    Type
REMARK                         _______ _______ _______ _____ _____    ______ ____
ROOT
ATOM      1  C   UNL     1      -3.215  -1.650   0.000  0.00  0.00    +0.000 C 
ATOM      2  C   UNL     1      -2.501  -2.062   0.000  0.00  0.00    +0.000 C 
ENDROOT
BRANCH   2   3
ATOM      3  C   UNL     1      -1.786  -1.650   0.000  0.00  0.00    +0.000 C 
BRANCH   3   4
ATOM      4  C   UNL     1      -1.072  -2.062   0.000  0.00  0.00    +0.000 C 
ATOM      5  C   UNL     1      -0.357  -1.650   0.000  0.00  0.00    +0.000 C 
BRANCH   5   6
ATOM      6  C   UNL     1      -0.357  -0.825   0.000  0.00  0.00    +0.000 C 
BRANCH   6   7
ATOM      7  C   UNL     1       0.357  -0.412   0.000  0.00  0.00    +0.000 C 
BRANCH   7   8
ATOM      8  C   UNL     1       1.072  -0.825   0.000  0.00  0.00    +0.000 C 
BRANCH   8  10
ATOM      9  O   UNL     1       1.786   0.412   0.000  0.00  0.00    +0.000 OA
ATOM     10  C   UNL     1       1.786  -0.412   0.000  0.00  0.00    +0.000 C 
BRANCH  10  11
ATOM     11  O   UNL     1       2.501  -0.825   0.000  0.00  0.00    +0.000 OA
BRANCH  11  12
ATOM     12  C   UNL     1       3.215  -0.412   0.000  0.00  0.00    +0.000 C 
ATOM     13  C   UNL     1       3.929  -0.825   0.000  0.00  0.00    +0.000 C 
ENDBRANCH  11  12
ENDBRANCH  10  11
ENDBRANCH   8  10
ENDBRANCH   7   8
ENDBRANCH   6   7
ENDBRANCH   5   6
ENDBRANCH   3   4
ENDBRANCH   2   3
BRANCH   1  14
ATOM     14  C   UNL     1      -3.215  -0.825   0.000  0.00  0.00    +0.000 C 
BRANCH  14  16
ATOM     15  C   UNL     1      -3.929   0.412   0.000  0.00  0.00    +0.000 C 
ATOM     16  C   UNL     1      -3.929  -0.412   0.000  0.00  0.00    +0.000 C 
BRANCH  15  17
ATOM     17  C   UNL     1      -3.215   0.825   0.000  0.00  0.00    +0.000 C 
BRANCH  17  19
ATOM     18  C   UNL     1      -2.501   2.062   0.000  0.00  0.00    +0.000 C 
ATOM     19  C   UNL     1      -3.215   1.650   0.000  0.00  0.00    +0.000 C 
BRANCH  18  20
ATOM     20  C   UNL     1      -1.786   1.650   0.000  0.00  0.00    +0.000 C 
BRANCH  20  22
ATOM     21  C   UNL     1      -0.357   1.650   0.000  0.00  0.00    +0.000 C 
ATOM     22  C   UNL     1      -1.072   2.062   0.000  0.00  0.00    +0.000 C 
BRANCH  21  23
ATOM     23  C   UNL     1      -0.357   0.825   0.000  0.00  0.00    +0.000 C 
ATOM     24  C   UNL     1       0.357   0.412   0.000  0.00  0.00    +0.000 C 
ENDBRANCH  21  23
ENDBRANCH  20  22
ENDBRANCH  18  20
ENDBRANCH  17  19
ENDBRANCH  15  17
ENDBRANCH  14  16
ENDBRANCH   1  14
TORSDOF 15
