REMARK  Name = 
REMARK  6 active torsions:
REMARK  status: ('A' for Active; 'I' for Inactive)
REMARK    1  A    between atoms: C_2  and  N_3
REMARK    2  A    between atoms: N_3  and  C_6
REMARK    3  A    between atoms: C_6  and  C_8
REMARK    4  A    between atoms: C_8  and  C_9
REMARK    5  A    between atoms: C_9  and  C_10
REMARK    6  A    between atoms: C_9  and  C_16
REMARK                            x       y       z     vdW  Elec       q    Type
REMARK                         _______ _______ _______ _____ _____    ______ ____
ROOT
ATOM      1  C   UNL     1       2.143  -0.412   0.000  0.00  0.00    +0.000 C 
ENDROOT
BRANCH   1   2
ATOM      2  C   UNL     1       2.858   0.000   0.000  0.00  0.00    +0.000 A 
ATOM      3  C   UNL     1       2.858   0.825   0.000  0.00  0.00    +0.000 A 
ATOM      4  C   UNL     1       3.572   1.238   0.000  0.00  0.00    +0.000 A 
ATOM      5  C   UNL     1       4.287   0.825   0.000  0.00  0.00    +0.000 A 
ATOM      6  C   UNL     1       4.287   0.000   0.000  0.00  0.00    +0.000 A 
ATOM      7  C   UNL     1       3.572  -0.412   0.000  0.00  0.00    +0.000 A 
ENDBRANCH   1   2
BRANCH   1   8
ATOM      8  C   UNL     1       2.143  -1.238   0.000  0.00  0.00    +0.000 A 
ATOM      9  C   UNL     1       2.858  -1.650   0.000  0.00  0.00    +0.000 A 
ATOM     10  C   UNL     1       2.858  -2.475   0.000  0.00  0.00    +0.000 A 
ATOM     11  C   UNL     1       2.143  -2.888   0.000  0.00  0.00    +0.000 A 
ATOM     12  C   UNL     1       1.429  -2.475   0.000  0.00  0.00    +0.000 A 
ATOM     13  C   UNL     1       1.429  -1.650   0.000  0.00  0.00    +0.000 A 
ENDBRANCH   1   8
BRANCH   1  14
ATOM     14  C   UNL     1       1.429   0.000   0.000  0.00  0.00    +0.000 C 
BRANCH  14  15
ATOM     15  C   UNL     1       1.429   0.825   0.000  0.00  0.00    +0.000 C 
ATOM     16  C   UNL     1       2.143   1.238   0.000  0.00  0.00    +0.000 C 
BRANCH  15  17
ATOM     17  N   UNL     1       0.715   1.238   0.000  0.00  0.00    +0.000 N 
ATOM     18  C   UNL     1       0.302   0.523   0.000  0.00  0.00    +0.000 C 
ATOM     19  C   UNL     1       1.127   1.952   0.000  0.00  0.00    +0.000 C 
BRANCH  17  21
ATOM     20  C   UNL     1       0.000   2.475   0.000  0.00  0.00    +0.000 C 
ATOM     21  C   UNL     1       0.000   1.650   0.000  0.00  0.00    +0.000 C 
ENDBRANCH  17  21
ENDBRANCH  15  17
ENDBRANCH  14  15
ENDBRANCH   1  14
TORSDOF 6
