REMARK  Name = 
REMARK  13 active torsions:
REMARK  status: ('A' for Active; 'I' for Inactive)
REMARK    1  A    between atoms: C_9  and  C_25
REMARK    2  A    between atoms: C_10  and  C_33
REMARK    3  A    between atoms: C_11  and  C_34
REMARK    4  A    between atoms: C_12  and  C_14
REMARK    5  A    between atoms: C_12  and  C_19
REMARK    6  A    between atoms: C_14  and  C_24
REMARK    7  A    between atoms: C_19  and  C_28
REMARK    8  A    between atoms: C_22  and  C_28
REMARK    9  A    between atoms: C_22  and  C_30
REMARK   10  A    between atoms: C_25  and  C_30
REMARK   11  A    between atoms: C_25  and  C_31
REMARK   12  A    between atoms: C_26  and  C_34
REMARK   13  A    between atoms: C_27  and  C_32
REMARK                            x       y       z     vdW  Elec       q    Type
REMARK                         _______ _______ _______ _____ _____    ______ ____
ROOT
ATOM      1  C   UNL     1      -2.167   2.802   0.000  0.00  0.00    +0.000 C 
ENDROOT
BRANCH   1   5
ATOM      2  C   UNL     1      -2.354   1.017   0.000  0.00  0.00    +0.000 C 
ATOM      3  C   UNL     1      -3.774   1.398   0.000  0.00  0.00    +0.000 C 
ATOM      4  C   UNL     1      -2.967   1.569   0.000  0.00  0.00    +0.000 C 
ATOM      5  C   UNL     1      -2.881   2.390   0.000  0.00  0.00    +0.000 C 
ATOM      6  C   UNL     1      -4.187   2.112   0.000  0.00  0.00    +0.000 C 
ATOM      7  O   UNL     1      -3.635   2.725   0.000  0.00  0.00    +0.000 OA
BRANCH   6  12
ATOM      8  C   UNL     1      -5.349  -0.498   0.000  0.00  0.00    +0.000 C 
ATOM      9  C   UNL     1      -5.608   1.963   0.000  0.00  0.00    +0.000 C 
ATOM     10  C   UNL     1      -6.275   1.478   0.000  0.00  0.00    +0.000 C 
ATOM     11  C   UNL     1      -5.435   0.322   0.000  0.00  0.00    +0.000 C 
ATOM     12  C   UNL     1      -4.854   1.627   0.000  0.00  0.00    +0.000 C 
ATOM     13  C   UNL     1      -6.189   0.658   0.000  0.00  0.00    +0.000 C 
ATOM     14  O   UNL     1      -7.012   0.715   0.000  0.00  0.00    +0.000 OA
ATOM     15  O   UNL     1      -4.768   0.807   0.000  0.00  0.00    +0.000 OA
BRANCH  13  17
ATOM     16  C   UNL     1      -7.182  -0.370   0.000  0.00  0.00    +0.000 C 
ATOM     17  C   UNL     1      -6.389  -0.143   0.000  0.00  0.00    +0.000 C 
ENDBRANCH  13  17
ENDBRANCH   6  12
BRANCH   6  19
ATOM     18  C   UNL     1      -4.484   3.510   0.000  0.00  0.00    +0.000 C 
ATOM     19  C   UNL     1      -4.739   2.725   0.000  0.00  0.00    +0.000 C 
ENDBRANCH   6  19
ENDBRANCH   1   5
BRANCH   1  20
ATOM     20  C   UNL     1      -1.452   2.390   0.000  0.00  0.00    +0.000 C 
ATOM     21  O   UNL     1      -1.452   1.565   0.000  0.00  0.00    +0.000 OA
BRANCH  20  23
ATOM     22  C   UNL     1      -0.738   3.627   0.000  0.00  0.00    +0.000 C 
ATOM     23  C   UNL     1      -0.738   2.802   0.000  0.00  0.00    +0.000 C 
BRANCH  23  24
ATOM     24  C   UNL     1      -0.023   2.390   0.000  0.00  0.00    +0.000 C 
ATOM     25  O   UNL     1      -0.023   1.565   0.000  0.00  0.00    +0.000 OA
BRANCH  24  27
ATOM     26  C   UNL     1       0.691   3.627   0.000  0.00  0.00    +0.000 C 
ATOM     27  C   UNL     1       0.691   2.802   0.000  0.00  0.00    +0.000 C 
BRANCH  27  28
ATOM     28  C   UNL     1       1.406   2.390   0.000  0.00  0.00    +0.000 C 
BRANCH  28  29
ATOM     29  C   UNL     1       2.120   2.802   0.000  0.00  0.00    +0.000 C 
BRANCH  29  34
ATOM     30  C   UNL     1       4.978   1.152   0.000  0.00  0.00    +0.000 C 
ATOM     31  C   UNL     1       4.264   2.390   0.000  0.00  0.00    +0.000 A 
ATOM     32  C   UNL     1       3.549   2.802   0.000  0.00  0.00    +0.000 A 
ATOM     33  C   UNL     1       4.264   1.565   0.000  0.00  0.00    +0.000 A 
ATOM     34  C   UNL     1       2.835   2.390   0.000  0.00  0.00    +0.000 A 
ATOM     35  C   UNL     1       2.835   1.565   0.000  0.00  0.00    +0.000 A 
ATOM     36  C   UNL     1       3.549   1.152   0.000  0.00  0.00    +0.000 A 
ATOM     37  O   UNL     1       3.549   0.327   0.000  0.00  0.00    +0.000 OA
BRANCH  35  38
ATOM     38  C   UNL     1       2.120   1.152   0.000  0.00  0.00    +0.000 C 
ATOM     39  O   UNL     1       2.120   0.327   0.000  0.00  0.00    +0.000 OA
ATOM     40  O   UNL     1       1.406   1.565   0.000  0.00  0.00    +0.000 OA
ENDBRANCH  35  38
ENDBRANCH  29  34
ENDBRANCH  28  29
ENDBRANCH  27  28
ENDBRANCH  24  27
ENDBRANCH  23  24
ENDBRANCH  20  23
ENDBRANCH   1  20
BRANCH   1  42
ATOM     41  C   UNL     1      -1.452   4.040   0.000  0.00  0.00    +0.000 C 
ATOM     42  C   UNL     1      -2.167   3.627   0.000  0.00  0.00    +0.000 C 
ENDBRANCH   1  42
TORSDOF 13
