REMARK  Name = 
REMARK  7 active torsions:
REMARK  status: ('A' for Active; 'I' for Inactive)
REMARK    1  A    between atoms: C_2  and  C_19
REMARK    2  A    between atoms: C_4  and  O_20
REMARK    3  A    between atoms: C_7  and  O_24
REMARK    4  A    between atoms: C_8  and  O_22
REMARK    5  A    between atoms: C_10  and  C_18
REMARK    6  A    between atoms: C_14  and  C_18
REMARK    7  A    between atoms: C_15  and  C_19
REMARK                            x       y       z     vdW  Elec       q    Type
REMARK                         _______ _______ _______ _____ _____    ______ ____
ROOT
ATOM      1  C   UNL     1      -0.750   0.438   0.000  0.00  0.00    +0.000 C 
ATOM      2  C   UNL     1      -0.750  -0.386   0.000  0.00  0.00    +0.000 C 
ATOM      3  C   UNL     1       0.673  -0.386   0.000  0.00  0.00    +0.000 C 
ATOM      4  C   UNL     1       0.673   0.438   0.000  0.00  0.00    +0.000 C 
ATOM      5  O   UNL     1      -0.042   0.855   0.000  0.00  0.00    +0.000 OA
ATOM      6  O   UNL     1       1.388   0.849   0.000  0.00  0.00    +0.000 OA
ENDROOT
BRANCH   2   7
ATOM      7  C   UNL     1      -1.466  -0.794   0.000  0.00  0.00    +0.000 C 
BRANCH   7  11
ATOM      8  C   UNL     1      -3.611   0.444   0.000  0.00  0.00    +0.000 A 
ATOM      9  C   UNL     1      -3.612  -0.383   0.000  0.00  0.00    +0.000 A 
ATOM     10  C   UNL     1      -2.898  -0.795   0.000  0.00  0.00    +0.000 A 
ATOM     11  C   UNL     1      -2.182  -0.382   0.000  0.00  0.00    +0.000 A 
ATOM     12  C   UNL     1      -2.185   0.448   0.000  0.00  0.00    +0.000 A 
ATOM     13  C   UNL     1      -2.900   0.857   0.000  0.00  0.00    +0.000 A 
BRANCH   8  14
ATOM     14  O   UNL     1      -4.326   0.855   0.000  0.00  0.00    +0.000 OA
ATOM     15  C   UNL     1      -5.038   0.442   0.000  0.00  0.00    +0.000 C 
ENDBRANCH   8  14
BRANCH   9  16
ATOM     16  O   UNL     1      -4.330  -0.790   0.000  0.00  0.00    +0.000 OA
ATOM     17  C   UNL     1      -5.038  -0.378   0.000  0.00  0.00    +0.000 C 
ENDBRANCH   9  16
ENDBRANCH   7  11
ENDBRANCH   2   7
BRANCH   3  18
ATOM     18  C   UNL     1       1.424  -0.857   0.000  0.00  0.00    +0.000 C 
BRANCH  18  20
ATOM     19  C   UNL     1       2.189   0.413   0.000  0.00  0.00    +0.000 A 
ATOM     20  C   UNL     1       2.188  -0.413   0.000  0.00  0.00    +0.000 A 
ATOM     21  C   UNL     1       2.902  -0.826   0.000  0.00  0.00    +0.000 A 
ATOM     22  C   UNL     1       3.618  -0.413   0.000  0.00  0.00    +0.000 A 
ATOM     23  C   UNL     1       3.615   0.417   0.000  0.00  0.00    +0.000 A 
ATOM     24  C   UNL     1       2.900   0.826   0.000  0.00  0.00    +0.000 A 
ATOM     25  O   UNL     1       4.327   0.832   0.000  0.00  0.00    +0.000 OA
BRANCH  22  26
ATOM     26  O   UNL     1       4.326  -0.819   0.000  0.00  0.00    +0.000 OA
ATOM     27  C   UNL     1       5.038  -0.407   0.000  0.00  0.00    +0.000 C 
ENDBRANCH  22  26
ENDBRANCH  18  20
ENDBRANCH   3  18
TORSDOF 7
