REMARK  Name = 
REMARK  5 active torsions:
REMARK  status: ('A' for Active; 'I' for Inactive)
REMARK    1  A    between atoms: C_5  and  C_7
REMARK    2  A    between atoms: C_7  and  C_8
REMARK    3  A    between atoms: C_8  and  C_9
REMARK    4  A    between atoms: C_9  and  C_10
REMARK    5  A    between atoms: C_10  and  N_11
REMARK                            x       y       z     vdW  Elec       q    Type
REMARK                         _______ _______ _______ _____ _____    ______ ____
ROOT
ATOM      1  C   UNL     1      -0.365  -0.207   0.000  0.00  0.00    +0.000 C 
ENDROOT
BRANCH   1   2
ATOM      2  C   UNL     1      -1.079   0.205   0.000  0.00  0.00    +0.000 C 
ATOM      3  O   UNL     1      -1.075   1.030   0.000  0.00  0.00    +0.000 OA
BRANCH   2   8
ATOM      4  C   UNL     1      -3.237  -0.207   0.000  0.00  0.00    +0.000 A 
ATOM      5  C   UNL     1      -3.237  -1.032   0.000  0.00  0.00    +0.000 A 
ATOM      6  C   UNL     1      -2.523  -1.445   0.000  0.00  0.00    +0.000 A 
ATOM      7  C   UNL     1      -1.808  -1.032   0.000  0.00  0.00    +0.000 A 
ATOM      8  C   UNL     1      -1.808  -0.207   0.000  0.00  0.00    +0.000 A 
ATOM      9  C   UNL     1      -2.523   0.205   0.000  0.00  0.00    +0.000 A 
ATOM     10  F   UNL     1      -3.952  -1.445   0.000  0.00  0.00    +0.000 F 
ENDBRANCH   2   8
ENDBRANCH   1   2
BRANCH   1  11
ATOM     11  C   UNL     1       0.350   0.205   0.000  0.00  0.00    +0.000 C 
BRANCH  11  12
ATOM     12  C   UNL     1       1.064  -0.207   0.000  0.00  0.00    +0.000 C 
BRANCH  12  13
ATOM     13  N   UNL     1       1.779   0.205   0.000  0.00  0.00    +0.000 NA
ATOM     14  C   UNL     1       2.505  -0.215   0.000  0.00  0.00    +0.000 C 
ATOM     15  C   UNL     1       3.220   0.198   0.000  0.00  0.00    +0.000 C 
ATOM     16  C   UNL     1       3.220   1.023   0.000  0.00  0.00    +0.000 C 
ATOM     17  C   UNL     1       2.493   1.442   0.000  0.00  0.00    +0.000 C 
ATOM     18  C   UNL     1       1.779   1.030   0.000  0.00  0.00    +0.000 C 
ATOM     19  C   UNL     1       3.952   1.445   0.000  0.00  0.00    +0.000 C 
ENDBRANCH  12  13
ENDBRANCH  11  12
ENDBRANCH   1  11
TORSDOF 5
