REMARK  Name = 
REMARK  7 active torsions:
REMARK  status: ('A' for Active; 'I' for Inactive)
REMARK    1  A    between atoms: N_5  and  C_6
REMARK    2  A    between atoms: C_6  and  C_7
REMARK    3  A    between atoms: C_7  and  C_8
REMARK    4  A    between atoms: C_8  and  N_9
REMARK    5  A    between atoms: C_10  and  C_12
REMARK    6  A    between atoms: C_12  and  C_13
REMARK    7  A    between atoms: C_15  and  C_29
REMARK                            x       y       z     vdW  Elec       q    Type
REMARK                         _______ _______ _______ _____ _____    ______ ____
ROOT
ATOM      1  C   UNL     1       4.876  -4.462   0.000  0.00  0.00    +0.000 C 
ATOM      2  N   UNL     1       5.558  -3.997   0.000  0.00  0.00    +0.000 NA
ATOM      3  C   UNL     1       6.346  -4.240   0.000  0.00  0.00    +0.000 C 
ATOM      4  C   UNL     1       6.648  -5.008   0.000  0.00  0.00    +0.000 A 
ATOM      5  C   UNL     1       6.235  -5.723   0.000  0.00  0.00    +0.000 A 
ATOM      6  S   UNL     1       6.787  -6.336   0.000  0.00  0.00    +0.000 S 
ATOM      7  C   UNL     1       7.541  -6.000   0.000  0.00  0.00    +0.000 A 
ATOM      8  C   UNL     1       8.255  -6.413   0.000  0.00  0.00    +0.000 C 
ATOM      9  C   UNL     1       7.455  -5.180   0.000  0.00  0.00    +0.000 A 
ATOM     10  C   UNL     1       8.068  -4.628   0.000  0.00  0.00    +0.000 C 
ATOM     11  N   UNL     1       5.419  -5.846   0.000  0.00  0.00    +0.000 N 
ATOM     12  C   UNL     1       5.072  -6.595   0.000  0.00  0.00    +0.000 A 
ATOM     13  C   UNL     1       5.474  -7.315   0.000  0.00  0.00    +0.000 C 
ATOM     14  N   UNL     1       4.253  -6.496   0.000  0.00  0.00    +0.000 NA
ATOM     15  N   UNL     1       4.094  -5.687   0.000  0.00  0.00    +0.000 NA
ATOM     16  C   UNL     1       4.814  -5.285   0.000  0.00  0.00    +0.000 A 
ENDROOT
BRANCH   3  17
ATOM     17  C   UNL     1       6.907  -3.636   0.000  0.00  0.00    +0.000 A 
ATOM     18  C   UNL     1       6.664  -2.847   0.000  0.00  0.00    +0.000 A 
ATOM     19  C   UNL     1       7.225  -2.243   0.000  0.00  0.00    +0.000 A 
ATOM     20  C   UNL     1       8.030  -2.426   0.000  0.00  0.00    +0.000 A 
ATOM     21 CL   UNL     1       8.591  -1.821   0.000  0.00  0.00    +0.000 Cl
ATOM     22  C   UNL     1       8.273  -3.215   0.000  0.00  0.00    +0.000 A 
ATOM     23  C   UNL     1       7.712  -3.819   0.000  0.00  0.00    +0.000 A 
ENDBRANCH   3  17
BRANCH   1  24
ATOM     24  C   UNL     1       4.162  -4.050   0.000  0.00  0.00    +0.000 C 
BRANCH  24  26
ATOM     25  N   UNL     1       2.733  -4.050   0.000  0.00  0.00    +0.000 NA
ATOM     26  C   UNL     1       3.447  -4.462   0.000  0.00  0.00    +0.000 C 
ATOM     27  O   UNL     1       3.447  -5.287   0.000  0.00  0.00    +0.000 OA
BRANCH  25  28
ATOM     28  C   UNL     1       2.018  -4.462   0.000  0.00  0.00    +0.000 C 
BRANCH  28  29
ATOM     29  C   UNL     1       1.304  -4.050   0.000  0.00  0.00    +0.000 C 
BRANCH  29  30
ATOM     30  C   UNL     1       0.589  -4.462   0.000  0.00  0.00    +0.000 C 
BRANCH  30  35
ATOM     31  C   UNL     1      -2.268  -2.812   0.000  0.00  0.00    +0.000 C 
ATOM     32  N   UNL     1      -1.554  -3.225   0.000  0.00  0.00    +0.000 NA
ATOM     33  C   UNL     1      -0.840  -2.812   0.000  0.00  0.00    +0.000 C 
ATOM     34  C   UNL     1      -0.125  -3.225   0.000  0.00  0.00    +0.000 C 
ATOM     35  N   UNL     1      -0.125  -4.050   0.000  0.00  0.00    +0.000 NA
ATOM     36  C   UNL     1      -0.840  -4.462   0.000  0.00  0.00    +0.000 C 
ATOM     37  C   UNL     1      -1.554  -4.050   0.000  0.00  0.00    +0.000 C 
ENDBRANCH  30  35
ENDBRANCH  29  30
ENDBRANCH  28  29
ENDBRANCH  25  28
ENDBRANCH  24  26
ENDBRANCH   1  24
TORSDOF 7
