REMARK  Name = 
REMARK  3 active torsions:
REMARK  status: ('A' for Active; 'I' for Inactive)
REMARK    1  A    between atoms: C_3  and  C_10
REMARK    2  A    between atoms: O_7  and  C_10
REMARK    3  A    between atoms: O_7  and  P_15
REMARK                            x       y       z     vdW  Elec       q    Type
REMARK                         _______ _______ _______ _____ _____    ______ ____
ROOT
ATOM      1  C   UNL     1       1.786   0.412   0.000  0.00  0.00    +0.000 C 
ATOM      2  O   UNL     1       1.072   0.825   0.000  0.00  0.00    +0.000 OA
ATOM      3  C   UNL     1       0.357   0.412   0.000  0.00  0.00    +0.000 C 
ATOM      4  C   UNL     1       0.357  -0.412   0.000  0.00  0.00    +0.000 C 
ATOM      5  C   UNL     1       1.072  -0.825   0.000  0.00  0.00    +0.000 C 
ATOM      6  C   UNL     1       1.786  -0.412   0.000  0.00  0.00    +0.000 C 
ATOM      7  O   UNL     1      -0.357  -0.825   0.000  0.00  0.00    +0.000 OA
ATOM      8  O   UNL     1       1.072  -1.650   0.000  0.00  0.00    +0.000 OA
ATOM      9  O   UNL     1       2.501   0.825   0.000  0.00  0.00    +0.000 OA
ATOM     10  O   UNL     1       2.501  -0.825   0.000  0.00  0.00    +0.000 OA
ENDROOT
BRANCH   3  11
ATOM     11  C   UNL     1      -0.357   0.825   0.000  0.00  0.00    +0.000 C 
BRANCH  11  12
ATOM     12  O   UNL     1      -1.072   0.412   0.000  0.00  0.00    +0.000 OA
BRANCH  12  15
ATOM     13  O   UNL     1      -1.786   1.650   0.000  0.00  0.00    +0.000 OA
ATOM     14  O   UNL     1      -2.501   0.412   0.000  0.00  0.00    +0.000 OA
ATOM     15  P   UNL     1      -1.786   0.825   0.000  0.00  0.00    +0.000 P 
ATOM     16  O   UNL     1      -1.786   0.000   0.000  0.00  0.00    +0.000 OA
ENDBRANCH  12  15
ENDBRANCH  11  12
ENDBRANCH   3  11
TORSDOF 3
