REMARK  Name = 
REMARK  1 active torsions:
REMARK  status: ('A' for Active; 'I' for Inactive)
REMARK    1  A    between atoms: C_3  and  C_24
REMARK                            x       y       z     vdW  Elec       q    Type
REMARK                         _______ _______ _______ _____ _____    ______ ____
ROOT
ATOM      1  C   UNL     1       1.821  -0.382   0.000  0.00  0.00    +0.000 C 
ATOM      2  C   UNL     1       0.322  -1.365   0.000  0.00  0.00    +0.000 C 
ATOM      3  C   UNL     1       1.821   0.953   0.000  0.00  0.00    +0.000 C 
ATOM      4  C   UNL     1       0.322   1.110   0.000  0.00  0.00    +0.000 C 
ATOM      5  C   UNL     1       2.306   0.285   0.000  0.00  0.00    +0.000 C 
ATOM      6  C   UNL     1      -1.107  -0.540   0.000  0.00  0.00    +0.000 C 
ATOM      7  C   UNL     1      -0.392   0.698   0.000  0.00  0.00    +0.000 C 
ATOM      8  C   UNL     1      -0.392  -1.778   0.000  0.00  0.00    +0.000 C 
ATOM      9  C   UNL     1      -1.107  -1.365   0.000  0.00  0.00    +0.000 C 
ATOM     10  C   UNL     1      -1.821  -0.127   0.000  0.00  0.00    +0.000 C 
ATOM     11  C   UNL     1      -1.821  -1.778   0.000  0.00  0.00    +0.000 C 
ATOM     12  C   UNL     1      -2.536  -0.540   0.000  0.00  0.00    +0.000 C 
ATOM     13  C   UNL     1       0.322  -0.540   0.000  0.00  0.00    +0.000 C 
ATOM     14  C   UNL     1      -0.392  -0.127   0.000  0.00  0.00    +0.000 C 
ATOM     15  C   UNL     1       1.036   0.698   0.000  0.00  0.00    +0.000 C 
ATOM     16  C   UNL     1       1.036   1.522   0.000  0.00  0.00    +0.000 C 
ATOM     17  C   UNL     1       1.036  -0.127   0.000  0.00  0.00    +0.000 C 
ATOM     18  O   UNL     1      -3.250  -1.778   0.000  0.00  0.00    +0.000 OA
ATOM     19  C   UNL     1      -2.536  -1.365   0.000  0.00  0.00    +0.000 C 
ATOM     20  O   UNL     1       1.821   1.778   0.000  0.00  0.00    +0.000 OA
ENDROOT
BRANCH   3  21
ATOM     21  C   UNL     1       2.536   1.365   0.000  0.00  0.00    +0.000 C 
ATOM     22  C   UNL     1       3.250   1.778   0.000  0.00  0.00    +0.000 C 
ENDBRANCH   3  21
TORSDOF 1
