REMARK  Name = 
REMARK  9 active torsions:
REMARK  status: ('A' for Active; 'I' for Inactive)
REMARK    1  A    between atoms: C_4  and  C_7
REMARK    2  A    between atoms: C_7  and  N_8
REMARK    3  A    between atoms: C_9  and  C_11
REMARK    4  A    between atoms: C_11  and  C_12
REMARK    5  A    between atoms: C_15  and  C_18
REMARK    6  A    between atoms: C_21  and  O_24
REMARK    7  A    between atoms: O_24  and  C_25
REMARK    8  A    between atoms: C_25  and  C_26
REMARK    9  A    between atoms: C_26  and  N_27
REMARK                            x       y       z     vdW  Elec       q    Type
REMARK                         _______ _______ _______ _____ _____    ______ ____
ROOT
ATOM      1  C   UNL     1       8.574  -1.650   0.000  0.00  0.00    +0.000 A 
ATOM      2  C   UNL     1       7.859  -1.238   0.000  0.00  0.00    +0.000 A 
ATOM      3  C   UNL     1       7.859  -0.412   0.000  0.00  0.00    +0.000 A 
ATOM      4  C   UNL     1       8.574   0.000   0.000  0.00  0.00    +0.000 A 
ATOM      5  C   UNL     1       9.288  -0.412   0.000  0.00  0.00    +0.000 A 
ATOM      6  N   UNL     1       9.288  -1.238   0.000  0.00  0.00    +0.000 NA
ENDROOT
BRANCH   4   7
ATOM      7  C   UNL     1       8.574   0.825   0.000  0.00  0.00    +0.000 A 
ATOM      8  C   UNL     1       7.859   1.238   0.000  0.00  0.00    +0.000 A 
ATOM      9  C   UNL     1       7.859   2.062   0.000  0.00  0.00    +0.000 A 
ATOM     10  C   UNL     1       8.574   2.475   0.000  0.00  0.00    +0.000 A 
ATOM     11  C   UNL     1       9.288   2.062   0.000  0.00  0.00    +0.000 A 
ATOM     12  C   UNL     1       9.288   1.238   0.000  0.00  0.00    +0.000 A 
BRANCH  10  13
ATOM     13  O   UNL     1       8.574   3.300   0.000  0.00  0.00    +0.000 OA
BRANCH  13  14
ATOM     14  C   UNL     1       9.288   3.712   0.000  0.00  0.00    +0.000 C 
BRANCH  14  15
ATOM     15  C   UNL     1       9.288   4.537   0.000  0.00  0.00    +0.000 C 
BRANCH  15  16
ATOM     16  N   UNL     1      10.003   4.950   0.000  0.00  0.00    +0.000 NA
ATOM     17  C   UNL     1      10.003   5.775   0.000  0.00  0.00    +0.000 C 
ATOM     18  C   UNL     1      10.717   6.188   0.000  0.00  0.00    +0.000 C 
ATOM     19  O   UNL     1      11.431   5.775   0.000  0.00  0.00    +0.000 OA
ATOM     20  C   UNL     1      11.431   4.950   0.000  0.00  0.00    +0.000 C 
ATOM     21  C   UNL     1      10.717   4.537   0.000  0.00  0.00    +0.000 C 
ENDBRANCH  15  16
ENDBRANCH  14  15
ENDBRANCH  13  14
ENDBRANCH  10  13
ENDBRANCH   4   7
BRANCH   1  22
ATOM     22  C   UNL     1       8.574  -2.475   0.000  0.00  0.00    +0.000 C 
BRANCH  22  24
ATOM     23  N   UNL     1       9.288  -3.712   0.000  0.00  0.00    +0.000 NA
ATOM     24  C   UNL     1       9.288  -2.888   0.000  0.00  0.00    +0.000 C 
ATOM     25  O   UNL     1      10.003  -2.475   0.000  0.00  0.00    +0.000 OA
BRANCH  23  26
ATOM     26  C   UNL     1      10.003  -4.125   0.000  0.00  0.00    +0.000 C 
BRANCH  26  30
ATOM     27  C   UNL     1      10.003  -6.600   0.000  0.00  0.00    +0.000 A 
ATOM     28  C   UNL     1       9.288  -6.188   0.000  0.00  0.00    +0.000 A 
ATOM     29  C   UNL     1       9.288  -5.362   0.000  0.00  0.00    +0.000 A 
ATOM     30  C   UNL     1      10.003  -4.950   0.000  0.00  0.00    +0.000 A 
ATOM     31  C   UNL     1      10.717  -5.362   0.000  0.00  0.00    +0.000 A 
ATOM     32  C   UNL     1      10.717  -6.188   0.000  0.00  0.00    +0.000 A 
ENDBRANCH  26  30
ENDBRANCH  23  26
ENDBRANCH  22  24
ENDBRANCH   1  22
TORSDOF 9
