REMARK  Name = 
REMARK  0 active torsions:
REMARK  status: ('A' for Active; 'I' for Inactive)
REMARK                            x       y       z     vdW  Elec       q    Type
REMARK                         _______ _______ _______ _____ _____    ______ ____
ROOT
ATOM      1  O   UNL     1       2.809  -0.619   0.000  0.00  0.00    +0.000 OA
ATOM      2  P   UNL     1       2.809   0.206   0.000  0.00  0.00    +0.000 P 
ATOM      3  O   UNL     1       2.094   0.619   0.000  0.00  0.00    +0.000 OA
ATOM      4  C   UNL     1       1.380   0.206   0.000  0.00  0.00    +0.000 C 
ATOM      5  C   UNL     1       1.380  -0.619   0.000  0.00  0.00    +0.000 C 
ATOM      6  C   UNL     1       2.094  -1.031   0.000  0.00  0.00    +0.000 C 
ATOM      7  O   UNL     1       0.665  -1.031   0.000  0.00  0.00    +0.000 OA
ATOM      8  C   UNL     1      -0.049  -0.619   0.000  0.00  0.00    +0.000 C 
ATOM      9  C   UNL     1      -0.049   0.206   0.000  0.00  0.00    +0.000 C 
ATOM     10  C   UNL     1       0.665   0.619   0.000  0.00  0.00    +0.000 C 
ATOM     11  O   UNL     1       1.196   1.251   0.000  0.00  0.00    +0.000 OA
ATOM     12  O   UNL     1       0.135   1.251   0.000  0.00  0.00    +0.000 OA
ATOM     13  N   UNL     1      -0.763   0.619   0.000  0.00  0.00    +0.000 NA
ATOM     14  C   UNL     1      -1.478   0.206   0.000  0.00  0.00    +0.000 A 
ATOM     15  C   UNL     1      -1.478  -0.619   0.000  0.00  0.00    +0.000 A 
ATOM     16  N   UNL     1      -0.763  -1.031   0.000  0.00  0.00    +0.000 NA
ATOM     17  N   UNL     1      -2.192  -1.031   0.000  0.00  0.00    +0.000 NA
ATOM     18  C   UNL     1      -2.907  -0.619   0.000  0.00  0.00    +0.000 A 
ATOM     19  N   UNL     1      -2.907   0.206   0.000  0.00  0.00    +0.000 NA
ATOM     20  C   UNL     1      -2.192   0.619   0.000  0.00  0.00    +0.000 A 
ATOM     21  O   UNL     1      -2.192   1.444   0.000  0.00  0.00    +0.000 OA
ATOM     22  N   UNL     1      -3.621  -1.031   0.000  0.00  0.00    +0.000 NA
ATOM     23  O   UNL     1       3.621   0.063   0.000  0.00  0.00    +0.000 OA
ATOM     24  O   UNL     1       3.091   0.981   0.000  0.00  0.00    +0.000 OA
ENDROOT
TORSDOF 0
