REMARK  Name = 
REMARK  7 active torsions:
REMARK  status: ('A' for Active; 'I' for Inactive)
REMARK    1  A    between atoms: C_2  and  C_3
REMARK    2  A    between atoms: C_2  and  O_11
REMARK    3  A    between atoms: O_11  and  C_12
REMARK    4  A    between atoms: C_18  and  C_21
REMARK    5  A    between atoms: C_22  and  C_23
REMARK    6  A    between atoms: N_26  and  C_28
REMARK    7  A    between atoms: C_28  and  C_29
REMARK                            x       y       z     vdW  Elec       q    Type
REMARK                         _______ _______ _______ _____ _____    ______ ____
ROOT
ATOM      1  C   UNL     1       3.352   1.935   0.000  0.00  0.00    +0.000 A 
ATOM      2  C   UNL     1       3.352   1.110   0.000  0.00  0.00    +0.000 A 
ATOM      3  C   UNL     1       2.638   0.698   0.000  0.00  0.00    +0.000 A 
ATOM      4  C   UNL     1       1.923   1.110   0.000  0.00  0.00    +0.000 A 
ATOM      5  C   UNL     1       1.923   1.935   0.000  0.00  0.00    +0.000 A 
ATOM      6  C   UNL     1       2.638   2.348   0.000  0.00  0.00    +0.000 A 
ATOM      7  C   UNL     1       1.139   2.190   0.000  0.00  0.00    +0.000 A 
ATOM      8  N   UNL     1       0.654   1.523   0.000  0.00  0.00    +0.000 NA
ATOM      9  N   UNL     1       1.139   0.856   0.000  0.00  0.00    +0.000 NA
ENDROOT
BRANCH   7  10
ATOM     10  C   UNL     1       0.884   2.975   0.000  0.00  0.00    +0.000 C 
ATOM     11  C   UNL     1       1.436   3.588   0.000  0.00  0.00    +0.000 C 
BRANCH  11  12
ATOM     12  C   UNL     1       1.181   4.373   0.000  0.00  0.00    +0.000 A 
ATOM     13  C   UNL     1       0.396   4.628   0.000  0.00  0.00    +0.000 A 
ATOM     14  N   UNL     1       0.396   5.453   0.000  0.00  0.00    +0.000 NA
ATOM     15  N   UNL     1       1.181   5.708   0.000  0.00  0.00    +0.000 N 
ATOM     16  C   UNL     1       1.666   5.040   0.000  0.00  0.00    +0.000 A 
BRANCH  15  17
ATOM     17  C   UNL     1       1.436   6.492   0.000  0.00  0.00    +0.000 C 
BRANCH  17  18
ATOM     18  C   UNL     1       2.243   6.664   0.000  0.00  0.00    +0.000 C 
ATOM     19  O   UNL     1       2.498   7.448   0.000  0.00  0.00    +0.000 OA
ENDBRANCH  17  18
ENDBRANCH  15  17
ENDBRANCH  11  12
ENDBRANCH   7  10
BRANCH   1  20
ATOM     20  O   UNL     1       4.067   2.348   0.000  0.00  0.00    +0.000 OA
BRANCH  20  22
ATOM     21  C   UNL     1       4.781   1.110   0.000  0.00  0.00    +0.000 C 
ATOM     22  C   UNL     1       4.781   1.935   0.000  0.00  0.00    +0.000 C 
BRANCH  22  23
ATOM     23  C   UNL     1       5.496   2.348   0.000  0.00  0.00    +0.000 A 
ATOM     24  C   UNL     1       5.496   3.173   0.000  0.00  0.00    +0.000 A 
ATOM     25  C   UNL     1       6.210   3.585   0.000  0.00  0.00    +0.000 A 
ATOM     26  N   UNL     1       6.925   3.173   0.000  0.00  0.00    +0.000 NA
ATOM     27  C   UNL     1       6.925   2.348   0.000  0.00  0.00    +0.000 A 
ATOM     28  C   UNL     1       6.210   1.935   0.000  0.00  0.00    +0.000 A 
ATOM     29 CL   UNL     1       6.210   1.110   0.000  0.00  0.00    +0.000 Cl
ATOM     30 CL   UNL     1       4.781   3.585   0.000  0.00  0.00    +0.000 Cl
ENDBRANCH  22  23
ENDBRANCH  20  22
ENDBRANCH   1  20
TORSDOF 7
