REMARK  Name = 
REMARK  10 active torsions:
REMARK  status: ('A' for Active; 'I' for Inactive)
REMARK    1  A    between atoms: N_2  and  C_3
REMARK    2  A    between atoms: N_2  and  C_10
REMARK    3  A    between atoms: C_3  and  C_4
REMARK    4  A    between atoms: C_10  and  C_11
REMARK    5  A    between atoms: N_15  and  C_43
REMARK    6  A    between atoms: N_18  and  C_34
REMARK    7  A    between atoms: C_21  and  C_22
REMARK    8  A    between atoms: C_25  and  N_28
REMARK    9  A    between atoms: N_31  and  O_32
REMARK   10  A    between atoms: C_34  and  C_35
REMARK                            x       y       z     vdW  Elec       q    Type
REMARK                         _______ _______ _______ _____ _____    ______ ____
ROOT
ATOM      1  C   UNL     1       1.139  -0.030   0.000  0.00  0.00    +0.000 A 
ATOM      2  C   UNL     1       1.923  -0.285   0.000  0.00  0.00    +0.000 A 
ATOM      3  C   UNL     1       2.638   0.127   0.000  0.00  0.00    +0.000 A 
ATOM      4  O   UNL     1       2.638   0.952   0.000  0.00  0.00    +0.000 OA
ATOM      5  N   UNL     1       3.352  -0.285   0.000  0.00  0.00    +0.000 N 
ATOM      6  C   UNL     1       3.352  -1.110   0.000  0.00  0.00    +0.000 A 
ATOM      7  O   UNL     1       4.067  -1.523   0.000  0.00  0.00    +0.000 OA
ATOM      8  N   UNL     1       2.638  -1.523   0.000  0.00  0.00    +0.000 N 
ATOM      9  C   UNL     1       1.923  -1.110   0.000  0.00  0.00    +0.000 A 
ATOM     10  S   UNL     1       1.139  -1.365   0.000  0.00  0.00    +0.000 S 
ATOM     11  C   UNL     1       0.654  -0.698   0.000  0.00  0.00    +0.000 A 
ENDROOT
BRANCH  11  12
ATOM     12  C   UNL     1      -0.171  -0.698   0.000  0.00  0.00    +0.000 A 
ATOM     13  C   UNL     1      -0.584  -1.412   0.000  0.00  0.00    +0.000 A 
ATOM     14  C   UNL     1      -1.409  -1.412   0.000  0.00  0.00    +0.000 A 
ATOM     15  C   UNL     1      -1.821  -0.698   0.000  0.00  0.00    +0.000 A 
ATOM     16  C   UNL     1      -1.409   0.017   0.000  0.00  0.00    +0.000 A 
ATOM     17  C   UNL     1      -0.584   0.017   0.000  0.00  0.00    +0.000 A 
BRANCH  15  18
ATOM     18  N   UNL     1      -2.646  -0.698   0.000  0.00  0.00    +0.000 NA
ATOM     19  C   UNL     1      -3.059   0.017   0.000  0.00  0.00    +0.000 C 
ATOM     20  O   UNL     1      -2.646   0.731   0.000  0.00  0.00    +0.000 OA
ATOM     21  N   UNL     1      -3.884   0.017   0.000  0.00  0.00    +0.000 NA
BRANCH  21  22
ATOM     22  O   UNL     1      -4.296   0.731   0.000  0.00  0.00    +0.000 OA
ATOM     23  C   UNL     1      -5.121   0.731   0.000  0.00  0.00    +0.000 C 
ENDBRANCH  21  22
ENDBRANCH  15  18
ENDBRANCH  11  12
BRANCH   5  24
ATOM     24  C   UNL     1       4.067   0.127   0.000  0.00  0.00    +0.000 A 
ATOM     25  C   UNL     1       4.067   0.952   0.000  0.00  0.00    +0.000 A 
ATOM     26  C   UNL     1       4.781   1.365   0.000  0.00  0.00    +0.000 A 
ATOM     27  C   UNL     1       5.496   0.952   0.000  0.00  0.00    +0.000 A 
ATOM     28  C   UNL     1       5.496   0.127   0.000  0.00  0.00    +0.000 A 
ATOM     29  C   UNL     1       4.781  -0.285   0.000  0.00  0.00    +0.000 A 
ENDBRANCH   5  24
BRANCH   8  30
ATOM     30  C   UNL     1       2.638  -2.348   0.000  0.00  0.00    +0.000 C 
BRANCH  30  31
ATOM     31  C   UNL     1       3.352  -2.760   0.000  0.00  0.00    +0.000 A 
ATOM     32  C   UNL     1       4.067  -2.348   0.000  0.00  0.00    +0.000 A 
ATOM     33  C   UNL     1       4.781  -2.760   0.000  0.00  0.00    +0.000 A 
ATOM     34  C   UNL     1       4.781  -3.585   0.000  0.00  0.00    +0.000 A 
ATOM     35  C   UNL     1       4.067  -3.998   0.000  0.00  0.00    +0.000 A 
ATOM     36  C   UNL     1       3.352  -3.585   0.000  0.00  0.00    +0.000 A 
ATOM     37  F   UNL     1       2.638  -3.998   0.000  0.00  0.00    +0.000 F 
ATOM     38  F   UNL     1       4.552  -1.681   0.000  0.00  0.00    +0.000 F 
ENDBRANCH  30  31
ENDBRANCH   8  30
BRANCH   1  39
ATOM     39  C   UNL     1       0.884   0.754   0.000  0.00  0.00    +0.000 C 
BRANCH  39  41
ATOM     40  C   UNL     1       2.243   1.196   0.000  0.00  0.00    +0.000 C 
ATOM     41  N   UNL     1       1.436   1.367   0.000  0.00  0.00    +0.000 NA
BRANCH  41  42
ATOM     42  C   UNL     1       1.181   2.152   0.000  0.00  0.00    +0.000 C 
BRANCH  42  43
ATOM     43  C   UNL     1       1.733   2.765   0.000  0.00  0.00    +0.000 A 
ATOM     44  C   UNL     1       1.478   3.550   0.000  0.00  0.00    +0.000 A 
ATOM     45  C   UNL     1       2.030   4.163   0.000  0.00  0.00    +0.000 A 
ATOM     46  C   UNL     1       2.837   3.991   0.000  0.00  0.00    +0.000 A 
ATOM     47  C   UNL     1       3.092   3.207   0.000  0.00  0.00    +0.000 A 
ATOM     48  C   UNL     1       2.540   2.593   0.000  0.00  0.00    +0.000 A 
ENDBRANCH  42  43
ENDBRANCH  41  42
ENDBRANCH  39  41
ENDBRANCH   1  39
TORSDOF 10
