REMARK  Name = 
REMARK  8 active torsions:
REMARK  status: ('A' for Active; 'I' for Inactive)
REMARK    1  A    between atoms: C_2  and  C_3
REMARK    2  A    between atoms: C_2  and  N_34
REMARK    3  A    between atoms: N_5  and  C_6
REMARK    4  A    between atoms: C_6  and  C_7
REMARK    5  A    between atoms: C_6  and  C_13
REMARK    6  A    between atoms: C_19  and  C_20
REMARK    7  A    between atoms: N_22  and  C_23
REMARK    8  A    between atoms: C_24  and  C_28
REMARK                            x       y       z     vdW  Elec       q    Type
REMARK                         _______ _______ _______ _____ _____    ______ ____
ROOT
ATOM      1  C   UNL     1      -4.232  -3.075   0.000  0.00  0.00    +0.000 C 
ATOM      2  O   UNL     1      -4.232  -2.249   0.000  0.00  0.00    +0.000 OA
ATOM      3  N   UNL     1      -4.946  -3.487   0.000  0.00  0.00    +0.000 N 
ATOM      4  C   UNL     1      -5.032  -4.308   0.000  0.00  0.00    +0.000 C 
ATOM      5  C   UNL     1      -5.839  -4.479   0.000  0.00  0.00    +0.000 C 
ATOM      6  C   UNL     1      -6.252  -3.764   0.000  0.00  0.00    +0.000 C 
ATOM      7  C   UNL     1      -5.700  -3.151   0.000  0.00  0.00    +0.000 C 
ENDROOT
BRANCH   7   8
ATOM      8  C   UNL     1      -5.871  -2.345   0.000  0.00  0.00    +0.000 C 
ATOM      9  O   UNL     1      -5.258  -1.792   0.000  0.00  0.00    +0.000 OA
ATOM     10  N   UNL     1      -6.656  -2.090   0.000  0.00  0.00    +0.000 NA
BRANCH  10  11
ATOM     11  C   UNL     1      -6.827  -1.283   0.000  0.00  0.00    +0.000 A 
ATOM     12  C   UNL     1      -7.581  -0.947   0.000  0.00  0.00    +0.000 A 
ATOM     13  N   UNL     1      -7.495  -0.127   0.000  0.00  0.00    +0.000 NA
ATOM     14  N   UNL     1      -6.688   0.045   0.000  0.00  0.00    +0.000 NA
ATOM     15  S   UNL     1      -6.276  -0.669   0.000  0.00  0.00    +0.000 S 
BRANCH  12  16
ATOM     16  C   UNL     1      -8.296  -1.359   0.000  0.00  0.00    +0.000 A 
ATOM     17  C   UNL     1      -8.296  -2.184   0.000  0.00  0.00    +0.000 A 
ATOM     18  C   UNL     1      -9.010  -2.597   0.000  0.00  0.00    +0.000 A 
ATOM     19  C   UNL     1      -9.725  -2.184   0.000  0.00  0.00    +0.000 A 
ATOM     20  C   UNL     1      -9.725  -1.359   0.000  0.00  0.00    +0.000 A 
ATOM     21  C   UNL     1      -9.010  -0.947   0.000  0.00  0.00    +0.000 A 
ENDBRANCH  12  16
ENDBRANCH  10  11
ENDBRANCH   7   8
BRANCH   1  22
ATOM     22  C   UNL     1      -3.517  -3.487   0.000  0.00  0.00    +0.000 C 
BRANCH  22  23
ATOM     23  C   UNL     1      -3.517  -4.312   0.000  0.00  0.00    +0.000 C 
ATOM     24  C   UNL     1      -2.803  -4.724   0.000  0.00  0.00    +0.000 C 
ATOM     25  C   UNL     1      -2.803  -5.550   0.000  0.00  0.00    +0.000 C 
ATOM     26  C   UNL     1      -3.517  -5.962   0.000  0.00  0.00    +0.000 C 
ATOM     27  C   UNL     1      -4.232  -5.550   0.000  0.00  0.00    +0.000 C 
ATOM     28  C   UNL     1      -4.232  -4.724   0.000  0.00  0.00    +0.000 C 
ENDBRANCH  22  23
BRANCH  22  31
ATOM     29  C   UNL     1      -2.088  -3.487   0.000  0.00  0.00    +0.000 C 
ATOM     30  O   UNL     1      -2.088  -4.312   0.000  0.00  0.00    +0.000 OA
ATOM     31  N   UNL     1      -2.803  -3.075   0.000  0.00  0.00    +0.000 NA
BRANCH  29  33
ATOM     32  C   UNL     1      -1.374  -2.249   0.000  0.00  0.00    +0.000 C 
ATOM     33  C   UNL     1      -1.374  -3.075   0.000  0.00  0.00    +0.000 C 
BRANCH  33  34
ATOM     34  N   UNL     1      -0.659  -3.487   0.000  0.00  0.00    +0.000 NA
ATOM     35  C   UNL     1       0.055  -3.075   0.000  0.00  0.00    +0.000 C 
ENDBRANCH  33  34
ENDBRANCH  29  33
ENDBRANCH  22  31
ENDBRANCH   1  22
TORSDOF 8
