REMARK  Name = 
REMARK  8 active torsions:
REMARK  status: ('A' for Active; 'I' for Inactive)
REMARK    1  A    between atoms: C_3  and  O_18
REMARK    2  A    between atoms: C_6  and  C_7
REMARK    3  A    between atoms: C_7  and  N_8
REMARK    4  A    between atoms: N_8  and  C_9
REMARK    5  A    between atoms: C_9  and  C_10
REMARK    6  A    between atoms: C_10  and  C_11
REMARK    7  A    between atoms: O_18  and  C_19
REMARK    8  A    between atoms: C_22  and  C_25
REMARK                            x       y       z     vdW  Elec       q    Type
REMARK                         _______ _______ _______ _____ _____    ______ ____
ROOT
ATOM      1  C   UNL     1      -4.287  -4.125   0.000  0.00  0.00    +0.000 A 
ATOM      2  C   UNL     1      -5.001  -3.712   0.000  0.00  0.00    +0.000 A 
ATOM      3  C   UNL     1      -5.001  -2.888   0.000  0.00  0.00    +0.000 A 
ATOM      4  C   UNL     1      -4.287  -2.475   0.000  0.00  0.00    +0.000 A 
ATOM      5  C   UNL     1      -3.572  -2.888   0.000  0.00  0.00    +0.000 A 
ATOM      6  C   UNL     1      -3.572  -3.712   0.000  0.00  0.00    +0.000 A 
ATOM      7  F   UNL     1      -4.287  -1.650   0.000  0.00  0.00    +0.000 F 
ENDROOT
BRANCH   3   8
ATOM      8  O   UNL     1      -5.716  -2.475   0.000  0.00  0.00    +0.000 OA
BRANCH   8   9
ATOM      9  C   UNL     1      -6.430  -2.888   0.000  0.00  0.00    +0.000 A 
ATOM     10  C   UNL     1      -6.430  -3.712   0.000  0.00  0.00    +0.000 A 
ATOM     11  C   UNL     1      -7.145  -4.125   0.000  0.00  0.00    +0.000 A 
ATOM     12  C   UNL     1      -7.859  -3.712   0.000  0.00  0.00    +0.000 A 
ATOM     13  C   UNL     1      -7.859  -2.888   0.000  0.00  0.00    +0.000 A 
ATOM     14  N   UNL     1      -7.145  -2.475   0.000  0.00  0.00    +0.000 NA
BRANCH  12  15
ATOM     15  C   UNL     1      -8.574  -4.125   0.000  0.00  0.00    +0.000 C 
ATOM     16  O   UNL     1      -8.574  -4.950   0.000  0.00  0.00    +0.000 OA
ATOM     17  N   UNL     1      -9.288  -3.712   0.000  0.00  0.00    +0.000 NA
ENDBRANCH  12  15
ENDBRANCH   8   9
ENDBRANCH   3   8
BRANCH   6  18
ATOM     18  C   UNL     1      -2.858  -4.125   0.000  0.00  0.00    +0.000 C 
BRANCH  18  19
ATOM     19  N   UNL     1      -2.143  -3.712   0.000  0.00  0.00    +0.000 NA
BRANCH  19  20
ATOM     20  C   UNL     1      -1.429  -4.125   0.000  0.00  0.00    +0.000 C 
BRANCH  20  21
ATOM     21  C   UNL     1      -0.715  -3.712   0.000  0.00  0.00    +0.000 C 
BRANCH  21  22
ATOM     22  C   UNL     1       0.000  -4.125   0.000  0.00  0.00    +0.000 C 
ATOM     23  C   UNL     1       0.715  -3.712   0.000  0.00  0.00    +0.000 C 
ATOM     24  C   UNL     1       1.429  -4.125   0.000  0.00  0.00    +0.000 C 
ATOM     25  O   UNL     1       1.429  -4.950   0.000  0.00  0.00    +0.000 OA
ATOM     26  C   UNL     1       0.715  -5.362   0.000  0.00  0.00    +0.000 C 
ATOM     27  C   UNL     1       0.000  -4.950   0.000  0.00  0.00    +0.000 C 
ENDBRANCH  21  22
ENDBRANCH  20  21
ENDBRANCH  19  20
ENDBRANCH  18  19
ENDBRANCH   6  18
TORSDOF 8
