REMARK  Name = 
REMARK  3 active torsions:
REMARK  status: ('A' for Active; 'I' for Inactive)
REMARK    1  A    between atoms: S_2  and  C_3
REMARK    2  A    between atoms: C_3  and  C_4
REMARK    3  A    between atoms: C_10  and  C_11
REMARK                            x       y       z     vdW  Elec       q    Type
REMARK                         _______ _______ _______ _____ _____    ______ ____
ROOT
ATOM      1  C   UNL     1      -1.648   0.133   0.000  0.00  0.00    +0.000 C 
ATOM      2  N   UNL     1      -0.934   0.548   0.000  0.00  0.00    +0.000 NA
ATOM      3  C   UNL     1      -0.655  -0.762   0.000  0.00  0.00    +0.000 C 
ATOM      4  O   UNL     1      -0.246  -1.476   0.000  0.00  0.00    +0.000 OA
ATOM      5  C   UNL     1      -1.480  -0.672   0.000  0.00  0.00    +0.000 C 
ATOM      6  O   UNL     1      -2.031  -1.288   0.000  0.00  0.00    +0.000 OA
ATOM      7  C   UNL     1      -0.324  -0.003   0.000  0.00  0.00    +0.000 C 
ENDROOT
BRANCH   7   8
ATOM      8  C   UNL     1       0.487   0.166   0.000  0.00  0.00    +0.000 A 
ATOM      9  C   UNL     1       0.824   0.918   0.000  0.00  0.00    +0.000 A 
ATOM     10  N   UNL     1       1.642   0.834   0.000  0.00  0.00    +0.000 NA
ATOM     11  C   UNL     1       1.817   0.023   0.000  0.00  0.00    +0.000 A 
ATOM     12  C   UNL     1       2.531  -0.386   0.000  0.00  0.00    +0.000 C 
ATOM     13  N   UNL     1       3.245   0.023   0.000  0.00  0.00    +0.000 NA
ATOM     14  N   UNL     1       2.531  -1.210   0.000  0.00  0.00    +0.000 NA
ATOM     15  C   UNL     1       1.817  -1.626   0.000  0.00  0.00    +0.000 C 
ATOM     16  N   UNL     1       1.097  -1.210   0.000  0.00  0.00    +0.000 NA
ATOM     17  C   UNL     1       1.097  -0.386   0.000  0.00  0.00    +0.000 A 
ENDBRANCH   7   8
BRANCH   1  18
ATOM     18  C   UNL     1      -2.401   0.470   0.000  0.00  0.00    +0.000 C 
BRANCH  18  20
ATOM     19  C   UNL     1      -3.245   1.626   0.000  0.00  0.00    +0.000 C 
ATOM     20  S   UNL     1      -2.492   1.288   0.000  0.00  0.00    +0.000 S 
ENDBRANCH  18  20
ENDBRANCH   1  18
TORSDOF 3
