REMARK  Name = 
REMARK  52 active torsions:
REMARK  status: ('A' for Active; 'I' for Inactive)
REMARK    1  A    between atoms: C_2  and  O_3
REMARK    2  A    between atoms: O_3  and  C_4
REMARK    3  A    between atoms: C_7  and  C_8
REMARK    4  A    between atoms: C_11  and  O_13
REMARK    5  A    between atoms: O_13  and  C_14
REMARK    6  A    between atoms: C_15  and  C_16
REMARK    7  A    between atoms: C_19  and  O_21
REMARK    8  A    between atoms: O_21  and  C_22
REMARK    9  A    between atoms: C_23  and  C_24
REMARK   10  A    between atoms: C_27  and  O_28
REMARK   11  A    between atoms: O_28  and  C_29
REMARK   12  A    between atoms: C_29  and  C_30
REMARK   13  A    between atoms: C_30  and  N_31
REMARK   14  A    between atoms: C_30  and  C_51
REMARK   15  A    between atoms: C_32  and  C_34
REMARK   16  A    between atoms: C_34  and  C_35
REMARK   17  A    between atoms: C_35  and  C_36
REMARK   18  A    between atoms: C_36  and  C_37
REMARK   19  A    between atoms: C_37  and  C_38
REMARK   20  A    between atoms: C_38  and  C_39
REMARK   21  A    between atoms: C_39  and  C_40
REMARK   22  A    between atoms: C_40  and  C_41
REMARK   23  A    between atoms: C_41  and  C_42
REMARK   24  A    between atoms: C_42  and  C_43
REMARK   25  A    between atoms: C_43  and  C_44
REMARK   26  A    between atoms: C_44  and  C_45
REMARK   27  A    between atoms: C_45  and  C_46
REMARK   28  A    between atoms: C_46  and  C_47
REMARK   29  A    between atoms: C_47  and  C_48
REMARK   30  A    between atoms: C_48  and  C_49
REMARK   31  A    between atoms: C_51  and  C_53
REMARK   32  A    between atoms: C_54  and  C_55
REMARK   33  A    between atoms: C_55  and  C_56
REMARK   34  A    between atoms: C_56  and  C_57
REMARK   35  A    between atoms: C_57  and  C_58
REMARK   36  A    between atoms: C_58  and  C_59
REMARK   37  A    between atoms: C_59  and  C_60
REMARK   38  A    between atoms: C_60  and  C_61
REMARK   39  A    between atoms: C_61  and  C_62
REMARK   40  A    between atoms: C_62  and  C_63
REMARK   41  A    between atoms: C_63  and  C_64
REMARK   42  A    between atoms: C_64  and  C_65
REMARK   43  A    between atoms: C_65  and  C_66
REMARK   44  A    between atoms: C_74  and  O_75
REMARK   45  A    between atoms: O_75  and  C_76
REMARK   46  A    between atoms: C_76  and  C_94
REMARK   47  A    between atoms: C_80  and  N_81
REMARK   48  A    between atoms: C_85  and  C_88
REMARK   49  A    between atoms: C_88  and  C_90
REMARK   50  A    between atoms: C_90  and  C_92
REMARK   51  A    between atoms: C_97  and  N_98
REMARK   52  A    between atoms: C_103  and  C_104
REMARK                            x       y       z     vdW  Elec       q    Type
REMARK                         _______ _______ _______ _____ _____    ______ ____
ROOT
ATOM      1  C   UNL     1     -10.273   1.409   0.000  0.00  0.00    +0.000 C 
ATOM      2  C   UNL     1      -9.524   1.755   0.000  0.00  0.00    +0.000 C 
ATOM      3  O   UNL     1      -8.850   1.279   0.000  0.00  0.00    +0.000 OA
ATOM      4  C   UNL     1      -8.925   0.458   0.000  0.00  0.00    +0.000 C 
ATOM      5  C   UNL     1      -9.674   0.112   0.000  0.00  0.00    +0.000 C 
ATOM      6  O   UNL     1      -9.749  -0.710   0.000  0.00  0.00    +0.000 OA
ATOM      7  C   UNL     1     -10.348   0.587   0.000  0.00  0.00    +0.000 C 
ENDROOT
BRANCH   2   8
ATOM      8  C   UNL     1      -9.449   2.576   0.000  0.00  0.00    +0.000 C 
ATOM      9  O   UNL     1      -8.700   2.922   0.000  0.00  0.00    +0.000 OA
ENDBRANCH   2   8
BRANCH   7  10
ATOM     10  O   UNL     1     -11.097   0.241   0.000  0.00  0.00    +0.000 OA
BRANCH  10  11
ATOM     11  C   UNL     1     -11.172  -0.580   0.000  0.00  0.00    +0.000 C 
ATOM     12  C   UNL     1     -10.350  -0.511   0.000  0.00  0.00    +0.000 C 
ATOM     13  C   UNL     1      -9.879  -1.189   0.000  0.00  0.00    +0.000 C 
ATOM     14  O   UNL     1      -9.057  -1.120   0.000  0.00  0.00    +0.000 OA
ATOM     15  C   UNL     1     -10.230  -1.935   0.000  0.00  0.00    +0.000 C 
ATOM     16  C   UNL     1     -11.053  -2.004   0.000  0.00  0.00    +0.000 C 
ATOM     17  O   UNL     1     -11.523  -1.327   0.000  0.00  0.00    +0.000 OA
BRANCH  15  18
ATOM     18  N   UNL     1      -9.760  -2.613   0.000  0.00  0.00    +0.000 NA
ATOM     19  C   UNL     1      -8.938  -2.544   0.000  0.00  0.00    +0.000 C 
ATOM     20  C   UNL     1      -8.467  -3.221   0.000  0.00  0.00    +0.000 C 
ATOM     21  O   UNL     1      -8.586  -1.798   0.000  0.00  0.00    +0.000 OA
ENDBRANCH  15  18
BRANCH  11  22
ATOM     22  C   UNL     1     -11.968  -0.364   0.000  0.00  0.00    +0.000 C 
ATOM     23  O   UNL     1     -12.178   0.434   0.000  0.00  0.00    +0.000 OA
ATOM     24  O   UNL     1     -12.553  -0.945   0.000  0.00  0.00    +0.000 OA
ENDBRANCH  11  22
BRANCH  16  25
ATOM     25  C   UNL     1     -11.404  -2.751   0.000  0.00  0.00    +0.000 C 
ATOM     26  O   UNL     1     -10.933  -3.428   0.000  0.00  0.00    +0.000 OA
BRANCH  25  27
ATOM     27  C   UNL     1     -12.226  -2.820   0.000  0.00  0.00    +0.000 C 
ATOM     28  O   UNL     1     -12.697  -2.142   0.000  0.00  0.00    +0.000 OA
BRANCH  27  29
ATOM     29  C   UNL     1     -12.577  -3.566   0.000  0.00  0.00    +0.000 C 
ATOM     30  O   UNL     1     -13.399  -3.635   0.000  0.00  0.00    +0.000 OA
ENDBRANCH  27  29
ENDBRANCH  25  27
ENDBRANCH  16  25
ENDBRANCH  10  11
ENDBRANCH   7  10
BRANCH   1  31
ATOM     31  O   UNL     1     -10.947   1.885   0.000  0.00  0.00    +0.000 OA
BRANCH  31  37
ATOM     32  C   UNL     1     -11.471   4.003   0.000  0.00  0.00    +0.000 C 
ATOM     33  C   UNL     1     -10.722   4.349   0.000  0.00  0.00    +0.000 C 
ATOM     34  O   UNL     1     -10.648   5.171   0.000  0.00  0.00    +0.000 OA
ATOM     35  C   UNL     1     -10.048   3.874   0.000  0.00  0.00    +0.000 C 
ATOM     36  O   UNL     1     -10.123   3.052   0.000  0.00  0.00    +0.000 OA
ATOM     37  C   UNL     1     -10.872   2.706   0.000  0.00  0.00    +0.000 C 
ATOM     38  C   UNL     1     -11.546   3.182   0.000  0.00  0.00    +0.000 C 
BRANCH  38  39
ATOM     39  N   UNL     1     -12.295   2.836   0.000  0.00  0.00    +0.000 NA
ATOM     40  C   UNL     1     -12.969   3.311   0.000  0.00  0.00    +0.000 C 
ATOM     41  C   UNL     1     -13.718   2.966   0.000  0.00  0.00    +0.000 C 
ATOM     42  O   UNL     1     -12.894   4.133   0.000  0.00  0.00    +0.000 OA
ENDBRANCH  38  39
BRANCH  35  43
ATOM     43  C   UNL     1      -9.299   4.220   0.000  0.00  0.00    +0.000 C 
ATOM     44  O   UNL     1      -9.225   5.041   0.000  0.00  0.00    +0.000 OA
ENDBRANCH  35  43
BRANCH  32  45
ATOM     45  O   UNL     1     -12.146   4.479   0.000  0.00  0.00    +0.000 OA
BRANCH  45  46
ATOM     46  C   UNL     1     -12.071   5.301   0.000  0.00  0.00    +0.000 C 
ATOM     47  O   UNL     1     -11.322   5.646   0.000  0.00  0.00    +0.000 OA
ATOM     48  C   UNL     1     -11.247   6.468   0.000  0.00  0.00    +0.000 C 
ATOM     49  C   UNL     1     -11.921   6.944   0.000  0.00  0.00    +0.000 C 
ATOM     50  O   UNL     1     -11.846   7.765   0.000  0.00  0.00    +0.000 OA
ATOM     51  C   UNL     1     -12.670   6.598   0.000  0.00  0.00    +0.000 C 
ATOM     52  O   UNL     1     -13.344   7.074   0.000  0.00  0.00    +0.000 OA
ATOM     53  C   UNL     1     -12.745   5.776   0.000  0.00  0.00    +0.000 C 
ATOM     54  O   UNL     1     -13.494   5.430   0.000  0.00  0.00    +0.000 OA
BRANCH  48  55
ATOM     55  C   UNL     1     -10.498   6.814   0.000  0.00  0.00    +0.000 C 
ATOM     56  O   UNL     1      -9.824   6.338   0.000  0.00  0.00    +0.000 OA
ENDBRANCH  48  55
ENDBRANCH  45  46
ENDBRANCH  32  45
ENDBRANCH  31  37
ENDBRANCH   1  31
BRANCH   4  57
ATOM     57  O   UNL     1      -8.251  -0.018   0.000  0.00  0.00    +0.000 OA
BRANCH  57  58
ATOM     58  C   UNL     1      -7.502   0.328   0.000  0.00  0.00    +0.000 C 
ATOM     59  C   UNL     1      -6.828  -0.148   0.000  0.00  0.00    +0.000 C 
ATOM     60  O   UNL     1      -6.079   0.198   0.000  0.00  0.00    +0.000 OA
ATOM     61  C   UNL     1      -6.004   1.020   0.000  0.00  0.00    +0.000 C 
ATOM     62  C   UNL     1      -6.678   1.495   0.000  0.00  0.00    +0.000 C 
ATOM     63  O   UNL     1      -6.603   2.317   0.000  0.00  0.00    +0.000 OA
ATOM     64  C   UNL     1      -7.427   1.149   0.000  0.00  0.00    +0.000 C 
ATOM     65  O   UNL     1      -8.101   1.625   0.000  0.00  0.00    +0.000 OA
BRANCH  59  66
ATOM     66  C   UNL     1      -6.903  -0.970   0.000  0.00  0.00    +0.000 C 
ATOM     67  O   UNL     1      -7.652  -1.315   0.000  0.00  0.00    +0.000 OA
ENDBRANCH  59  66
BRANCH  61  68
ATOM     68  O   UNL     1      -5.255   1.366   0.000  0.00  0.00    +0.000 OA
BRANCH  68  69
ATOM     69  C   UNL     1      -4.581   0.890   0.000  0.00  0.00    +0.000 C 
BRANCH  69  70
ATOM     70  C   UNL     1      -3.832   1.236   0.000  0.00  0.00    +0.000 C 
BRANCH  70  71
ATOM     71  N   UNL     1      -3.158   0.760   0.000  0.00  0.00    +0.000 NA
ATOM     72  C   UNL     1      -2.409   1.106   0.000  0.00  0.00    +0.000 C 
ATOM     73  O   UNL     1      -2.334   1.928   0.000  0.00  0.00    +0.000 OA
BRANCH  72  74
ATOM     74  C   UNL     1      -1.735   0.630   0.000  0.00  0.00    +0.000 C 
BRANCH  74  75
ATOM     75  C   UNL     1      -0.986   0.976   0.000  0.00  0.00    +0.000 C 
BRANCH  75  76
ATOM     76  C   UNL     1      -0.312   0.501   0.000  0.00  0.00    +0.000 C 
BRANCH  76  77
ATOM     77  C   UNL     1       0.437   0.847   0.000  0.00  0.00    +0.000 C 
BRANCH  77  78
ATOM     78  C   UNL     1       1.111   0.371   0.000  0.00  0.00    +0.000 C 
BRANCH  78  79
ATOM     79  C   UNL     1       1.860   0.717   0.000  0.00  0.00    +0.000 C 
BRANCH  79  80
ATOM     80  C   UNL     1       1.935   1.538   0.000  0.00  0.00    +0.000 C 
BRANCH  80  81
ATOM     81  C   UNL     1       2.684   1.885   0.000  0.00  0.00    +0.000 C 
BRANCH  81  82
ATOM     82  C   UNL     1       3.358   1.409   0.000  0.00  0.00    +0.000 C 
BRANCH  82  83
ATOM     83  C   UNL     1       4.107   1.755   0.000  0.00  0.00    +0.000 C 
BRANCH  83  84
ATOM     84  C   UNL     1       4.781   1.279   0.000  0.00  0.00    +0.000 C 
BRANCH  84  85
ATOM     85  C   UNL     1       5.530   1.625   0.000  0.00  0.00    +0.000 C 
BRANCH  85  86
ATOM     86  C   UNL     1       6.204   1.149   0.000  0.00  0.00    +0.000 C 
BRANCH  86  87
ATOM     87  C   UNL     1       6.953   1.495   0.000  0.00  0.00    +0.000 C 
BRANCH  87  88
ATOM     88  C   UNL     1       7.627   1.020   0.000  0.00  0.00    +0.000 C 
BRANCH  88  89
ATOM     89  C   UNL     1       8.376   1.366   0.000  0.00  0.00    +0.000 C 
ATOM     90  C   UNL     1       9.050   0.890   0.000  0.00  0.00    +0.000 C 
ENDBRANCH  88  89
ENDBRANCH  87  88
ENDBRANCH  86  87
ENDBRANCH  85  86
ENDBRANCH  84  85
ENDBRANCH  83  84
ENDBRANCH  82  83
ENDBRANCH  81  82
ENDBRANCH  80  81
ENDBRANCH  79  80
ENDBRANCH  78  79
ENDBRANCH  77  78
ENDBRANCH  76  77
ENDBRANCH  75  76
ENDBRANCH  74  75
ENDBRANCH  72  74
ENDBRANCH  70  71
BRANCH  70  91
ATOM     91  C   UNL     1      -3.757   2.057   0.000  0.00  0.00    +0.000 C 
ATOM     92  O   UNL     1      -3.008   2.403   0.000  0.00  0.00    +0.000 OA
BRANCH  91  93
ATOM     93  C   UNL     1      -4.431   2.533   0.000  0.00  0.00    +0.000 C 
ATOM     94  C   UNL     1      -5.180   2.187   0.000  0.00  0.00    +0.000 C 
BRANCH  94  95
ATOM     95  C   UNL     1      -5.854   2.663   0.000  0.00  0.00    +0.000 C 
BRANCH  95  96
ATOM     96  C   UNL     1      -5.779   3.484   0.000  0.00  0.00    +0.000 C 
BRANCH  96  97
ATOM     97  C   UNL     1      -5.030   3.830   0.000  0.00  0.00    +0.000 C 
BRANCH  97  98
ATOM     98  C   UNL     1      -4.955   4.652   0.000  0.00  0.00    +0.000 C 
BRANCH  98  99
ATOM     99  C   UNL     1      -4.206   4.998   0.000  0.00  0.00    +0.000 C 
BRANCH  99 100
ATOM    100  C   UNL     1      -4.131   5.819   0.000  0.00  0.00    +0.000 C 
BRANCH 100 101
ATOM    101  C   UNL     1      -3.382   6.165   0.000  0.00  0.00    +0.000 C 
BRANCH 101 102
ATOM    102  C   UNL     1      -3.308   6.987   0.000  0.00  0.00    +0.000 C 
BRANCH 102 103
ATOM    103  C   UNL     1      -2.559   7.333   0.000  0.00  0.00    +0.000 C 
BRANCH 103 104
ATOM    104  C   UNL     1      -2.484   8.155   0.000  0.00  0.00    +0.000 C 
BRANCH 104 105
ATOM    105  C   UNL     1      -1.735   8.501   0.000  0.00  0.00    +0.000 C 
BRANCH 105 106
ATOM    106  C   UNL     1      -1.660   9.322   0.000  0.00  0.00    +0.000 C 
ATOM    107  C   UNL     1      -0.911   9.668   0.000  0.00  0.00    +0.000 C 
ENDBRANCH 105 106
ENDBRANCH 104 105
ENDBRANCH 103 104
ENDBRANCH 102 103
ENDBRANCH 101 102
ENDBRANCH 100 101
ENDBRANCH  99 100
ENDBRANCH  98  99
ENDBRANCH  97  98
ENDBRANCH  96  97
ENDBRANCH  95  96
ENDBRANCH  94  95
ENDBRANCH  91  93
ENDBRANCH  70  91
ENDBRANCH  69  70
ENDBRANCH  68  69
ENDBRANCH  61  68
ENDBRANCH  57  58
ENDBRANCH   4  57
TORSDOF 52
