REMARK  Name = 
REMARK  7 active torsions:
REMARK  status: ('A' for Active; 'I' for Inactive)
REMARK    1  A    between atoms: C_11  and  N_12
REMARK    2  A    between atoms: N_12  and  C_13
REMARK    3  A    between atoms: C_13  and  C_14
REMARK    4  A    between atoms: C_14  and  C_15
REMARK    5  A    between atoms: C_14  and  C_29
REMARK    6  A    between atoms: C_15  and  C_16
REMARK    7  A    between atoms: C_16  and  C_19
REMARK                            x       y       z     vdW  Elec       q    Type
REMARK                         _______ _______ _______ _____ _____    ______ ____
ROOT
ATOM      1  C   UNL     1       4.046  -1.356   0.000  0.00  0.00    +0.000 C 
ATOM      2  O   UNL     1       4.761  -0.943   0.000  0.00  0.00    +0.000 OA
ENDROOT
BRANCH   1   3
ATOM      3  C   UNL     1       3.332  -1.768   0.000  0.00  0.00    +0.000 C 
ATOM      4  F   UNL     1       2.617  -2.181   0.000  0.00  0.00    +0.000 F 
ATOM      5  F   UNL     1       3.744  -2.483   0.000  0.00  0.00    +0.000 F 
ATOM      6  F   UNL     1       2.919  -1.054   0.000  0.00  0.00    +0.000 F 
ENDBRANCH   1   3
BRANCH   1   7
ATOM      7  C   UNL     1       3.634  -0.641   0.000  0.00  0.00    +0.000 C 
BRANCH   7   8
ATOM      8  N   UNL     1       4.046   0.073   0.000  0.00  0.00    +0.000 NA
BRANCH   8  19
ATOM      9  C   UNL     1       0.334   0.788   0.000  0.00  0.00    +0.000 C 
ATOM     10  C   UNL     1       1.159   0.788   0.000  0.00  0.00    +0.000 A 
ATOM     11  C   UNL     1       1.571   0.073   0.000  0.00  0.00    +0.000 A 
ATOM     12  C   UNL     1       2.396   0.073   0.000  0.00  0.00    +0.000 A 
ATOM     13  C   UNL     1       2.809   0.788   0.000  0.00  0.00    +0.000 A 
ATOM     14  C   UNL     1       2.396   1.502   0.000  0.00  0.00    +0.000 A 
ATOM     15  N   UNL     1       1.571   1.502   0.000  0.00  0.00    +0.000 NA
ATOM     16  C   UNL     1       2.809   2.217   0.000  0.00  0.00    +0.000 A 
ATOM     17  C   UNL     1       3.634   2.217   0.000  0.00  0.00    +0.000 A 
ATOM     18  C   UNL     1       4.046   1.502   0.000  0.00  0.00    +0.000 A 
ATOM     19  C   UNL     1       3.634   0.788   0.000  0.00  0.00    +0.000 A 
ENDBRANCH   8  19
ENDBRANCH   7   8
ENDBRANCH   1   7
BRANCH   1  20
ATOM     20  C   UNL     1       4.459  -2.070   0.000  0.00  0.00    +0.000 C 
BRANCH  20  21
ATOM     21  C   UNL     1       5.284  -2.070   0.000  0.00  0.00    +0.000 C 
ATOM     22  C   UNL     1       5.284  -1.245   0.000  0.00  0.00    +0.000 C 
ATOM     23  C   UNL     1       6.109  -2.070   0.000  0.00  0.00    +0.000 C 
BRANCH  21  24
ATOM     24  C   UNL     1       5.284  -2.895   0.000  0.00  0.00    +0.000 A 
ATOM     25  C   UNL     1       5.998  -3.308   0.000  0.00  0.00    +0.000 A 
ATOM     26  C   UNL     1       5.998  -4.133   0.000  0.00  0.00    +0.000 A 
ATOM     27  C   UNL     1       5.284  -4.545   0.000  0.00  0.00    +0.000 A 
ATOM     28  C   UNL     1       4.569  -4.133   0.000  0.00  0.00    +0.000 A 
ATOM     29  C   UNL     1       4.569  -3.308   0.000  0.00  0.00    +0.000 A 
ATOM     30  O   UNL     1       3.784  -3.053   0.000  0.00  0.00    +0.000 OA
ATOM     31  C   UNL     1       3.300  -3.720   0.000  0.00  0.00    +0.000 C 
ATOM     32  C   UNL     1       3.784  -4.388   0.000  0.00  0.00    +0.000 C 
ATOM     33  F   UNL     1       6.713  -4.545   0.000  0.00  0.00    +0.000 F 
ENDBRANCH  21  24
ENDBRANCH  20  21
ENDBRANCH   1  20
TORSDOF 7
