REMARK  Name = 
REMARK  4 active torsions:
REMARK  status: ('A' for Active; 'I' for Inactive)
REMARK    1  A    between atoms: C_5  and  C_9
REMARK    2  A    between atoms: C_6  and  C_7
REMARK    3  A    between atoms: C_12  and  C_20
REMARK    4  A    between atoms: C_20  and  C_21
REMARK                            x       y       z     vdW  Elec       q    Type
REMARK                         _______ _______ _______ _____ _____    ______ ____
ROOT
ATOM      1  O   UNL     1      -1.423  -1.835   0.000  0.00  0.00    +0.000 OA
ATOM      2  C   UNL     1      -0.701  -0.607   0.000  0.00  0.00    +0.000 A 
ATOM      3  C   UNL     1      -0.710  -1.427   0.000  0.00  0.00    +0.000 A 
ATOM      4  C   UNL     1      -0.005  -1.844   0.000  0.00  0.00    +0.000 A 
ATOM      5  C   UNL     1       0.709  -1.441   0.000  0.00  0.00    +0.000 A 
ATOM      6  C   UNL     1       0.714  -0.618   0.000  0.00  0.00    +0.000 A 
ATOM      7  C   UNL     1       0.009  -0.205   0.000  0.00  0.00    +0.000 A 
ATOM      8  O   UNL     1       0.015   0.620   0.000  0.00  0.00    +0.000 OA
ENDROOT
BRANCH   2  13
ATOM      9  C   UNL     1      -2.833   0.629   0.000  0.00  0.00    +0.000 C 
ATOM     10  C   UNL     1      -2.833  -0.196   0.000  0.00  0.00    +0.000 C 
ATOM     11  C   UNL     1      -1.408   0.629   0.000  0.00  0.00    +0.000 C 
ATOM     12  C   UNL     1      -2.121   1.046   0.000  0.00  0.00    +0.000 C 
ATOM     13  C   UNL     1      -1.408  -0.196   0.000  0.00  0.00    +0.000 C 
ATOM     14  C   UNL     1      -2.123  -0.601   0.000  0.00  0.00    +0.000 C 
ATOM     15  C   UNL     1      -2.121   1.871   0.000  0.00  0.00    +0.000 C 
BRANCH  14  16
ATOM     16  C   UNL     1      -2.129  -1.417   0.000  0.00  0.00    +0.000 C 
ATOM     17  C   UNL     1      -2.847  -1.823   0.000  0.00  0.00    +0.000 C 
ATOM     18  C   UNL     1      -2.849  -1.004   0.000  0.00  0.00    +0.000 C 
ENDBRANCH  14  16
ENDBRANCH   2  13
BRANCH   5  19
ATOM     19  C   UNL     1       1.420  -1.859   0.000  0.00  0.00    +0.000 C 
BRANCH  19  20
ATOM     20  C   UNL     1       2.138  -1.453   0.000  0.00  0.00    +0.000 C 
ATOM     21  C   UNL     1       2.849  -1.871   0.000  0.00  0.00    +0.000 C 
ENDBRANCH  19  20
ENDBRANCH   5  19
TORSDOF 4
