REMARK  Name = 
REMARK  5 active torsions:
REMARK  status: ('A' for Active; 'I' for Inactive)
REMARK    1  A    between atoms: C_5  and  S_8
REMARK    2  A    between atoms: S_8  and  N_10
REMARK    3  A    between atoms: C_15  and  C_16
REMARK    4  A    between atoms: C_16  and  C_17
REMARK    5  A    between atoms: C_17  and  N_18
REMARK                            x       y       z     vdW  Elec       q    Type
REMARK                         _______ _______ _______ _____ _____    ______ ____
ROOT
ATOM      1  N   UNL     1      -0.566   0.373   0.000  0.00  0.00    +0.000 NA
ATOM      2  C   UNL     1      -0.819  -0.412   0.000  0.00  0.00    +0.000 C 
ATOM      3  C   UNL     1      -0.146  -0.890   0.000  0.00  0.00    +0.000 C 
ATOM      4  C   UNL     1       0.510  -0.408   0.000  0.00  0.00    +0.000 C 
ATOM      5  C   UNL     1       0.259   0.375   0.000  0.00  0.00    +0.000 C 
ENDROOT
BRANCH   1   6
ATOM      6  S   UNL     1      -0.984   1.094   0.000  0.00  0.00    +0.000 S 
ATOM      7  O   UNL     1      -0.268   1.513   0.000  0.00  0.00    +0.000 OA
ATOM      8  O   UNL     1      -1.400   1.811   0.000  0.00  0.00    +0.000 OA
BRANCH   6  13
ATOM      9  C   UNL     1      -3.129   0.674   0.000  0.00  0.00    +0.000 A 
ATOM     10  C   UNL     1      -3.130  -0.149   0.000  0.00  0.00    +0.000 A 
ATOM     11  C   UNL     1      -2.417  -0.562   0.000  0.00  0.00    +0.000 A 
ATOM     12  C   UNL     1      -1.703  -0.148   0.000  0.00  0.00    +0.000 A 
ATOM     13  C   UNL     1      -1.706   0.678   0.000  0.00  0.00    +0.000 A 
ATOM     14  C   UNL     1      -2.419   1.087   0.000  0.00  0.00    +0.000 A 
ATOM     15  O   UNL     1      -2.419  -1.387   0.000  0.00  0.00    +0.000 OA
ENDBRANCH   6  13
ENDBRANCH   1   6
BRANCH   5  16
ATOM     16  C   UNL     1       0.682   1.083   0.000  0.00  0.00    +0.000 C 
BRANCH  16  17
ATOM     17  C   UNL     1       1.507   1.070   0.000  0.00  0.00    +0.000 C 
BRANCH  17  18
ATOM     18  N   UNL     1       1.909   0.349   0.000  0.00  0.00    +0.000 NA
ATOM     19  C   UNL     1       1.482  -0.353   0.000  0.00  0.00    +0.000 C 
ATOM     20  C   UNL     1       1.880  -1.072   0.000  0.00  0.00    +0.000 C 
ATOM     21  C   UNL     1       2.705  -1.089   0.000  0.00  0.00    +0.000 C 
ATOM     22  C   UNL     1       3.130  -0.381   0.000  0.00  0.00    +0.000 C 
ATOM     23  C   UNL     1       2.731   0.344   0.000  0.00  0.00    +0.000 C 
ATOM     24  C   UNL     1       3.104  -1.811   0.000  0.00  0.00    +0.000 C 
ENDBRANCH  17  18
ENDBRANCH  16  17
ENDBRANCH   5  16
TORSDOF 5
