REMARK  Name = 
REMARK  4 active torsions:
REMARK  status: ('A' for Active; 'I' for Inactive)
REMARK    1  A    between atoms: C_2  and  C_3
REMARK    2  A    between atoms: C_3  and  C_4
REMARK    3  A    between atoms: C_4  and  C_5
REMARK    4  A    between atoms: C_11  and  C_12
REMARK                            x       y       z     vdW  Elec       q    Type
REMARK                         _______ _______ _______ _____ _____    ______ ____
ROOT
ATOM      1  N   UNL     1       0.039   0.754   0.000  0.00  0.00    +0.000 N 
ATOM      2  C   UNL     1       0.039  -0.071   0.000  0.00  0.00    +0.000 C 
ATOM      3  O   UNL     1       0.754  -0.484   0.000  0.00  0.00    +0.000 OA
ATOM      4  C   UNL     1       0.707   1.239   0.000  0.00  0.00    +0.000 C 
ATOM      5  C   UNL     1       0.452   2.023   0.000  0.00  0.00    +0.000 C 
ATOM      6  C   UNL     1      -0.373   2.023   0.000  0.00  0.00    +0.000 C 
ATOM      7  C   UNL     1      -0.628   1.239   0.000  0.00  0.00    +0.000 C 
ENDROOT
BRANCH   4   8
ATOM      8  C   UNL     1       1.491   0.984   0.000  0.00  0.00    +0.000 C 
ATOM      9  O   UNL     1       1.663   0.177   0.000  0.00  0.00    +0.000 OA
ATOM     10  O   UNL     1       2.104   1.536   0.000  0.00  0.00    +0.000 OA
ENDBRANCH   4   8
BRANCH   2  11
ATOM     11  C   UNL     1      -0.675  -0.484   0.000  0.00  0.00    +0.000 C 
ATOM     12  O   UNL     1      -1.390  -0.071   0.000  0.00  0.00    +0.000 OA
BRANCH  11  13
ATOM     13  C   UNL     1      -0.675  -1.309   0.000  0.00  0.00    +0.000 C 
ATOM     14  C   UNL     1       0.150  -1.309   0.000  0.00  0.00    +0.000 C 
ATOM     15  C   UNL     1      -0.263  -2.023   0.000  0.00  0.00    +0.000 C 
BRANCH  13  16
ATOM     16  C   UNL     1      -1.390  -1.721   0.000  0.00  0.00    +0.000 C 
ATOM     17  C   UNL     1      -2.104  -1.309   0.000  0.00  0.00    +0.000 C 
ENDBRANCH  13  16
ENDBRANCH  11  13
ENDBRANCH   2  11
TORSDOF 4
