REMARK  Name = 
REMARK  6 active torsions:
REMARK  status: ('A' for Active; 'I' for Inactive)
REMARK    1  A    between atoms: C_2  and  N_4
REMARK    2  A    between atoms: C_7  and  C_15
REMARK    3  A    between atoms: N_17  and  C_18
REMARK    4  A    between atoms: C_18  and  C_19
REMARK    5  A    between atoms: C_19  and  C_20
REMARK    6  A    between atoms: C_20  and  N_21
REMARK                            x       y       z     vdW  Elec       q    Type
REMARK                         _______ _______ _______ _____ _____    ______ ____
ROOT
ATOM      1  N   UNL     1      -2.858   0.825   0.000  0.00  0.00    +0.000 N 
ATOM      2  C   UNL     1      -2.143   1.238   0.000  0.00  0.00    +0.000 A 
ATOM      3  O   UNL     1      -2.143   2.062   0.000  0.00  0.00    +0.000 OA
ATOM      4  C   UNL     1      -1.429   0.825   0.000  0.00  0.00    +0.000 A 
ATOM      5  C   UNL     1      -1.429   0.000   0.000  0.00  0.00    +0.000 A 
ATOM      6  C   UNL     1      -2.143  -0.412   0.000  0.00  0.00    +0.000 A 
ATOM      7  C   UNL     1      -2.858   0.000   0.000  0.00  0.00    +0.000 A 
ATOM      8  S   UNL     1      -3.471  -0.552   0.000  0.00  0.00    +0.000 S 
ATOM      9  C   UNL     1      -3.135  -1.306   0.000  0.00  0.00    +0.000 A 
ATOM     10  C   UNL     1      -2.315  -1.220   0.000  0.00  0.00    +0.000 A 
ATOM     11  O   UNL     1      -0.715  -0.412   0.000  0.00  0.00    +0.000 OA
ENDROOT
BRANCH   4  12
ATOM     12  C   UNL     1      -0.715   1.238   0.000  0.00  0.00    +0.000 C 
ATOM     13  O   UNL     1      -0.715   2.062   0.000  0.00  0.00    +0.000 OA
ATOM     14  N   UNL     1       0.000   0.825   0.000  0.00  0.00    +0.000 NA
BRANCH  14  15
ATOM     15  C   UNL     1       0.715   1.238   0.000  0.00  0.00    +0.000 C 
BRANCH  15  16
ATOM     16  C   UNL     1       1.429   0.825   0.000  0.00  0.00    +0.000 C 
BRANCH  16  17
ATOM     17  C   UNL     1       2.143   1.238   0.000  0.00  0.00    +0.000 C 
BRANCH  17  18
ATOM     18  N   UNL     1       2.858   0.825   0.000  0.00  0.00    +0.000 NA
ATOM     19  C   UNL     1       3.572   1.238   0.000  0.00  0.00    +0.000 C 
ATOM     20  C   UNL     1       4.287   0.825   0.000  0.00  0.00    +0.000 C 
ATOM     21  C   UNL     1       4.287   0.000   0.000  0.00  0.00    +0.000 C 
ATOM     22  C   UNL     1       3.572  -0.412   0.000  0.00  0.00    +0.000 C 
ATOM     23  C   UNL     1       2.858   0.000   0.000  0.00  0.00    +0.000 C 
ENDBRANCH  17  18
ENDBRANCH  16  17
ENDBRANCH  15  16
ENDBRANCH  14  15
ENDBRANCH   4  12
BRANCH   1  25
ATOM     24  C   UNL     1      -4.287   0.825   0.000  0.00  0.00    +0.000 C 
ATOM     25  C   UNL     1      -3.572   1.238   0.000  0.00  0.00    +0.000 C 
ATOM     26  C   UNL     1      -3.572   2.062   0.000  0.00  0.00    +0.000 C 
ENDBRANCH   1  25
TORSDOF 6
