REMARK  Name = 
REMARK  6 active torsions:
REMARK  status: ('A' for Active; 'I' for Inactive)
REMARK    1  A    between atoms: O_1  and  C_22
REMARK    2  A    between atoms: O_2  and  C_23
REMARK    3  A    between atoms: O_3  and  C_24
REMARK    4  A    between atoms: N_4  and  C_13
REMARK    5  A    between atoms: N_4  and  C_18
REMARK    6  A    between atoms: C_9  and  C_13
REMARK                            x       y       z     vdW  Elec       q    Type
REMARK                         _______ _______ _______ _____ _____    ______ ____
ROOT
ATOM      1  N   UNL     1      -0.744   0.781   0.000  0.00  0.00    +0.000 N 
ATOM      2  C   UNL     1      -0.748   1.606   0.000  0.00  0.00    +0.000 C 
ENDROOT
BRANCH   1   3
ATOM      3  C   UNL     1      -1.457   0.366   0.000  0.00  0.00    +0.000 A 
ATOM      4  C   UNL     1      -2.173   0.776   0.000  0.00  0.00    +0.000 A 
ATOM      5  C   UNL     1      -1.454  -0.459   0.000  0.00  0.00    +0.000 A 
ATOM      6  C   UNL     1      -2.167  -0.874   0.000  0.00  0.00    +0.000 A 
ATOM      7  C   UNL     1      -2.886   0.360   0.000  0.00  0.00    +0.000 A 
ATOM      8  C   UNL     1      -2.883  -0.465   0.000  0.00  0.00    +0.000 A 
BRANCH   8   9
ATOM      9  O   UNL     1      -3.596  -0.880   0.000  0.00  0.00    +0.000 OA
ATOM     10  C   UNL     1      -4.312  -0.470   0.000  0.00  0.00    +0.000 C 
ENDBRANCH   8   9
BRANCH   6  11
ATOM     11  O   UNL     1      -2.164  -1.699   0.000  0.00  0.00    +0.000 OA
ATOM     12  C   UNL     1      -1.448  -2.109   0.000  0.00  0.00    +0.000 C 
ENDBRANCH   6  11
BRANCH   7  13
ATOM     13  O   UNL     1      -3.602   0.770   0.000  0.00  0.00    +0.000 OA
ATOM     14  C   UNL     1      -3.605   1.595   0.000  0.00  0.00    +0.000 C 
ENDBRANCH   7  13
ENDBRANCH   1   3
BRANCH   1  15
ATOM     15  C   UNL     1      -0.028   0.371   0.000  0.00  0.00    +0.000 C 
BRANCH  15  20
ATOM     16  N   UNL     1       2.884   2.041   0.000  0.00  0.00    +0.000 NA
ATOM     17  N   UNL     1       3.598   0.804   0.000  0.00  0.00    +0.000 NA
ATOM     18  N   UNL     1       2.884  -0.434   0.000  0.00  0.00    +0.000 NA
ATOM     19  N   UNL     1       4.313   2.041   0.000  0.00  0.00    +0.000 NA
ATOM     20  C   UNL     1       0.684   0.787   0.000  0.00  0.00    +0.000 C 
ATOM     21  C   UNL     1       0.684   1.646   0.000  0.00  0.00    +0.000 C 
ATOM     22  C   UNL     1       1.432   0.363   0.000  0.00  0.00    +0.000 C 
ATOM     23  C   UNL     1       1.432   2.070   0.000  0.00  0.00    +0.000 C 
ATOM     24  C   UNL     1       2.170   0.804   0.000  0.00  0.00    +0.000 C 
ATOM     25  C   UNL     1       2.170   1.629   0.000  0.00  0.00    +0.000 C 
ATOM     26  C   UNL     1       2.884   0.391   0.000  0.00  0.00    +0.000 C 
ATOM     27  C   UNL     1       3.598   1.629   0.000  0.00  0.00    +0.000 C 
ENDBRANCH  15  20
ENDBRANCH   1  15
TORSDOF 6
