REMARK  Name = 
REMARK  3 active torsions:
REMARK  status: ('A' for Active; 'I' for Inactive)
REMARK    1  A    between atoms: C_2  and  C_3
REMARK    2  A    between atoms: C_3  and  N_4
REMARK    3  A    between atoms: C_3  and  C_10
REMARK                            x       y       z     vdW  Elec       q    Type
REMARK                         _______ _______ _______ _____ _____    ______ ____
ROOT
ATOM      1  C   UNL     1       0.012   0.428   0.000  0.00  0.00    +0.000 C 
ENDROOT
BRANCH   1   2
ATOM      2  N   UNL     1       0.012  -0.396   0.000  0.00  0.00    +0.000 N 
ATOM      3  C   UNL     1       0.679  -0.881   0.000  0.00  0.00    +0.000 C 
ATOM      4  C   UNL     1       0.424  -1.666   0.000  0.00  0.00    +0.000 C 
ATOM      5  C   UNL     1      -0.401  -1.666   0.000  0.00  0.00    +0.000 C 
ATOM      6  C   UNL     1      -0.656  -0.881   0.000  0.00  0.00    +0.000 C 
ATOM      7  O   UNL     1      -1.440  -0.626   0.000  0.00  0.00    +0.000 OA
ENDBRANCH   1   2
BRANCH   1   8
ATOM      8  C   UNL     1       0.726   0.841   0.000  0.00  0.00    +0.000 C 
ATOM      9  N   UNL     1       1.440   0.428   0.000  0.00  0.00    +0.000 NA
ATOM     10  O   UNL     1       0.726   1.666   0.000  0.00  0.00    +0.000 OA
ENDBRANCH   1   8
BRANCH   1  12
ATOM     11  C   UNL     1      -0.703   1.666   0.000  0.00  0.00    +0.000 C 
ATOM     12  C   UNL     1      -0.703   0.841   0.000  0.00  0.00    +0.000 C 
ENDBRANCH   1  12
TORSDOF 3
