REMARK  Name = 
REMARK  4 active torsions:
REMARK  status: ('A' for Active; 'I' for Inactive)
REMARK    1  A    between atoms: C_4  and  C_9
REMARK    2  A    between atoms: C_9  and  C_14
REMARK    3  A    between atoms: C_12  and  C_20
REMARK    4  A    between atoms: C_13  and  O_26
REMARK                            x       y       z     vdW  Elec       q    Type
REMARK                         _______ _______ _______ _____ _____    ______ ____
ROOT
ATOM      1  C   UNL     1      -1.429   0.000   0.000  0.00  0.00    +0.000 A 
ATOM      2  C   UNL     1      -0.715   1.238   0.000  0.00  0.00    +0.000 A 
ATOM      3  C   UNL     1      -1.429   0.825   0.000  0.00  0.00    +0.000 A 
ATOM      4  C   UNL     1      -0.715  -0.412   0.000  0.00  0.00    +0.000 A 
ATOM      5  C   UNL     1       0.000   0.000   0.000  0.00  0.00    +0.000 A 
ATOM      6  C   UNL     1       0.715  -0.412   0.000  0.00  0.00    +0.000 A 
ATOM      7  C   UNL     1       1.429   0.000   0.000  0.00  0.00    +0.000 A 
ATOM      8  C   UNL     1       1.429   0.825   0.000  0.00  0.00    +0.000 A 
ATOM      9  C   UNL     1       0.000   0.825   0.000  0.00  0.00    +0.000 A 
ATOM     10  O   UNL     1      -2.143   1.238   0.000  0.00  0.00    +0.000 OA
ATOM     11  O   UNL     1      -0.715  -1.238   0.000  0.00  0.00    +0.000 OA
ATOM     12  O   UNL     1       0.715  -1.238   0.000  0.00  0.00    +0.000 OA
ATOM     13  O   UNL     1       2.143  -0.412   0.000  0.00  0.00    +0.000 OA
ATOM     14  O   UNL     1       0.715   1.238   0.000  0.00  0.00    +0.000 OA
ENDROOT
BRANCH   8  19
ATOM     15  C   UNL     1       2.858   0.825   0.000  0.00  0.00    +0.000 A 
ATOM     16  C   UNL     1       2.143   2.062   0.000  0.00  0.00    +0.000 A 
ATOM     17  C   UNL     1       3.572   1.238   0.000  0.00  0.00    +0.000 A 
ATOM     18  C   UNL     1       2.858   2.475   0.000  0.00  0.00    +0.000 A 
ATOM     19  C   UNL     1       2.143   1.238   0.000  0.00  0.00    +0.000 A 
ATOM     20  C   UNL     1       3.572   2.062   0.000  0.00  0.00    +0.000 A 
BRANCH  20  22
ATOM     21  C   UNL     1       4.287   3.300   0.000  0.00  0.00    +0.000 C 
ATOM     22  O   UNL     1       4.287   2.475   0.000  0.00  0.00    +0.000 OA
ENDBRANCH  20  22
ENDBRANCH   8  19
BRANCH   2  23
ATOM     23  C   UNL     1      -0.715   2.062   0.000  0.00  0.00    +0.000 C 
BRANCH  23  26
ATOM     24  C   UNL     1      -2.143   3.712   0.000  0.00  0.00    +0.000 C 
ATOM     25  C   UNL     1      -0.715   3.712   0.000  0.00  0.00    +0.000 C 
ATOM     26  C   UNL     1      -1.429   2.475   0.000  0.00  0.00    +0.000 C 
ATOM     27  C   UNL     1      -1.429   3.300   0.000  0.00  0.00    +0.000 C 
ENDBRANCH  23  26
ENDBRANCH   2  23
TORSDOF 4
