REMARK  Name = 
REMARK  6 active torsions:
REMARK  status: ('A' for Active; 'I' for Inactive)
REMARK    1  A    between atoms: C_1  and  O_15
REMARK    2  A    between atoms: C_2  and  N_7
REMARK    3  A    between atoms: C_5  and  C_10
REMARK    4  A    between atoms: O_15  and  C_20
REMARK    5  A    between atoms: C_16  and  C_17
REMARK    6  A    between atoms: C_17  and  C_20
REMARK                            x       y       z     vdW  Elec       q    Type
REMARK                         _______ _______ _______ _____ _____    ______ ____
ROOT
ATOM      1  C   UNK     1      -0.357   0.619   0.000  0.00  0.00    +0.000 C 
ATOM      2  C   UNK     1      -0.357  -0.206   0.000  0.00  0.00    +0.000 C 
ATOM      3  O   UNK     1      -1.072   1.031   0.000  0.00  0.00    +0.000 OA
ATOM      4  C   UNK     1      -1.072  -0.619   0.000  0.00  0.00    +0.000 C 
ATOM      5  C   UNK     1      -1.786   0.618   0.000  0.00  0.00    +0.000 C 
ATOM      6  C   UNK     1      -1.786  -0.206   0.000  0.00  0.00    +0.000 C 
ATOM      7  O   UNK     1      -1.072  -1.444   0.000  0.00  0.00    +0.000 OA
ATOM      8  O   UNK     1      -2.501  -0.619   0.000  0.00  0.00    +0.000 OA
ENDROOT
BRANCH   2   9
ATOM      9  N   UNK     1       0.357  -0.619   0.000  0.00  0.00    +0.000 NA
ATOM     10  C   UNK     1       0.357  -1.444   0.000  0.00  0.00    +0.000 C 
ATOM     11  O   UNK     1       1.072  -1.856   0.000  0.00  0.00    +0.000 OA
ATOM     12  C   UNK     1      -0.357  -1.856   0.000  0.00  0.00    +0.000 C 
ENDBRANCH   2   9
BRANCH   5  13
ATOM     13  C   UNK     1      -2.501   1.031   0.000  0.00  0.00    +0.000 C 
ATOM     14  O   UNK     1      -3.215   0.619   0.000  0.00  0.00    +0.000 OA
ENDBRANCH   5  13
BRANCH   1  15
ATOM     15  O   UNK     1       0.357   1.031   0.000  0.00  0.00    +0.000 OA
BRANCH  15  16
ATOM     16  C   UNK     1       1.072   0.619   0.000  0.00  0.00    +0.000 C 
BRANCH  16  17
ATOM     17  C   UNK     1       1.786   1.031   0.000  0.00  0.00    +0.000 C 
ATOM     18  N   UNK     1       1.786   1.856   0.000  0.00  0.00    +0.000 NA
BRANCH  17  19
ATOM     19  C   UNK     1       2.501   0.619   0.000  0.00  0.00    +0.000 C 
ATOM     20  O   UNK     1       2.501  -0.206   0.000  0.00  0.00    +0.000 OA
ATOM     21  O   UNK     1       3.215   1.031   0.000  0.00  0.00    +0.000 OA
ENDBRANCH  17  19
ENDBRANCH  16  17
ENDBRANCH  15  16
ENDBRANCH   1  15
TORSDOF 6
