REMARK  Name = 
REMARK  7 active torsions:
REMARK  status: ('A' for Active; 'I' for Inactive)
REMARK    1  A    between atoms: C_2  and  C_4
REMARK    2  A    between atoms: C_8  and  C_9
REMARK    3  A    between atoms: C_12  and  N_13
REMARK    4  A    between atoms: N_16  and  C_17
REMARK    5  A    between atoms: C_17  and  C_18
REMARK    6  A    between atoms: C_18  and  C_23
REMARK    7  A    between atoms: C_26  and  N_29
REMARK                            x       y       z     vdW  Elec       q    Type
REMARK                         _______ _______ _______ _____ _____    ______ ____
ROOT
ATOM      1  N   UNL     1      -2.126  -2.145   0.000  0.00  0.00    +0.000 NA
ATOM      2  C   UNL     1      -1.411  -1.732   0.000  0.00  0.00    +0.000 C 
ATOM      3  O   UNL     1      -0.926  -1.065   0.000  0.00  0.00    +0.000 OA
ATOM      4  N   UNL     1      -0.697  -2.145   0.000  0.00  0.00    +0.000 NA
ENDROOT
BRANCH   1  10
ATOM      5  C   UNL     1      -3.555  -2.145   0.000  0.00  0.00    +0.000 A 
ATOM      6  C   UNL     1      -4.269  -1.732   0.000  0.00  0.00    +0.000 A 
ATOM      7  C   UNL     1      -4.269  -0.907   0.000  0.00  0.00    +0.000 A 
ATOM      8  C   UNL     1      -3.555  -0.495   0.000  0.00  0.00    +0.000 A 
ATOM      9  C   UNL     1      -2.840  -0.907   0.000  0.00  0.00    +0.000 A 
ATOM     10  C   UNL     1      -2.840  -1.732   0.000  0.00  0.00    +0.000 A 
BRANCH   9  11
ATOM     11  C   UNL     1      -2.126  -0.495   0.000  0.00  0.00    +0.000 C 
ATOM     12  C   UNL     1      -1.411  -0.907   0.000  0.00  0.00    +0.000 C 
ATOM     13  C   UNL     1      -2.126   0.330   0.000  0.00  0.00    +0.000 C 
ENDBRANCH   9  11
BRANCH   5  15
ATOM     14  C   UNL     1      -4.269  -3.382   0.000  0.00  0.00    +0.000 C 
ATOM     15  C   UNL     1      -3.555  -2.970   0.000  0.00  0.00    +0.000 C 
ATOM     16  C   UNL     1      -2.840  -3.382   0.000  0.00  0.00    +0.000 C 
ENDBRANCH   5  15
ENDBRANCH   1  10
BRANCH   4  17
ATOM     17  C   UNL     1       0.018  -1.732   0.000  0.00  0.00    +0.000 C 
BRANCH  17  18
ATOM     18  C   UNL     1       0.732  -2.145   0.000  0.00  0.00    +0.000 C 
ATOM     19  C   UNL     1       1.517  -2.400   0.000  0.00  0.00    +0.000 C 
ATOM     20  C   UNL     1       1.517  -3.225   0.000  0.00  0.00    +0.000 C 
ATOM     21  C   UNL     1       0.732  -3.480   0.000  0.00  0.00    +0.000 C 
ATOM     22  C   UNL     1       0.247  -2.812   0.000  0.00  0.00    +0.000 C 
BRANCH  18  23
ATOM     23  C   UNL     1       1.068  -1.391   0.000  0.00  0.00    +0.000 A 
ATOM     24  C   UNL     1       0.583  -0.724   0.000  0.00  0.00    +0.000 A 
ATOM     25  C   UNL     1       0.918   0.030   0.000  0.00  0.00    +0.000 A 
ATOM     26  C   UNL     1       1.739   0.116   0.000  0.00  0.00    +0.000 A 
ATOM     27  C   UNL     1       2.224  -0.551   0.000  0.00  0.00    +0.000 A 
ATOM     28  C   UNL     1       1.888  -1.305   0.000  0.00  0.00    +0.000 A 
BRANCH  26  29
ATOM     29  N   UNL     1       2.074   0.870   0.000  0.00  0.00    +0.000 N 
ATOM     30  C   UNL     1       1.589   1.537   0.000  0.00  0.00    +0.000 C 
ATOM     31  C   UNL     1       2.895   0.956   0.000  0.00  0.00    +0.000 C 
ENDBRANCH  26  29
ENDBRANCH  18  23
ENDBRANCH  17  18
ENDBRANCH   4  17
TORSDOF 7
