REMARK  Name = 
REMARK  5 active torsions:
REMARK  status: ('A' for Active; 'I' for Inactive)
REMARK    1  A    between atoms: C_2  and  N_11
REMARK    2  A    between atoms: C_5  and  C_7
REMARK    3  A    between atoms: C_7  and  C_8
REMARK    4  A    between atoms: C_12  and  C_14
REMARK    5  A    between atoms: C_14  and  C_15
REMARK                            x       y       z     vdW  Elec       q    Type
REMARK                         _______ _______ _______ _____ _____    ______ ____
ROOT
ATOM      1  B   UNL     1      -4.895   4.353   0.000  0.00  0.00    +0.000 B 
ATOM      2  C   UNL     1      -4.895   3.528   0.000  0.00  0.00    +0.000 C 
ATOM      3  C   UNL     1      -5.609   3.115   0.000  0.00  0.00    +0.000 C 
ATOM      4  C   UNL     1      -6.324   3.528   0.000  0.00  0.00    +0.000 C 
ATOM      5  C   UNL     1      -6.324   4.353   0.000  0.00  0.00    +0.000 C 
ATOM      6  O   UNL     1      -5.609   4.765   0.000  0.00  0.00    +0.000 OA
ATOM      7  O   UNL     1      -4.180   4.765   0.000  0.00  0.00    +0.000 OA
ENDROOT
BRANCH   2   8
ATOM      8  N   UNL     1      -4.180   3.115   0.000  0.00  0.00    +0.000 NA
ATOM      9  C   UNL     1      -4.180   2.290   0.000  0.00  0.00    +0.000 C 
ATOM     10  O   UNL     1      -4.895   1.878   0.000  0.00  0.00    +0.000 OA
BRANCH   9  11
ATOM     11  C   UNL     1      -3.466   1.878   0.000  0.00  0.00    +0.000 C 
BRANCH  11  12
ATOM     12  C   UNL     1      -3.466   1.053   0.000  0.00  0.00    +0.000 A 
ATOM     13  C   UNL     1      -2.798   0.568   0.000  0.00  0.00    +0.000 A 
ATOM     14  C   UNL     1      -3.053  -0.217   0.000  0.00  0.00    +0.000 A 
ATOM     15  C   UNL     1      -3.878  -0.217   0.000  0.00  0.00    +0.000 A 
ATOM     16  S   UNL     1      -4.133   0.568   0.000  0.00  0.00    +0.000 S 
ENDBRANCH  11  12
ENDBRANCH   9  11
ENDBRANCH   2   8
BRANCH   5  17
ATOM     17  C   UNL     1      -7.038   4.765   0.000  0.00  0.00    +0.000 C 
BRANCH  17  18
ATOM     18  C   UNL     1      -7.038   5.590   0.000  0.00  0.00    +0.000 C 
ATOM     19  O   UNL     1      -7.753   6.003   0.000  0.00  0.00    +0.000 OA
ATOM     20  O   UNL     1      -6.324   6.003   0.000  0.00  0.00    +0.000 OA
ENDBRANCH  17  18
ENDBRANCH   5  17
TORSDOF 5
