REMARK  Name = 
REMARK  0 active torsions:
REMARK  status: ('A' for Active; 'I' for Inactive)
REMARK                            x       y       z     vdW  Elec       q    Type
REMARK                         _______ _______ _______ _____ _____    ______ ____
ROOT
ATOM      1  C   UNL     1      -0.270   3.471   0.000  0.00  0.00    +0.000 A 
ATOM      2  C   UNL     1      -0.614   2.721   0.000  0.00  0.00    +0.000 A 
ATOM      3  C   UNL     1       0.551   3.548   0.000  0.00  0.00    +0.000 A 
ATOM      4  C   UNL     1      -0.137   2.048   0.000  0.00  0.00    +0.000 A 
ATOM      5  C   UNL     1       4.650   3.343   0.000  0.00  0.00    +0.000 A 
ATOM      6  C   UNL     1       3.868   3.607   0.000  0.00  0.00    +0.000 A 
ATOM      7  C   UNL     1       4.194   1.989   0.000  0.00  0.00    +0.000 A 
ATOM      8  C   UNL     1       2.793   1.708   0.000  0.00  0.00    +0.000 C 
ATOM      9  C   UNL     1       3.412   2.253   0.000  0.00  0.00    +0.000 A 
ATOM     10  C   UNL     1       4.813   2.535   0.000  0.00  0.00    +0.000 A 
ATOM     11  C   UNL     1       1.029   2.875   0.000  0.00  0.00    +0.000 A 
ATOM     12  C   UNL     1       0.685   2.125   0.000  0.00  0.00    +0.000 A 
ATOM     13  C   UNL     1       3.249   3.062   0.000  0.00  0.00    +0.000 A 
ATOM     14  C   UNL     1       1.848   2.780   0.000  0.00  0.00    +0.000 C 
ATOM     15  C   UNL     1       1.292   1.567   0.000  0.00  0.00    +0.000 C 
ATOM     16  N   UNL     1       5.594   2.271   0.000  0.00  0.00    +0.000 NA
ATOM     17  N   UNL     1       2.467   3.325   0.000  0.00  0.00    +0.000 NA
ATOM     18  N   UNL     1       2.011   1.971   0.000  0.00  0.00    +0.000 N 
ATOM     19  O   UNL     1       1.197   0.747   0.000  0.00  0.00    +0.000 OA
ENDROOT
TORSDOF 0
