REMARK  Name = 
REMARK  5 active torsions:
REMARK  status: ('A' for Active; 'I' for Inactive)
REMARK    1  A    between atoms: C_5  and  N_8
REMARK    2  A    between atoms: N_11  and  C_12
REMARK    3  A    between atoms: C_16  and  C_19
REMARK    4  A    between atoms: C_19  and  N_20
REMARK    5  A    between atoms: C_26  and  O_28
REMARK                            x       y       z     vdW  Elec       q    Type
REMARK                         _______ _______ _______ _____ _____    ______ ____
ROOT
ATOM      1  C   UNL     1       7.859  -5.362   0.000  0.00  0.00    +0.000 A 
ATOM      2  C   UNL     1       8.574  -4.950   0.000  0.00  0.00    +0.000 A 
ATOM      3  C   UNL     1       9.288  -5.362   0.000  0.00  0.00    +0.000 A 
ATOM      4  C   UNL     1       9.288  -6.188   0.000  0.00  0.00    +0.000 A 
ATOM      5  C   UNL     1       8.574  -6.600   0.000  0.00  0.00    +0.000 A 
ATOM      6  C   UNL     1       7.859  -6.188   0.000  0.00  0.00    +0.000 A 
ATOM      7  F   UNL     1       7.145  -6.600   0.000  0.00  0.00    +0.000 F 
ENDROOT
BRANCH   1  11
ATOM      8  N   UNL     1       6.430  -3.712   0.000  0.00  0.00    +0.000 NA
ATOM      9  C   UNL     1       7.145  -4.125   0.000  0.00  0.00    +0.000 C 
ATOM     10  O   UNL     1       7.859  -3.712   0.000  0.00  0.00    +0.000 OA
ATOM     11  N   UNL     1       7.145  -4.950   0.000  0.00  0.00    +0.000 NA
BRANCH   8  16
ATOM     12  C   UNL     1       6.430  -0.412   0.000  0.00  0.00    +0.000 C 
ATOM     13  C   UNL     1       6.430  -1.238   0.000  0.00  0.00    +0.000 A 
ATOM     14  C   UNL     1       7.145  -1.650   0.000  0.00  0.00    +0.000 A 
ATOM     15  C   UNL     1       7.145  -2.475   0.000  0.00  0.00    +0.000 A 
ATOM     16  C   UNL     1       6.430  -2.888   0.000  0.00  0.00    +0.000 A 
ATOM     17  C   UNL     1       5.716  -2.475   0.000  0.00  0.00    +0.000 A 
ATOM     18  N   UNL     1       5.716  -1.650   0.000  0.00  0.00    +0.000 NA
ENDBRANCH   8  16
ENDBRANCH   1  11
BRANCH   5  19
ATOM     19  C   UNL     1       8.574  -7.425   0.000  0.00  0.00    +0.000 C 
BRANCH  19  20
ATOM     20  N   UNL     1       7.859  -7.838   0.000  0.00  0.00    +0.000 NA
ATOM     21  C   UNL     1       7.859  -8.662   0.000  0.00  0.00    +0.000 C 
ATOM     22  C   UNL     1       7.145  -9.075   0.000  0.00  0.00    +0.000 C 
ATOM     23  N   UNL     1       6.430  -8.662   0.000  0.00  0.00    +0.000 N 
ATOM     24  C   UNL     1       6.430  -7.838   0.000  0.00  0.00    +0.000 C 
ATOM     25  C   UNL     1       7.145  -7.425   0.000  0.00  0.00    +0.000 C 
ATOM     26  C   UNL     1       5.716  -9.075   0.000  0.00  0.00    +0.000 C 
ATOM     27  O   UNL     1       5.001  -8.662   0.000  0.00  0.00    +0.000 OA
BRANCH  26  28
ATOM     28  O   UNL     1       5.716  -9.900   0.000  0.00  0.00    +0.000 OA
ATOM     29  C   UNL     1       6.430 -10.312   0.000  0.00  0.00    +0.000 C 
ENDBRANCH  26  28
ENDBRANCH  19  20
ENDBRANCH   5  19
TORSDOF 5
