REMARK  Name = 
REMARK  2 active torsions:
REMARK  status: ('A' for Active; 'I' for Inactive)
REMARK    1  A    between atoms: C_13  and  O_20
REMARK    2  A    between atoms: O_20  and  C_24
REMARK                            x       y       z     vdW  Elec       q    Type
REMARK                         _______ _______ _______ _____ _____    ______ ____
ROOT
ATOM      1  C   UNL     1       0.097   2.254   0.000  0.00  0.00    +0.000 C 
ATOM      2  C   UNL     1      -0.646   1.896   0.000  0.00  0.00    +0.000 C 
ATOM      3  C   UNL     1      -0.830   1.092   0.000  0.00  0.00    +0.000 C 
ATOM      4  C   UNL     1      -0.315   0.447   0.000  0.00  0.00    +0.000 C 
ATOM      5  C   UNL     1       0.510   0.447   0.000  0.00  0.00    +0.000 C 
ATOM      6  O   UNL     1       1.024   1.092   0.000  0.00  0.00    +0.000 OA
ATOM      7  C   UNL     1       0.841   1.896   0.000  0.00  0.00    +0.000 C 
ATOM      8  C   UNL     1      -1.645   0.969   0.000  0.00  0.00    +0.000 C 
ATOM      9  C   UNL     1      -1.947   0.201   0.000  0.00  0.00    +0.000 C 
ATOM     10  C   UNL     1      -1.433  -0.444   0.000  0.00  0.00    +0.000 C 
ATOM     11  C   UNL     1      -0.728  -0.267   0.000  0.00  0.00    +0.000 C 
ATOM     12  C   UNL     1      -0.315  -0.982   0.000  0.00  0.00    +0.000 C 
ATOM     13  C   UNL     1       0.510  -0.982   0.000  0.00  0.00    +0.000 C 
ATOM     14  O   UNL     1       0.922  -0.267   0.000  0.00  0.00    +0.000 OA
ATOM     15  C   UNL     1      -2.160   1.614   0.000  0.00  0.00    +0.000 C 
ATOM     16  C   UNL     1       1.486   2.411   0.000  0.00  0.00    +0.000 C 
ATOM     17  O   UNL     1      -0.315   1.272   0.000  0.00  0.00    +0.000 OA
ATOM     18  O   UNL     1       0.044   1.683   0.000  0.00  0.00    +0.000 OA
ATOM     19  C   UNL     1      -0.728  -1.696   0.000  0.00  0.00    +0.000 C 
ENDROOT
BRANCH  13  20
ATOM     20  O   UNL     1       0.922  -1.696   0.000  0.00  0.00    +0.000 OA
BRANCH  20  21
ATOM     21  C   UNL     1       1.747  -1.696   0.000  0.00  0.00    +0.000 C 
ATOM     22  C   UNL     1       2.160  -2.411   0.000  0.00  0.00    +0.000 C 
ENDBRANCH  20  21
ENDBRANCH  13  20
TORSDOF 2
