REMARK  Name = 
REMARK  5 active torsions:
REMARK  status: ('A' for Active; 'I' for Inactive)
REMARK    1  A    between atoms: CA_4  and  N_9
REMARK    2  A    between atoms: CA_5  and  C_11
REMARK    3  A    between atoms: C_7  and  C_10
REMARK    4  A    between atoms: C_14  and  O_23
REMARK    5  A    between atoms: O_23  and  C_26
REMARK                            x       y       z     vdW  Elec       q    Type
REMARK                         _______ _______ _______ _____ _____    ______ ____
ROOT
ATOM      1  C   UNL     1      -0.659  -0.306   0.000  0.00  0.00    +0.000 C 
ATOM      2  N   UNL     1       0.105   0.131   0.000  0.00  0.00    +0.000 NA
ATOM      3  O   UNL     1      -0.667  -1.013   0.000  0.00  0.00    +0.000 OA
ENDROOT
BRANCH   2   7
ATOM      4  N   UNL     1       1.641  -1.133   0.000  0.00  0.00    +0.000 N 
ATOM      5  C   UNL     1       1.641  -0.290   0.000  0.00  0.00    +0.000 C 
ATOM      6  C   UNL     1       0.816  -1.117   0.000  0.00  0.00    +0.000 C 
ATOM      7  CA  UNL     1       0.816  -0.282   0.000  0.00  0.00    +0.000 C 
ATOM      8  CA  UNL     1       2.432  -1.367   0.000  0.00  0.00    +0.000 C 
ATOM      9  S   UNL     1       2.424  -0.048   0.000  0.00  0.00    +0.000 S 
ATOM     10  C   UNL     1       2.897  -0.720   0.000  0.00  0.00    +0.000 C 
ATOM     11  O   UNL     1       0.168  -1.539   0.000  0.00  0.00    +0.000 OA
ATOM     12  C   UNL     1       3.533  -0.158   0.000  0.00  0.00    +0.000 C 
ATOM     13  C   UNL     1       3.533  -1.274   0.000  0.00  0.00    +0.000 C 
BRANCH   8  14
ATOM     14  C   UNL     1       2.689  -2.164   0.000  0.00  0.00    +0.000 C 
ATOM     15  O   UNL     1       3.423  -2.164   0.000  0.00  0.00    +0.000 OA
ATOM     16  OXT UNL     1       2.198  -2.653   0.000  0.00  0.00    +0.000 OA
ENDBRANCH   8  14
ENDBRANCH   2   7
BRANCH   1  17
ATOM     17  C   UNL     1      -1.393   0.186   0.000  0.00  0.00    +0.000 A 
ATOM     18  C   UNL     1      -1.386   1.000   0.000  0.00  0.00    +0.000 A 
ATOM     19  C   UNL     1      -2.119  -0.212   0.000  0.00  0.00    +0.000 A 
ATOM     20  C   UNL     1      -2.127   1.427   0.000  0.00  0.00    +0.000 A 
ATOM     21  C   UNL     1      -2.822   0.188   0.000  0.00  0.00    +0.000 A 
ATOM     22  C   UNL     1      -2.817   1.084   0.000  0.00  0.00    +0.000 A 
ATOM     23  C   UNL     1      -0.738   1.443   0.000  0.00  0.00    +0.000 A 
ATOM     24  C   UNL     1      -2.135   2.312   0.000  0.00  0.00    +0.000 A 
ATOM     25  C   UNL     1      -0.738   2.244   0.000  0.00  0.00    +0.000 A 
ATOM     26  C   UNL     1      -1.456   2.653   0.000  0.00  0.00    +0.000 A 
BRANCH  19  27
ATOM     27  O   UNL     1      -2.112  -1.063   0.000  0.00  0.00    +0.000 OA
BRANCH  27  28
ATOM     28  C   UNL     1      -2.846  -1.430   0.000  0.00  0.00    +0.000 C 
ATOM     29  C   UNL     1      -3.533  -1.133   0.000  0.00  0.00    +0.000 C 
ENDBRANCH  27  28
ENDBRANCH  19  27
ENDBRANCH   1  17
TORSDOF 5
