REMARK  Name = 
REMARK  7 active torsions:
REMARK  status: ('A' for Active; 'I' for Inactive)
REMARK    1  A    between atoms: C_6  and  C_13
REMARK    2  A    between atoms: O_7  and  C_8
REMARK    3  A    between atoms: O_7  and  C_13
REMARK    4  A    between atoms: C_13  and  C_14
REMARK    5  A    between atoms: C_14  and  C_15
REMARK    6  A    between atoms: C_15  and  N_17
REMARK    7  A    between atoms: C_18  and  C_21
REMARK                            x       y       z     vdW  Elec       q    Type
REMARK                         _______ _______ _______ _____ _____    ______ ____
ROOT
ATOM      1  O   UNL     1       0.357   1.031   0.000  0.00  0.00    +0.000 OA
ENDROOT
BRANCH   1   2
ATOM      2  C   UNL     1      -0.357   0.619   0.000  0.00  0.00    +0.000 A 
ATOM      3  C   UNL     1      -1.072   1.031   0.000  0.00  0.00    +0.000 A 
ATOM      4  C   UNL     1      -0.357  -0.206   0.000  0.00  0.00    +0.000 A 
ATOM      5  C   UNL     1      -1.072  -0.619   0.000  0.00  0.00    +0.000 A 
ATOM      6  C   UNL     1      -1.786   0.619   0.000  0.00  0.00    +0.000 A 
ATOM      7  C   UNL     1      -1.786  -0.206   0.000  0.00  0.00    +0.000 A 
BRANCH   7  10
ATOM      8  F   UNL     1      -3.215  -0.206   0.000  0.00  0.00    +0.000 F 
ATOM      9  F   UNL     1      -2.501  -1.444   0.000  0.00  0.00    +0.000 F 
ATOM     10  C   UNL     1      -2.501  -0.619   0.000  0.00  0.00    +0.000 C 
ATOM     11  F   UNL     1      -3.215  -1.031   0.000  0.00  0.00    +0.000 F 
ENDBRANCH   7  10
ENDBRANCH   1   2
BRANCH   1  12
ATOM     12  C   UNL     1       1.072   0.619   0.000  0.00  0.00    +0.000 C 
BRANCH  12  18
ATOM     13  C   UNL     1       1.786  -0.619   0.000  0.00  0.00    +0.000 A 
ATOM     14  C   UNL     1       1.786  -1.444   0.000  0.00  0.00    +0.000 A 
ATOM     15  C   UNL     1       1.072  -1.856   0.000  0.00  0.00    +0.000 A 
ATOM     16  C   UNL     1       0.357  -1.444   0.000  0.00  0.00    +0.000 A 
ATOM     17  C   UNL     1       0.357  -0.619   0.000  0.00  0.00    +0.000 A 
ATOM     18  C   UNL     1       1.072  -0.206   0.000  0.00  0.00    +0.000 A 
ENDBRANCH  12  18
BRANCH  12  19
ATOM     19  C   UNL     1       1.786   1.031   0.000  0.00  0.00    +0.000 C 
BRANCH  19  20
ATOM     20  C   UNL     1       2.501   0.619   0.000  0.00  0.00    +0.000 C 
BRANCH  20  22
ATOM     21  C   UNL     1       3.215   1.856   0.000  0.00  0.00    +0.000 C 
ATOM     22  N   UNL     1       3.215   1.031   0.000  0.00  0.00    +0.000 NA
ENDBRANCH  20  22
ENDBRANCH  19  20
ENDBRANCH  12  19
ENDBRANCH   1  12
TORSDOF 7
