REMARK  Name = 
REMARK  5 active torsions:
REMARK  status: ('A' for Active; 'I' for Inactive)
REMARK    1  A    between atoms: C_2  and  C_3
REMARK    2  A    between atoms: C_2  and  N_19
REMARK    3  A    between atoms: N_5  and  C_6
REMARK    4  A    between atoms: C_20  and  C_22
REMARK    5  A    between atoms: C_22  and  C_23
REMARK                            x       y       z     vdW  Elec       q    Type
REMARK                         _______ _______ _______ _____ _____    ______ ____
ROOT
ATOM      1  C   UNL     1       1.176  -0.906   0.000  0.00  0.00    +0.000 C 
ATOM      2  O   UNL     1       1.176  -0.081   0.000  0.00  0.00    +0.000 OA
ATOM      3  N   UNL     1       0.461  -1.319   0.000  0.00  0.00    +0.000 NA
ENDROOT
BRANCH   3   4
ATOM      4  C   UNL     1      -0.253  -0.906   0.000  0.00  0.00    +0.000 C 
ATOM      5  C   UNL     1      -0.935  -1.371   0.000  0.00  0.00    +0.000 A 
ATOM      6  C   UNL     1      -0.751  -2.175   0.000  0.00  0.00    +0.000 A 
ATOM      7  C   UNL     1      -1.356  -2.736   0.000  0.00  0.00    +0.000 A 
ATOM      8  C   UNL     1      -2.144  -2.493   0.000  0.00  0.00    +0.000 A 
ATOM      9  C   UNL     1      -2.328  -1.689   0.000  0.00  0.00    +0.000 A 
ATOM     10  C   UNL     1      -1.723  -1.128   0.000  0.00  0.00    +0.000 A 
ATOM     11  C   UNL     1      -2.024  -0.360   0.000  0.00  0.00    +0.000 C 
ATOM     12  C   UNL     1      -1.612   0.355   0.000  0.00  0.00    +0.000 C 
ATOM     13  N   UNL     1      -0.796   0.478   0.000  0.00  0.00    +0.000 N 
ATOM     14  C   UNL     1      -0.191  -0.084   0.000  0.00  0.00    +0.000 C 
ATOM     15  O   UNL     1       0.577   0.218   0.000  0.00  0.00    +0.000 OA
ATOM     16  C   UNL     1      -0.553   1.266   0.000  0.00  0.00    +0.000 C 
ENDBRANCH   3   4
BRANCH   1  18
ATOM     17  C   UNL     1       1.890  -2.144   0.000  0.00  0.00    +0.000 C 
ATOM     18  C   UNL     1       1.890  -1.319   0.000  0.00  0.00    +0.000 C 
BRANCH  18  19
ATOM     19  N   UNL     1       2.605  -0.906   0.000  0.00  0.00    +0.000 NA
ATOM     20  C   UNL     1       3.319  -1.319   0.000  0.00  0.00    +0.000 C 
ATOM     21  O   UNL     1       3.319  -2.144   0.000  0.00  0.00    +0.000 OA
BRANCH  20  22
ATOM     22  C   UNL     1       4.034  -0.906   0.000  0.00  0.00    +0.000 C 
ATOM     23  O   UNL     1       4.034  -0.081   0.000  0.00  0.00    +0.000 OA
BRANCH  22  24
ATOM     24  C   UNL     1       4.748  -1.319   0.000  0.00  0.00    +0.000 C 
ATOM     25  C   UNL     1       5.463  -0.906   0.000  0.00  0.00    +0.000 C 
ATOM     26  C   UNL     1       4.748  -2.144   0.000  0.00  0.00    +0.000 C 
ENDBRANCH  22  24
ENDBRANCH  20  22
ENDBRANCH  18  19
ENDBRANCH   1  18
TORSDOF 5
