REMARK  Name = 
REMARK  8 active torsions:
REMARK  status: ('A' for Active; 'I' for Inactive)
REMARK    1  A    between atoms: C_2  and  N_3
REMARK    2  A    between atoms: N_3  and  C_4
REMARK    3  A    between atoms: N_3  and  C_6
REMARK    4  A    between atoms: C_6  and  C_7
REMARK    5  A    between atoms: C_7  and  O_9
REMARK    6  A    between atoms: O_9  and  C_10
REMARK    7  A    between atoms: C_10  and  C_12
REMARK    8  A    between atoms: C_17  and  C_18
REMARK                            x       y       z     vdW  Elec       q    Type
REMARK                         _______ _______ _______ _____ _____    ______ ____
ROOT
ATOM      1  C   UNL     1       8.072  -2.837   0.000  0.00  0.00    +0.000 C 
ATOM      2  C   UNL     1       8.072  -2.013   0.000  0.00  0.00    +0.000 C 
ATOM      3  C   UNL     1       8.786  -1.600   0.000  0.00  0.00    +0.000 C 
ATOM      4  C   UNL     1       9.501  -2.013   0.000  0.00  0.00    +0.000 C 
ATOM      5  C   UNL     1       9.501  -2.837   0.000  0.00  0.00    +0.000 C 
ATOM      6  C   UNL     1       8.786  -3.250   0.000  0.00  0.00    +0.000 C 
ATOM      7  O   UNL     1       8.399  -3.978   0.000  0.00  0.00    +0.000 OA
ENDROOT
BRANCH   6   8
ATOM      8  C   UNL     1       9.174  -3.978   0.000  0.00  0.00    +0.000 C 
ATOM      9  C   UNL     1       9.998  -4.007   0.000  0.00  0.00    +0.000 C 
ATOM     10  C   UNL     1      10.386  -4.736   0.000  0.00  0.00    +0.000 C 
ATOM     11  C   UNL     1       9.948  -5.435   0.000  0.00  0.00    +0.000 C 
ATOM     12  C   UNL     1       9.124  -5.407   0.000  0.00  0.00    +0.000 C 
ATOM     13  C   UNL     1       8.736  -4.678   0.000  0.00  0.00    +0.000 C 
ENDBRANCH   6   8
BRANCH   1  14
ATOM     14  C   UNL     1       7.357  -3.250   0.000  0.00  0.00    +0.000 C 
ATOM     15  O   UNL     1       7.357  -4.075   0.000  0.00  0.00    +0.000 OA
BRANCH  14  16
ATOM     16  O   UNL     1       6.643  -2.837   0.000  0.00  0.00    +0.000 OA
BRANCH  16  17
ATOM     17  C   UNL     1       5.928  -3.250   0.000  0.00  0.00    +0.000 C 
ATOM     18  C   UNL     1       5.928  -4.075   0.000  0.00  0.00    +0.000 C 
BRANCH  17  19
ATOM     19  C   UNL     1       5.214  -2.837   0.000  0.00  0.00    +0.000 C 
BRANCH  19  20
ATOM     20  N   UNL     1       4.500  -3.250   0.000  0.00  0.00    +0.000 NA
BRANCH  20  21
ATOM     21  C   UNL     1       4.500  -4.075   0.000  0.00  0.00    +0.000 C 
ATOM     22  C   UNL     1       3.785  -4.487   0.000  0.00  0.00    +0.000 C 
ENDBRANCH  20  21
BRANCH  20  24
ATOM     23  C   UNL     1       3.071  -3.250   0.000  0.00  0.00    +0.000 C 
ATOM     24  C   UNL     1       3.785  -2.837   0.000  0.00  0.00    +0.000 C 
ENDBRANCH  20  24
ENDBRANCH  19  20
ENDBRANCH  17  19
ENDBRANCH  16  17
ENDBRANCH  14  16
ENDBRANCH   1  14
TORSDOF 8
