REMARK  Name = 
REMARK  3 active torsions:
REMARK  status: ('A' for Active; 'I' for Inactive)
REMARK    1  A    between atoms: C_1  and  C_4
REMARK    2  A    between atoms: C_2  and  C_3
REMARK    3  A    between atoms: C_3  and  O_8
REMARK                            x       y       z     vdW  Elec       q    Type
REMARK                         _______ _______ _______ _____ _____    ______ ____
ROOT
ATOM      1  C   UNL     1      -0.715  -0.206   0.000  0.00  0.00    +0.000 C 
ATOM      2  C   UNL     1       0.000   0.206   0.000  0.00  0.00    +0.000 C 
ENDROOT
BRANCH   1   3
ATOM      3  C   UNL     1      -1.429   0.206   0.000  0.00  0.00    +0.000 C 
ATOM      4  O   UNL     1      -2.144  -0.206   0.000  0.00  0.00    +0.000 OA
ATOM      5  O   UNL     1      -1.429   1.031   0.000  0.00  0.00    +0.000 OA
ENDBRANCH   1   3
BRANCH   2   6
ATOM      6  C   UNL     1       0.715  -0.206   0.000  0.00  0.00    +0.000 C 
ATOM      7  O   UNL     1       0.715  -1.031   0.000  0.00  0.00    +0.000 OA
BRANCH   6   8
ATOM      8  O   UNL     1       1.429   0.206   0.000  0.00  0.00    +0.000 OA
ATOM      9  C   UNL     1       2.144  -0.206   0.000  0.00  0.00    +0.000 C 
ENDBRANCH   6   8
ENDBRANCH   2   6
TORSDOF 3
