REMARK  Name = 
REMARK  5 active torsions:
REMARK  status: ('A' for Active; 'I' for Inactive)
REMARK    1  A    between atoms: C_14  and  C_16
REMARK    2  A    between atoms: C_14  and  C_17
REMARK    3  A    between atoms: C_15  and  C_16
REMARK    4  A    between atoms: C_15  and  N_20
REMARK    5  A    between atoms: C_18  and  C_19
REMARK                            x       y       z     vdW  Elec       q    Type
REMARK                         _______ _______ _______ _____ _____    ______ ____
ROOT
ATOM      1  C   UNL     1      -2.143   7.013   0.000  0.00  0.00    +0.000 C 
ENDROOT
BRANCH   1   6
ATOM      2  C   UNL     1      -2.858   8.250   0.000  0.00  0.00    +0.000 A 
ATOM      3  C   UNL     1      -3.572   7.013   0.000  0.00  0.00    +0.000 A 
ATOM      4  C   UNL     1      -3.572   8.662   0.000  0.00  0.00    +0.000 A 
ATOM      5  C   UNL     1      -4.287   7.425   0.000  0.00  0.00    +0.000 A 
ATOM      6  C   UNL     1      -2.858   7.425   0.000  0.00  0.00    +0.000 A 
ATOM      7  C   UNL     1      -4.287   8.250   0.000  0.00  0.00    +0.000 A 
BRANCH   7  11
ATOM      8  C   UNL     1      -5.716   9.075   0.000  0.00  0.00    +0.000 C 
ATOM      9  C   UNL     1      -5.414   7.948   0.000  0.00  0.00    +0.000 C 
ATOM     10  C   UNL     1      -4.589   9.377   0.000  0.00  0.00    +0.000 C 
ATOM     11  C   UNL     1      -5.001   8.662   0.000  0.00  0.00    +0.000 C 
ENDBRANCH   7  11
ENDBRANCH   1   6
BRANCH   1  13
ATOM     12  C   UNL     1      -2.858   5.775   0.000  0.00  0.00    +0.000 C 
ATOM     13  C   UNL     1      -2.143   6.188   0.000  0.00  0.00    +0.000 C 
BRANCH  13  14
ATOM     14  C   UNL     1      -1.429   5.775   0.000  0.00  0.00    +0.000 C 
BRANCH  14  20
ATOM     15  C   UNL     1      -1.429   3.300   0.000  0.00  0.00    +0.000 C 
ATOM     16  C   UNL     1      -0.715   3.712   0.000  0.00  0.00    +0.000 C 
ATOM     17  C   UNL     1      -2.143   3.712   0.000  0.00  0.00    +0.000 C 
ATOM     18  C   UNL     1      -0.715   4.537   0.000  0.00  0.00    +0.000 C 
ATOM     19  C   UNL     1      -2.143   4.537   0.000  0.00  0.00    +0.000 C 
ATOM     20  N   UNL     1      -1.429   4.950   0.000  0.00  0.00    +0.000 NA
ENDBRANCH  14  20
ENDBRANCH  13  14
ENDBRANCH   1  13
TORSDOF 5
