REMARK  Name = 
REMARK  3 active torsions:
REMARK  status: ('A' for Active; 'I' for Inactive)
REMARK    1  A    between atoms: C_2  and  C_3
REMARK    2  A    between atoms: C_2  and  C_6
REMARK    3  A    between atoms: C_10  and  C_13
REMARK                            x       y       z     vdW  Elec       q    Type
REMARK                         _______ _______ _______ _____ _____    ______ ____
ROOT
ATOM      1  C   UNL     1       0.715  -1.238   0.000  0.00  0.00    +0.000 A 
ATOM      2  C   UNL     1       1.429  -1.650   0.000  0.00  0.00    +0.000 A 
ATOM      3  C   UNL     1       1.429  -2.475   0.000  0.00  0.00    +0.000 A 
ATOM      4  F   UNL     1       2.143  -2.888   0.000  0.00  0.00    +0.000 F 
ATOM      5  C   UNL     1       0.715  -2.888   0.000  0.00  0.00    +0.000 A 
ATOM      6  C   UNL     1       0.000  -2.475   0.000  0.00  0.00    +0.000 A 
ATOM      7  C   UNL     1       0.000  -1.650   0.000  0.00  0.00    +0.000 A 
ENDROOT
BRANCH   5   8
ATOM      8  C   UNL     1       0.715  -3.712   0.000  0.00  0.00    +0.000 A 
ATOM      9  C   UNL     1       1.429  -4.125   0.000  0.00  0.00    +0.000 A 
ATOM     10  C   UNL     1       1.429  -4.950   0.000  0.00  0.00    +0.000 A 
ATOM     11  C   UNL     1       0.715  -5.362   0.000  0.00  0.00    +0.000 A 
ATOM     12  C   UNL     1       0.000  -4.950   0.000  0.00  0.00    +0.000 A 
ATOM     13  C   UNL     1       0.000  -4.125   0.000  0.00  0.00    +0.000 A 
ENDBRANCH   5   8
BRANCH   1  15
ATOM     14  C   UNL     1       1.429   0.000   0.000  0.00  0.00    +0.000 C 
ATOM     15  C   UNL     1       0.715  -0.412   0.000  0.00  0.00    +0.000 C 
BRANCH  15  16
ATOM     16  C   UNL     1       0.000   0.000   0.000  0.00  0.00    +0.000 C 
ATOM     17  O   UNL     1       0.000   0.825   0.000  0.00  0.00    +0.000 OA
ATOM     18  O   UNL     1      -0.715  -0.412   0.000  0.00  0.00    +0.000 OA
ENDBRANCH  15  16
ENDBRANCH   1  15
TORSDOF 3
