REMARK  Name = 
REMARK  8 active torsions:
REMARK  status: ('A' for Active; 'I' for Inactive)
REMARK    1  A    between atoms: C_2  and  O_3
REMARK    2  A    between atoms: O_3  and  C_4
REMARK    3  A    between atoms: C_4  and  C_6
REMARK    4  A    between atoms: C_6  and  N_7
REMARK    5  A    between atoms: C_9  and  C_28
REMARK    6  A    between atoms: C_11  and  C_12
REMARK    7  A    between atoms: C_15  and  C_18
REMARK    8  A    between atoms: C_20  and  S_24
REMARK                            x       y       z     vdW  Elec       q    Type
REMARK                         _______ _______ _______ _____ _____    ______ ____
ROOT
ATOM      1  C   UNL     1       6.633  -4.970   0.000  0.00  0.00    +0.000 A 
ATOM      2  C   UNL     1       7.418  -5.224   0.000  0.00  0.00    +0.000 A 
ATOM      3  C   UNL     1       7.589  -6.032   0.000  0.00  0.00    +0.000 A 
ATOM      4  C   UNL     1       6.976  -6.584   0.000  0.00  0.00    +0.000 A 
ATOM      5  C   UNL     1       6.191  -6.329   0.000  0.00  0.00    +0.000 A 
ATOM      6  C   UNL     1       6.020  -5.522   0.000  0.00  0.00    +0.000 A 
ENDROOT
BRANCH   4   7
ATOM      7  C   UNL     1       7.147  -7.391   0.000  0.00  0.00    +0.000 A 
ATOM      8  C   UNL     1       7.932  -7.646   0.000  0.00  0.00    +0.000 A 
ATOM      9  C   UNL     1       8.104  -8.452   0.000  0.00  0.00    +0.000 A 
ATOM     10  C   UNL     1       7.490  -9.005   0.000  0.00  0.00    +0.000 A 
ATOM     11  C   UNL     1       6.706  -8.749   0.000  0.00  0.00    +0.000 A 
ATOM     12  C   UNL     1       6.534  -7.943   0.000  0.00  0.00    +0.000 A 
BRANCH   9  13
ATOM     13  S   UNL     1       8.888  -8.707   0.000  0.00  0.00    +0.000 S 
ATOM     14  C   UNL     1       9.673  -8.962   0.000  0.00  0.00    +0.000 C 
ATOM     15  O   UNL     1       8.633  -9.492   0.000  0.00  0.00    +0.000 OA
ATOM     16  O   UNL     1       9.143  -7.923   0.000  0.00  0.00    +0.000 OA
ENDBRANCH   9  13
ENDBRANCH   4   7
BRANCH   1  21
ATOM     17  N   UNL     1       5.708  -3.827   0.000  0.00  0.00    +0.000 N 
ATOM     18  N   UNL     1       5.794  -3.007   0.000  0.00  0.00    +0.000 NA
ATOM     19  C   UNL     1       6.601  -2.835   0.000  0.00  0.00    +0.000 A 
ATOM     20  C   UNL     1       7.013  -3.550   0.000  0.00  0.00    +0.000 A 
ATOM     21  C   UNL     1       6.461  -4.163   0.000  0.00  0.00    +0.000 A 
BRANCH  19  22
ATOM     22  C   UNL     1       6.936  -2.081   0.000  0.00  0.00    +0.000 C 
ATOM     23  F   UNL     1       7.272  -1.328   0.000  0.00  0.00    +0.000 F 
ATOM     24  F   UNL     1       7.690  -2.417   0.000  0.00  0.00    +0.000 F 
ATOM     25  F   UNL     1       6.183  -1.746   0.000  0.00  0.00    +0.000 F 
ENDBRANCH  19  22
BRANCH  17  26
ATOM     26  C   UNL     1       4.993  -4.240   0.000  0.00  0.00    +0.000 C 
BRANCH  26  27
ATOM     27  C   UNL     1       4.279  -3.827   0.000  0.00  0.00    +0.000 C 
ATOM     28  O   UNL     1       4.279  -3.002   0.000  0.00  0.00    +0.000 OA
BRANCH  27  29
ATOM     29  O   UNL     1       3.564  -4.240   0.000  0.00  0.00    +0.000 OA
BRANCH  29  31
ATOM     30  C   UNL     1       2.135  -4.240   0.000  0.00  0.00    +0.000 C 
ATOM     31  C   UNL     1       2.850  -3.827   0.000  0.00  0.00    +0.000 C 
ENDBRANCH  29  31
ENDBRANCH  27  29
ENDBRANCH  26  27
ENDBRANCH  17  26
ENDBRANCH   1  21
TORSDOF 8
