REMARK  Name = 
REMARK  0 active torsions:
REMARK  status: ('A' for Active; 'I' for Inactive)
REMARK                            x       y       z     vdW  Elec       q    Type
REMARK                         _______ _______ _______ _____ _____    ______ ____
ROOT
ATOM      1  C   UNL     1       0.698   3.022   0.000  0.00  0.00    +0.000 C 
ATOM      2  N   UNL     1       1.513   3.148   0.000  0.00  0.00    +0.000 NA
ATOM      3  C   UNL     1       1.883   2.267   0.000  0.00  0.00    +0.000 C 
ATOM      4  C   UNL     1       2.650   2.571   0.000  0.00  0.00    +0.000 A 
ATOM      5  C   UNL     1       3.213   1.969   0.000  0.00  0.00    +0.000 A 
ATOM      6  C   UNL     1       4.017   2.155   0.000  0.00  0.00    +0.000 A 
ATOM      7  C   UNL     1       4.258   2.944   0.000  0.00  0.00    +0.000 A 
ATOM      8  C   UNL     1       3.694   3.547   0.000  0.00  0.00    +0.000 A 
ATOM      9  C   UNL     1       2.891   3.361   0.000  0.00  0.00    +0.000 A 
ATOM     10  C   UNL     1       2.423   4.041   0.000  0.00  0.00    +0.000 C 
ATOM     11  O   UNL     1       2.833   4.757   0.000  0.00  0.00    +0.000 OA
ATOM     12  C   UNL     1       1.601   4.099   0.000  0.00  0.00    +0.000 C 
ATOM     13  C   UNL     1       1.042   3.493   0.000  0.00  0.00    +0.000 C 
ATOM     14  C   UNL     1       1.167   2.677   0.000  0.00  0.00    +0.000 C 
ATOM     15  C   UNL     1       0.524   2.161   0.000  0.00  0.00    +0.000 C 
ATOM     16  O   UNL     1       0.650   1.345   0.000  0.00  0.00    +0.000 OA
ATOM     17  C   UNL     1      -0.245   2.459   0.000  0.00  0.00    +0.000 A 
ATOM     18  C   UNL     1      -0.888   1.943   0.000  0.00  0.00    +0.000 A 
ATOM     19  C   UNL     1      -1.657   2.241   0.000  0.00  0.00    +0.000 A 
ATOM     20  C   UNL     1      -1.783   3.057   0.000  0.00  0.00    +0.000 A 
ATOM     21  C   UNL     1      -1.140   3.573   0.000  0.00  0.00    +0.000 A 
ATOM     22  C   UNL     1      -0.371   3.275   0.000  0.00  0.00    +0.000 A 
ATOM     23  C   UNL     1       0.273   3.791   0.000  0.00  0.00    +0.000 C 
ATOM     24  O   UNL     1       0.147   4.607   0.000  0.00  0.00    +0.000 OA
ENDROOT
TORSDOF 0
