REMARK  Name = 
REMARK  1 active torsions:
REMARK  status: ('A' for Active; 'I' for Inactive)
REMARK    1  A    between atoms: C_2  and  C_5
REMARK                            x       y       z     vdW  Elec       q    Type
REMARK                         _______ _______ _______ _____ _____    ______ ____
ROOT
ATOM      1  C   UNL     1      -0.347   0.392   0.000  0.00  0.00    +0.000 A 
ATOM      2  C   UNL     1       0.298  -0.123   0.000  0.00  0.00    +0.000 C 
ATOM      3  C   UNL     1      -0.347   1.217   0.000  0.00  0.00    +0.000 A 
ATOM      4  C   UNL     1      -1.132   0.137   0.000  0.00  0.00    +0.000 A 
ATOM      5  N   UNL     1       1.102   0.061   0.000  0.00  0.00    +0.000 NA
ATOM      6  N   UNL     1      -1.132   1.472   0.000  0.00  0.00    +0.000 N 
ATOM      7  N   UNL     1       0.298   1.731   0.000  0.00  0.00    +0.000 N 
ATOM      8  N   UNL     1      -1.617   0.804   0.000  0.00  0.00    +0.000 NA
ATOM      9  C   UNL     1      -1.387  -0.648   0.000  0.00  0.00    +0.000 C 
ATOM     10  C   UNL     1       1.460   0.804   0.000  0.00  0.00    +0.000 C 
ATOM     11  C   UNL     1      -1.387   2.256   0.000  0.00  0.00    +0.000 C 
ATOM     12  C   UNL     1       1.102   1.548   0.000  0.00  0.00    +0.000 C 
ATOM     13  C   UNL     1       0.114   2.535   0.000  0.00  0.00    +0.000 C 
ATOM     14  O   UNL     1       1.617   2.193   0.000  0.00  0.00    +0.000 OA
ENDROOT
BRANCH   2  15
ATOM     15  C   UNL     1       0.114  -0.927   0.000  0.00  0.00    +0.000 A 
ATOM     16  C   UNL     1       0.719  -1.488   0.000  0.00  0.00    +0.000 A 
ATOM     17  C   UNL     1      -0.674  -1.170   0.000  0.00  0.00    +0.000 A 
ATOM     18  C   UNL     1       0.535  -2.292   0.000  0.00  0.00    +0.000 A 
ATOM     19  F   UNL     1       1.507  -1.245   0.000  0.00  0.00    +0.000 F 
ATOM     20  C   UNL     1      -0.858  -1.974   0.000  0.00  0.00    +0.000 A 
ATOM     21  C   UNL     1      -0.253  -2.535   0.000  0.00  0.00    +0.000 A 
ENDBRANCH   2  15
TORSDOF 1
