REMARK  Name = 
REMARK  3 active torsions:
REMARK  status: ('A' for Active; 'I' for Inactive)
REMARK    1  A    between atoms: C_1  and  N_3
REMARK    2  A    between atoms: S_2  and  N_3
REMARK    3  A    between atoms: S_2  and  C_9
REMARK                            x       y       z     vdW  Elec       q    Type
REMARK                         _______ _______ _______ _____ _____    ______ ____
ROOT
ATOM      1  N   UNL     1       0.534   0.184   0.000  0.00  0.00    +0.000 N 
ATOM      2  C   UNL     1       0.529   1.010   0.000  0.00  0.00    +0.000 C 
ATOM      3  O   UNL     1       1.244   1.423   0.000  0.00  0.00    +0.000 OA
ATOM      4  C   UNL     1      -0.184   1.419   0.000  0.00  0.00    +0.000 C 
ENDROOT
BRANCH   1   5
ATOM      5  C   UNL     1       1.249  -0.224   0.000  0.00  0.00    +0.000 A 
ATOM      6  C   UNL     1       1.501  -1.010   0.000  0.00  0.00    +0.000 A 
ATOM      7  O   UNL     1       1.914   0.262   0.000  0.00  0.00    +0.000 OA
ATOM      8  N   UNL     1       2.585  -0.224   0.000  0.00  0.00    +0.000 NA
ATOM      9  C   UNL     1       2.327  -1.010   0.000  0.00  0.00    +0.000 A 
ATOM     10  C   UNL     1       0.782  -1.414   0.000  0.00  0.00    +0.000 C 
ATOM     11  C   UNL     1       3.041  -1.423   0.000  0.00  0.00    +0.000 C 
ENDBRANCH   1   5
BRANCH   1  12
ATOM     12  S   UNL     1      -0.180  -0.233   0.000  0.00  0.00    +0.000 S 
ATOM     13  O   UNL     1      -0.598  -0.947   0.000  0.00  0.00    +0.000 OA
ATOM     14  O   UNL     1       0.228  -0.947   0.000  0.00  0.00    +0.000 OA
BRANCH  12  15
ATOM     15  C   UNL     1      -0.899   0.180   0.000  0.00  0.00    +0.000 A 
ATOM     16  C   UNL     1      -1.613  -0.233   0.000  0.00  0.00    +0.000 A 
ATOM     17  C   UNL     1      -0.899   1.010   0.000  0.00  0.00    +0.000 A 
ATOM     18  C   UNL     1      -2.327   1.010   0.000  0.00  0.00    +0.000 A 
ATOM     19  N   UNL     1      -3.041   1.423   0.000  0.00  0.00    +0.000 NA
ATOM     20  C   UNL     1      -2.327   0.180   0.000  0.00  0.00    +0.000 A 
ATOM     21  C   UNL     1      -1.613   1.423   0.000  0.00  0.00    +0.000 A 
ENDBRANCH  12  15
ENDBRANCH   1  12
TORSDOF 3
