REMARK  Name = 
REMARK  3 active torsions:
REMARK  status: ('A' for Active; 'I' for Inactive)
REMARK    1  A    between atoms: C_1  and  C_2
REMARK    2  A    between atoms: C_1  and  C_9
REMARK    3  A    between atoms: C_9  and  C_11
REMARK                            x       y       z     vdW  Elec       q    Type
REMARK                         _______ _______ _______ _____ _____    ______ ____
ROOT
ATOM      1  C   UNL     1       0.700   0.351   0.000  0.00  0.00    +0.000 C 
ENDROOT
BRANCH   1   2
ATOM      2  C   UNL     1      -0.117   0.329   0.000  0.00  0.00    +0.000 A 
ATOM      3  C   UNL     1      -1.766   0.283   0.000  0.00  0.00    +0.000 A 
ATOM      4  C   UNL     1      -0.508  -0.397   0.000  0.00  0.00    +0.000 A 
ATOM      5  C   UNL     1      -0.546   1.028   0.000  0.00  0.00    +0.000 A 
ATOM      6  C   UNL     1      -1.374   1.004   0.000  0.00  0.00    +0.000 A 
ATOM      7  C   UNL     1      -1.333  -0.420   0.000  0.00  0.00    +0.000 A 
ATOM      8  O   UNL     1      -2.586   0.262   0.000  0.00  0.00    +0.000 OA
ENDBRANCH   1   2
BRANCH   1   9
ATOM      9  C   UNL     1       1.153  -0.336   0.000  0.00  0.00    +0.000 C 
ATOM     10  C   UNL     1       1.608  -1.028   0.000  0.00  0.00    +0.000 C 
ATOM     11  N   UNL     1       0.458  -0.788   0.000  0.00  0.00    +0.000 NA
BRANCH   9  12
ATOM     12  C   UNL     1       1.844   0.124   0.000  0.00  0.00    +0.000 C 
ATOM     13  O   UNL     1       1.796   0.939   0.000  0.00  0.00    +0.000 OA
ATOM     14  O   UNL     1       2.586  -0.248   0.000  0.00  0.00    +0.000 OA
ENDBRANCH   9  12
ENDBRANCH   1   9
TORSDOF 3
