REMARK  Name = 
REMARK  3 active torsions:
REMARK  status: ('A' for Active; 'I' for Inactive)
REMARK    1  A    between atoms: C_5  and  C_8
REMARK    2  A    between atoms: C_8  and  N_9
REMARK    3  A    between atoms: C_10  and  C_12
REMARK                            x       y       z     vdW  Elec       q    Type
REMARK                         _______ _______ _______ _____ _____    ______ ____
ROOT
ATOM      1  C   UNL     1      -2.883   0.778   0.000  0.00  0.00    +0.000 A 
ATOM      2  C   UNL     1      -2.197   1.236   0.000  0.00  0.00    +0.000 A 
ATOM      3  N   UNL     1      -1.457   0.870   0.000  0.00  0.00    +0.000 N 
ATOM      4  C   UNL     1      -1.404   0.047   0.000  0.00  0.00    +0.000 A 
ATOM      5  C   UNL     1      -2.090  -0.411   0.000  0.00  0.00    +0.000 A 
ATOM      6  C   UNL     1      -2.830  -0.045   0.000  0.00  0.00    +0.000 A 
ATOM      7  O   UNL     1      -3.516  -0.503   0.000  0.00  0.00    +0.000 OA
ATOM      8  O   UNL     1      -2.037  -1.234   0.000  0.00  0.00    +0.000 OA
ATOM      9  C   UNL     1      -0.664  -0.319   0.000  0.00  0.00    +0.000 C 
ATOM     10  O   UNL     1      -0.611  -1.142   0.000  0.00  0.00    +0.000 OA
ATOM     11  N   UNL     1       0.022   0.139   0.000  0.00  0.00    +0.000 N 
ATOM     12  C   UNL     1       0.699  -0.333   0.000  0.00  0.00    +0.000 C 
ATOM     13  C   UNL     1       1.490  -0.098   0.000  0.00  0.00    +0.000 C 
ATOM     14  C   UNL     1       1.799   0.667   0.000  0.00  0.00    +0.000 C 
ATOM     15  C   UNL     1       1.394   1.386   0.000  0.00  0.00    +0.000 C 
ATOM     16  C   UNL     1       1.261   0.440   0.000  0.00  0.00    +0.000 C 
ATOM     17  O   UNL     1       0.580   1.517   0.000  0.00  0.00    +0.000 OA
ATOM     18  C   UNL     1      -0.031   0.962   0.000  0.00  0.00    +0.000 C 
ATOM     19  C   UNL     1      -0.771   1.328   0.000  0.00  0.00    +0.000 C 
ENDROOT
BRANCH   1  21
ATOM     20  N   UNL     1      -4.309   0.686   0.000  0.00  0.00    +0.000 NA
ATOM     21  C   UNL     1      -3.623   1.144   0.000  0.00  0.00    +0.000 C 
ATOM     22  O   UNL     1      -3.676   1.967   0.000  0.00  0.00    +0.000 OA
BRANCH  20  23
ATOM     23  C   UNL     1      -5.048   1.052   0.000  0.00  0.00    +0.000 C 
BRANCH  23  28
ATOM     24  C   UNL     1      -6.368  -0.687   0.000  0.00  0.00    +0.000 A 
ATOM     25  C   UNL     1      -7.108  -0.322   0.000  0.00  0.00    +0.000 A 
ATOM     26  C   UNL     1      -7.161   0.502   0.000  0.00  0.00    +0.000 A 
ATOM     27  C   UNL     1      -6.474   0.959   0.000  0.00  0.00    +0.000 A 
ATOM     28  C   UNL     1      -5.735   0.594   0.000  0.00  0.00    +0.000 A 
ATOM     29  C   UNL     1      -5.682  -0.230   0.000  0.00  0.00    +0.000 A 
ATOM     30  F   UNL     1      -4.942  -0.595   0.000  0.00  0.00    +0.000 F 
ATOM     31  F   UNL     1      -6.528   1.783   0.000  0.00  0.00    +0.000 F 
ATOM     32  F   UNL     1      -7.794  -0.779   0.000  0.00  0.00    +0.000 F 
ENDBRANCH  23  28
ENDBRANCH  20  23
ENDBRANCH   1  21
TORSDOF 3
