REMARK  Name = 
REMARK  1 active torsions:
REMARK  status: ('A' for Active; 'I' for Inactive)
REMARK    1  A    between atoms: C_2  and  C_3
REMARK                            x       y       z     vdW  Elec       q    Type
REMARK                         _______ _______ _______ _____ _____    ______ ____
ROOT
ATOM      1  C   UNL     1       1.408   0.847   0.000  0.00  0.00    +0.000 A 
ATOM      2  C   UNL     1       1.892   0.180   0.000  0.00  0.00    +0.000 A 
ATOM      3  N   UNL     1       1.408  -0.487   0.000  0.00  0.00    +0.000 NA
ATOM      4  C   UNL     1       0.623  -0.230   0.000  0.00  0.00    +0.000 A 
ATOM      5  N   UNL     1       0.623   0.595   0.000  0.00  0.00    +0.000 N 
ATOM      6  C   UNL     1      -0.020   1.109   0.000  0.00  0.00    +0.000 C 
ATOM      7  C   UNL     1      -0.825   0.926   0.000  0.00  0.00    +0.000 C 
ATOM      8  C   UNL     1      -1.181   0.180   0.000  0.00  0.00    +0.000 A 
ATOM      9  C   UNL     1      -0.825  -0.561   0.000  0.00  0.00    +0.000 A 
ATOM     10  C   UNL     1      -1.289  -1.242   0.000  0.00  0.00    +0.000 A 
ATOM     11  C   UNL     1      -2.115  -1.183   0.000  0.00  0.00    +0.000 A 
ATOM     12  C   UNL     1      -2.470  -0.437   0.000  0.00  0.00    +0.000 A 
ATOM     13  C   UNL     1      -2.006   0.244   0.000  0.00  0.00    +0.000 A 
ATOM     14  C   UNL     1      -0.020  -0.744   0.000  0.00  0.00    +0.000 C 
ATOM     15  C   UNL     1      -0.652  -1.198   0.000  0.00  0.00    +0.000 C 
ATOM     16  C   UNL     1      -0.464  -2.003   0.000  0.00  0.00    +0.000 C 
ATOM     17  N   UNL     1       0.321  -2.245   0.000  0.00  0.00    +0.000 NA
ATOM     18  C   UNL     1       0.924  -1.682   0.000  0.00  0.00    +0.000 C 
ATOM     19  C   UNL     1       0.741  -0.882   0.000  0.00  0.00    +0.000 C 
ENDROOT
BRANCH   1  21
ATOM     20  N   UNL     1       2.470   1.806   0.000  0.00  0.00    +0.000 NA
ATOM     21  C   UNL     1       1.665   1.633   0.000  0.00  0.00    +0.000 C 
ATOM     22  O   UNL     1       1.111   2.245   0.000  0.00  0.00    +0.000 OA
ENDBRANCH   1  21
TORSDOF 1
