REMARK  Name = 
REMARK  1 active torsions:
REMARK  status: ('A' for Active; 'I' for Inactive)
REMARK    1  A    between atoms: C_16  and  C_19
REMARK                            x       y       z     vdW  Elec       q    Type
REMARK                         _______ _______ _______ _____ _____    ______ ____
ROOT
ATOM      1  C   UNL     1      -3.323  -0.430   0.000  0.00  0.00    +0.000 A 
ATOM      2  C   UNL     1      -3.323  -1.255   0.000  0.00  0.00    +0.000 A 
ATOM      3  C   UNL     1      -2.608  -1.668   0.000  0.00  0.00    +0.000 A 
ATOM      4  C   UNL     1      -1.894  -1.255   0.000  0.00  0.00    +0.000 A 
ATOM      5  C   UNL     1      -1.894  -0.430   0.000  0.00  0.00    +0.000 A 
ATOM      6  C   UNL     1      -2.608  -0.018   0.000  0.00  0.00    +0.000 A 
ATOM      7  N   UNL     1      -1.109  -1.510   0.000  0.00  0.00    +0.000 N 
ATOM      8  C   UNL     1      -0.624  -0.843   0.000  0.00  0.00    +0.000 C 
ATOM      9  C   UNL     1      -1.109  -0.175   0.000  0.00  0.00    +0.000 C 
ATOM     10  C   UNL     1       0.196  -0.756   0.000  0.00  0.00    +0.000 C 
ATOM     11  N   UNL     1       0.532  -0.003   0.000  0.00  0.00    +0.000 NA
ATOM     12  C   UNL     1       0.047   0.664   0.000  0.00  0.00    +0.000 C 
ATOM     13  C   UNL     1      -0.774   0.578   0.000  0.00  0.00    +0.000 C 
ATOM     14  C   UNL     1       0.950  -1.092   0.000  0.00  0.00    +0.000 C 
ATOM     15  C   UNL     1       1.285  -0.338   0.000  0.00  0.00    +0.000 C 
ATOM     16  C   UNL     1       2.075  -0.203   0.000  0.00  0.00    +0.000 C 
ATOM     17  C   UNL     1       1.321   0.132   0.000  0.00  0.00    +0.000 C 
ATOM     18  C   UNL     1       0.515   1.769   0.000  0.00  0.00    +0.000 C 
ATOM     19  O   UNL     1       2.059   0.548   0.000  0.00  0.00    +0.000 OA
ATOM     20  C   UNL     1      -1.068   1.763   0.000  0.00  0.00    +0.000 C 
ATOM     21  C   UNL     1      -1.109  -2.335   0.000  0.00  0.00    +0.000 C 
ATOM     22  O   UNL     1      -1.683   2.335   0.000  0.00  0.00    +0.000 OA
ENDROOT
BRANCH  16  23
ATOM     23  C   UNL     1       2.900  -0.203   0.000  0.00  0.00    +0.000 C 
ATOM     24  C   UNL     1       3.323  -0.936   0.000  0.00  0.00    +0.000 C 
ENDBRANCH  16  23
TORSDOF 1
