REMARK  Name = 
REMARK  5 active torsions:
REMARK  status: ('A' for Active; 'I' for Inactive)
REMARK    1  A    between atoms: C_7  and  C_11
REMARK    2  A    between atoms: C_10  and  C_12
REMARK    3  A    between atoms: C_12  and  C_16
REMARK    4  A    between atoms: C_13  and  C_17
REMARK    5  A    between atoms: C_14  and  C_18
REMARK                            x       y       z     vdW  Elec       q    Type
REMARK                         _______ _______ _______ _____ _____    ______ ____
ROOT
ATOM      1  C   UNL     1       0.714  -0.412   0.000  0.00  0.00    +0.000 A 
ATOM      2  C   UNL     1      -0.714  -0.412   0.000  0.00  0.00    +0.000 A 
ATOM      3  C   UNL     1       0.000   0.000   0.000  0.00  0.00    +0.000 A 
ATOM      4  C   UNL     1       0.714  -1.238   0.000  0.00  0.00    +0.000 A 
ATOM      5  C   UNL     1      -0.714  -1.238   0.000  0.00  0.00    +0.000 A 
ATOM      6  C   UNL     1       0.000  -1.650   0.000  0.00  0.00    +0.000 A 
ATOM      7  O   UNL     1       0.000  -2.475   0.000  0.00  0.00    +0.000 OA
ENDROOT
BRANCH   4  11
ATOM      8  C   UNL     1       2.143  -2.062   0.000  0.00  0.00    +0.000 C 
ATOM      9  C   UNL     1       1.841  -0.935   0.000  0.00  0.00    +0.000 C 
ATOM     10  C   UNL     1       1.016  -2.364   0.000  0.00  0.00    +0.000 C 
ATOM     11  C   UNL     1       1.429  -1.650   0.000  0.00  0.00    +0.000 C 
ENDBRANCH   4  11
BRANCH   5  15
ATOM     12  C   UNL     1      -2.143  -2.062   0.000  0.00  0.00    +0.000 C 
ATOM     13  C   UNL     1      -1.016  -2.364   0.000  0.00  0.00    +0.000 C 
ATOM     14  C   UNL     1      -1.841  -0.935   0.000  0.00  0.00    +0.000 C 
ATOM     15  C   UNL     1      -1.429  -1.650   0.000  0.00  0.00    +0.000 C 
ENDBRANCH   5  15
BRANCH   3  16
ATOM     16  C   UNL     1       0.000   0.825   0.000  0.00  0.00    +0.000 C 
ATOM     17  C   UNL     1      -0.714   1.238   0.000  0.00  0.00    +0.000 C 
BRANCH  17  18
ATOM     18  C   UNL     1      -0.714   2.062   0.000  0.00  0.00    +0.000 C 
ATOM     19  N   UNL     1      -1.429   2.475   0.000  0.00  0.00    +0.000 NA
ATOM     20  S   UNL     1       0.000   2.475   0.000  0.00  0.00    +0.000 S 
ENDBRANCH  17  18
BRANCH  17  21
ATOM     21  C   UNL     1      -1.429   0.825   0.000  0.00  0.00    +0.000 C 
ATOM     22  N   UNL     1      -2.143   0.412   0.000  0.00  0.00    +0.000 NA
ENDBRANCH  17  21
ENDBRANCH   3  16
TORSDOF 5
