REMARK  Name = 
REMARK  0 active torsions:
REMARK  status: ('A' for Active; 'I' for Inactive)
REMARK                            x       y       z     vdW  Elec       q    Type
REMARK                         _______ _______ _______ _____ _____    ______ ____
ROOT
ATOM      1  S   UNL     1      -0.025  -0.004   0.000  0.00  0.00    +0.000 S 
ATOM      2  O   UNL     1       0.825  -0.003   0.000  0.00  0.00    +0.000 OA
ATOM      3  O   UNL     1      -0.825   0.004   0.000  0.00  0.00    +0.000 OA
ENDROOT
TORSDOF 0
