REMARK  Name = 
REMARK  7 active torsions:
REMARK  status: ('A' for Active; 'I' for Inactive)
REMARK    1  A    between atoms: P_1  and  O_6
REMARK    2  A    between atoms: P_1  and  O_7
REMARK    3  A    between atoms: P_2  and  O_7
REMARK    4  A    between atoms: P_2  and  N_18
REMARK    5  A    between atoms: O_6  and  C_23
REMARK    6  A    between atoms: N_13  and  C_21
REMARK    7  A    between atoms: C_22  and  C_23
REMARK                            x       y       z     vdW  Elec       q    Type
REMARK                         _______ _______ _______ _____ _____    ______ ____
ROOT
ATOM      1  O   UNL     1       0.601  -0.789   0.000  0.00  0.00    +0.000 OA
ATOM      2  O   UNL     1       2.536  -1.690   0.000  0.00  0.00    +0.000 OA
ATOM      3  O   UNL     1       2.539   0.105   0.000  0.00  0.00    +0.000 OA
ATOM      4  C   UNL     1       1.869  -1.204   0.000  0.00  0.00    +0.000 C 
ATOM      5  C   UNL     1       1.871  -0.379   0.000  0.00  0.00    +0.000 C 
ATOM      6  C   UNL     1       1.084  -1.458   0.000  0.00  0.00    +0.000 C 
ATOM      7  C   UNL     1       1.087  -0.123   0.000  0.00  0.00    +0.000 C 
ENDROOT
BRANCH   6   9
ATOM      8  O   UNL     1      -0.667  -4.556   0.000  0.00  0.00    +0.000 OA
ATOM      9  N   UNL     1       0.828  -2.242   0.000  0.00  0.00    +0.000 N 
ATOM     10  N   UNL     1      -0.667  -2.081   0.000  0.00  0.00    +0.000 N 
ATOM     11  N   UNL     1       0.828  -3.570   0.000  0.00  0.00    +0.000 NA
ATOM     12  N   UNL     1      -1.381  -3.318   0.000  0.00  0.00    +0.000 NA
ATOM     13  N   UNL     1      -2.096  -2.081   0.000  0.00  0.00    +0.000 N 
ATOM     14  C   UNL     1       0.047  -2.493   0.000  0.00  0.00    +0.000 A 
ATOM     15  C   UNL     1       1.309  -2.906   0.000  0.00  0.00    +0.000 A 
ATOM     16  C   UNL     1       0.047  -3.318   0.000  0.00  0.00    +0.000 A 
ATOM     17  C   UNL     1      -0.667  -3.731   0.000  0.00  0.00    +0.000 A 
ATOM     18  C   UNL     1      -1.381  -2.493   0.000  0.00  0.00    +0.000 A 
ATOM     19  H   UNL     1      -0.667  -1.569   0.000  0.00  0.00    +0.000 HD
ATOM     20  H   UNL     1      -2.539  -2.336   0.000  0.00  0.00    +0.000 HD
ATOM     21  H   UNL     1      -2.096  -1.569   0.000  0.00  0.00    +0.000 HD
ENDBRANCH   6   9
BRANCH   7  22
ATOM     22  C   UNL     1       0.833   0.662   0.000  0.00  0.00    +0.000 C 
BRANCH  22  23
ATOM     23  O   UNL     1       1.386   1.274   0.000  0.00  0.00    +0.000 OA
BRANCH  23  24
ATOM     24  P   UNL     1       1.133   2.060   0.000  0.00  0.00    +0.000 P 
ATOM     25  O   UNL     1       1.918   2.313   0.000  0.00  0.00    +0.000 OA
ATOM     26  O   UNL     1       0.347   1.806   0.000  0.00  0.00    +0.000 OA
BRANCH  24  27
ATOM     27  O   UNL     1       0.879   2.845   0.000  0.00  0.00    +0.000 OA
BRANCH  27  28
ATOM     28  P   UNL     1       1.432   3.457   0.000  0.00  0.00    +0.000 P 
ATOM     29  O   UNL     1       0.820   4.010   0.000  0.00  0.00    +0.000 OA
ATOM     30  O   UNL     1       2.044   2.904   0.000  0.00  0.00    +0.000 OA
BRANCH  28  31
ATOM     31  N   UNL     1       1.985   4.069   0.000  0.00  0.00    +0.000 NA
ATOM     32  H   UNL     1       1.828   4.556   0.000  0.00  0.00    +0.000 HD
ATOM     33  H   UNL     1       2.485   3.962   0.000  0.00  0.00    +0.000 HD
ENDBRANCH  28  31
ENDBRANCH  27  28
ENDBRANCH  24  27
ENDBRANCH  23  24
ENDBRANCH  22  23
ENDBRANCH   7  22
TORSDOF 7
