REMARK  Name = 
REMARK  7 active torsions:
REMARK  status: ('A' for Active; 'I' for Inactive)
REMARK    1  A    between atoms: O_2  and  C_3
REMARK    2  A    between atoms: C_4  and  C_5
REMARK    3  A    between atoms: C_6  and  C_7
REMARK    4  A    between atoms: C_10  and  N_11
REMARK    5  A    between atoms: N_11  and  S_12
REMARK    6  A    between atoms: C_19  and  N_26
REMARK    7  A    between atoms: C_21  and  C_22
REMARK                            x       y       z     vdW  Elec       q    Type
REMARK                         _______ _______ _______ _____ _____    ______ ____
ROOT
ATOM      1  C   UNL     1       0.715  -1.238   0.000  0.00  0.00    +0.000 A 
ATOM      2  C   UNL     1       1.429  -1.650   0.000  0.00  0.00    +0.000 A 
ATOM      3  C   UNL     1       1.429  -2.475   0.000  0.00  0.00    +0.000 A 
ATOM      4  C   UNL     1       0.715  -2.888   0.000  0.00  0.00    +0.000 A 
ATOM      5  C   UNL     1       0.000  -2.475   0.000  0.00  0.00    +0.000 A 
ATOM      6  C   UNL     1       0.000  -1.650   0.000  0.00  0.00    +0.000 A 
ENDROOT
BRANCH   4   7
ATOM      7  N   UNL     1       0.715  -3.712   0.000  0.00  0.00    +0.000 N 
ATOM      8  C   UNL     1       1.429  -4.125   0.000  0.00  0.00    +0.000 A 
ATOM      9  C   UNL     1       1.429  -4.950   0.000  0.00  0.00    +0.000 A 
ATOM     10  C   UNL     1       0.715  -5.362   0.000  0.00  0.00    +0.000 A 
ATOM     11  O   UNL     1       0.715  -6.188   0.000  0.00  0.00    +0.000 OA
ATOM     12  N   UNL     1       0.000  -4.950   0.000  0.00  0.00    +0.000 NA
ATOM     13  C   UNL     1       0.000  -4.125   0.000  0.00  0.00    +0.000 A 
ATOM     14  O   UNL     1      -0.715  -3.712   0.000  0.00  0.00    +0.000 OA
ENDBRANCH   4   7
BRANCH   6  15
ATOM     15  C   UNL     1      -0.715  -1.238   0.000  0.00  0.00    +0.000 C 
ATOM     16  C   UNL     1      -1.429  -0.825   0.000  0.00  0.00    +0.000 C 
ATOM     17  C   UNL     1      -0.302  -0.523   0.000  0.00  0.00    +0.000 C 
ATOM     18  C   UNL     1      -1.127  -1.952   0.000  0.00  0.00    +0.000 C 
ENDBRANCH   6  15
BRANCH   1  20
ATOM     19  C   UNL     1       0.000   0.000   0.000  0.00  0.00    +0.000 C 
ATOM     20  O   UNL     1       0.715  -0.412   0.000  0.00  0.00    +0.000 OA
ENDBRANCH   1  20
BRANCH   2  21
ATOM     21  C   UNL     1       2.143  -1.238   0.000  0.00  0.00    +0.000 C 
ATOM     22  C   UNL     1       2.143  -0.412   0.000  0.00  0.00    +0.000 C 
BRANCH  22  23
ATOM     23  C   UNL     1       2.858   0.000   0.000  0.00  0.00    +0.000 A 
ATOM     24  C   UNL     1       2.858   0.825   0.000  0.00  0.00    +0.000 A 
ATOM     25  C   UNL     1       3.572   1.238   0.000  0.00  0.00    +0.000 A 
ATOM     26  C   UNL     1       4.287   0.825   0.000  0.00  0.00    +0.000 A 
ATOM     27  C   UNL     1       4.287   0.000   0.000  0.00  0.00    +0.000 A 
ATOM     28  C   UNL     1       3.572  -0.412   0.000  0.00  0.00    +0.000 A 
BRANCH  26  29
ATOM     29  N   UNL     1       5.001   1.238   0.000  0.00  0.00    +0.000 NA
BRANCH  29  30
ATOM     30  S   UNL     1       5.716   0.825   0.000  0.00  0.00    +0.000 S 
ATOM     31  C   UNL     1       6.430   0.412   0.000  0.00  0.00    +0.000 C 
ATOM     32  O   UNL     1       6.128   1.540   0.000  0.00  0.00    +0.000 OA
ATOM     33  O   UNL     1       5.303   0.111   0.000  0.00  0.00    +0.000 OA
ENDBRANCH  29  30
ENDBRANCH  26  29
ENDBRANCH  22  23
ENDBRANCH   2  21
TORSDOF 7
