REMARK  Name = 
REMARK  11 active torsions:
REMARK  status: ('A' for Active; 'I' for Inactive)
REMARK    1  A    between atoms: C_2  and  O_3
REMARK    2  A    between atoms: O_3  and  C_4
REMARK    3  A    between atoms: C_4  and  C_6
REMARK    4  A    between atoms: C_6  and  N_8
REMARK    5  A    between atoms: N_8  and  P_9
REMARK    6  A    between atoms: P_9  and  C_11
REMARK    7  A    between atoms: P_9  and  O_29
REMARK    8  A    between atoms: C_11  and  O_12
REMARK    9  A    between atoms: O_12  and  C_13
REMARK   10  A    between atoms: C_15  and  N_16
REMARK   11  A    between atoms: O_29  and  C_30
REMARK                            x       y       z     vdW  Elec       q    Type
REMARK                         _______ _______ _______ _____ _____    ______ ____
ROOT
ATOM      1  C   UNL     1      -0.696   3.487   0.000  0.00  0.00    +0.000 C 
ENDROOT
BRANCH   1   2
ATOM      2  P   UNL     1      -0.441   4.271   0.000  0.00  0.00    +0.000 P 
ATOM      3  O   UNL     1      -1.225   4.526   0.000  0.00  0.00    +0.000 OA
BRANCH   2   4
ATOM      4  N   UNL     1      -0.186   5.056   0.000  0.00  0.00    +0.000 NA
BRANCH   4   5
ATOM      5  C   UNL     1      -0.738   5.669   0.000  0.00  0.00    +0.000 C 
ATOM      6  C   UNL     1      -1.545   5.497   0.000  0.00  0.00    +0.000 C 
BRANCH   5   7
ATOM      7  C   UNL     1      -0.483   6.454   0.000  0.00  0.00    +0.000 C 
ATOM      8  O   UNL     1       0.324   6.625   0.000  0.00  0.00    +0.000 OA
BRANCH   7   9
ATOM      9  O   UNL     1      -1.035   7.067   0.000  0.00  0.00    +0.000 OA
BRANCH   9  11
ATOM     10  C   UNL     1      -1.332   8.464   0.000  0.00  0.00    +0.000 C 
ATOM     11  C   UNL     1      -0.780   7.851   0.000  0.00  0.00    +0.000 C 
ENDBRANCH   9  11
ENDBRANCH   7   9
ENDBRANCH   5   7
ENDBRANCH   4   5
ENDBRANCH   2   4
BRANCH   2  12
ATOM     12  O   UNL     1       0.344   4.016   0.000  0.00  0.00    +0.000 OA
BRANCH  12  13
ATOM     13  C   UNL     1       0.957   4.568   0.000  0.00  0.00    +0.000 A 
ATOM     14  C   UNL     1       0.786   5.375   0.000  0.00  0.00    +0.000 A 
ATOM     15  C   UNL     1       1.399   5.927   0.000  0.00  0.00    +0.000 A 
ATOM     16  C   UNL     1       2.183   5.673   0.000  0.00  0.00    +0.000 A 
ATOM     17  C   UNL     1       2.355   4.865   0.000  0.00  0.00    +0.000 A 
ATOM     18  C   UNL     1       1.742   4.314   0.000  0.00  0.00    +0.000 A 
ENDBRANCH  12  13
ENDBRANCH   2  12
ENDBRANCH   1   2
BRANCH   1  19
ATOM     19  O   UNL     1      -0.143   2.874   0.000  0.00  0.00    +0.000 OA
BRANCH  19  20
ATOM     20  C   UNL     1      -0.398   2.089   0.000  0.00  0.00    +0.000 C 
ATOM     21  O   UNL     1       0.086   1.422   0.000  0.00  0.00    +0.000 OA
ATOM     22  C   UNL     1      -0.398   0.754   0.000  0.00  0.00    +0.000 C 
ATOM     23  C   UNL     1      -1.183   1.009   0.000  0.00  0.00    +0.000 C 
ATOM     24  F   UNL     1      -1.851   0.524   0.000  0.00  0.00    +0.000 F 
ATOM     25  C   UNL     1      -1.183   1.834   0.000  0.00  0.00    +0.000 C 
BRANCH  22  26
ATOM     26  N   UNL     1      -0.143  -0.030   0.000  0.00  0.00    +0.000 N 
ATOM     27  C   UNL     1      -0.628  -0.698   0.000  0.00  0.00    +0.000 A 
ATOM     28  N   UNL     1      -0.143  -1.365   0.000  0.00  0.00    +0.000 NA
ATOM     29  C   UNL     1       0.641  -1.110   0.000  0.00  0.00    +0.000 A 
ATOM     30  C   UNL     1       0.641  -0.285   0.000  0.00  0.00    +0.000 A 
ATOM     31  N   UNL     1       1.356   0.127   0.000  0.00  0.00    +0.000 NA
ATOM     32  C   UNL     1       2.070  -0.285   0.000  0.00  0.00    +0.000 A 
ATOM     33  N   UNL     1       2.070  -1.110   0.000  0.00  0.00    +0.000 NA
ATOM     34  C   UNL     1       1.356  -1.523   0.000  0.00  0.00    +0.000 A 
ATOM     35  N   UNL     1       1.356  -2.348   0.000  0.00  0.00    +0.000 NA
ENDBRANCH  22  26
ENDBRANCH  19  20
ENDBRANCH   1  19
TORSDOF 11
