REMARK  Name = 
REMARK  19 active torsions:
REMARK  status: ('A' for Active; 'I' for Inactive)
REMARK    1  A    between atoms: O_3  and  C_17
REMARK    2  A    between atoms: O_3  and  C_31
REMARK    3  A    between atoms: O_4  and  C_18
REMARK    4  A    between atoms: O_4  and  C_32
REMARK    5  A    between atoms: N_11  and  C_19
REMARK    6  A    between atoms: N_12  and  C_20
REMARK    7  A    between atoms: C_15  and  C_16
REMARK    8  A    between atoms: C_15  and  C_17
REMARK    9  A    between atoms: C_16  and  C_18
REMARK   10  A    between atoms: C_17  and  C_23
REMARK   11  A    between atoms: C_18  and  C_24
REMARK   12  A    between atoms: C_19  and  C_21
REMARK   13  A    between atoms: C_19  and  C_29
REMARK   14  A    between atoms: C_20  and  C_22
REMARK   15  A    between atoms: C_20  and  C_30
REMARK   16  A    between atoms: C_31  and  C_33
REMARK   17  A    between atoms: C_32  and  C_34
REMARK   18  A    between atoms: C_45  and  C_47
REMARK   19  A    between atoms: C_46  and  C_48
REMARK                            x       y       z     vdW  Elec       q    Type
REMARK                         _______ _______ _______ _____ _____    ______ ____
ROOT
ATOM      1  O   UNL     1       1.072  -1.031   0.000  0.00  0.00    +0.000 OA
ATOM      2  C   UNL     1       1.072  -0.206   0.000  0.00  0.00    +0.000 C 
ENDROOT
BRANCH   2   4
ATOM      3  O   UNL     1       0.357   1.031   0.000  0.00  0.00    +0.000 OA
ATOM      4  C   UNL     1       0.357   0.206   0.000  0.00  0.00    +0.000 C 
BRANCH   4   5
ATOM      5  C   UNL     1      -0.357  -0.206   0.000  0.00  0.00    +0.000 C 
BRANCH   5   8
ATOM      6  O   UNL     1      -1.072   1.031   0.000  0.00  0.00    +0.000 OA
ATOM      7  N   UNL     1      -1.786  -0.206   0.000  0.00  0.00    +0.000 NA
ATOM      8  C   UNL     1      -1.072   0.206   0.000  0.00  0.00    +0.000 C 
BRANCH   7   9
ATOM      9  C   UNL     1      -2.501   0.206   0.000  0.00  0.00    +0.000 C 
BRANCH   9  12
ATOM     10  O   UNL     1      -3.215  -1.031   0.000  0.00  0.00    +0.000 OA
ATOM     11  N   UNL     1      -3.930   0.206   0.000  0.00  0.00    +0.000 NA
ATOM     12  C   UNL     1      -3.215  -0.206   0.000  0.00  0.00    +0.000 C 
ATOM     13  C   UNL     1      -4.644  -0.206   0.000  0.00  0.00    +0.000 C 
ENDBRANCH   9  12
BRANCH   9  14
ATOM     14  C   UNL     1      -2.501   1.031   0.000  0.00  0.00    +0.000 C 
ATOM     15  C   UNL     1      -3.215   1.444   0.000  0.00  0.00    +0.000 C 
ATOM     16  C   UNL     1      -1.786   1.444   0.000  0.00  0.00    +0.000 C 
ENDBRANCH   9  14
ENDBRANCH   7   9
ENDBRANCH   5   8
BRANCH   5  17
ATOM     17  O   UNL     1      -0.357  -1.031   0.000  0.00  0.00    +0.000 OA
BRANCH  17  18
ATOM     18  C   UNL     1      -1.072  -1.444   0.000  0.00  0.00    +0.000 C 
BRANCH  18  19
ATOM     19  C   UNL     1      -1.072  -2.269   0.000  0.00  0.00    +0.000 A 
ATOM     20  C   UNL     1      -0.357  -2.681   0.000  0.00  0.00    +0.000 A 
ATOM     21  C   UNL     1      -1.786  -2.681   0.000  0.00  0.00    +0.000 A 
ATOM     22  C   UNL     1      -0.357  -3.506   0.000  0.00  0.00    +0.000 A 
ATOM     23  C   UNL     1      -1.786  -3.506   0.000  0.00  0.00    +0.000 A 
ATOM     24  C   UNL     1      -1.072  -3.919   0.000  0.00  0.00    +0.000 A 
BRANCH  24  26
ATOM     25  S   UNL     1      -0.659  -6.013   0.000  0.00  0.00    +0.000 S 
ATOM     26  C   UNL     1      -1.072  -4.744   0.000  0.00  0.00    +0.000 A 
ATOM     27  C   UNL     1      -1.739  -5.229   0.000  0.00  0.00    +0.000 A 
ATOM     28  C   UNL     1      -0.404  -5.229   0.000  0.00  0.00    +0.000 A 
ATOM     29  C   UNL     1      -1.484  -6.013   0.000  0.00  0.00    +0.000 A 
ENDBRANCH  24  26
ENDBRANCH  18  19
ENDBRANCH  17  18
ENDBRANCH   5  17
ENDBRANCH   4   5
ENDBRANCH   2   4
BRANCH   2  30
ATOM     30  C   UNL     1       1.786   0.206   0.000  0.00  0.00    +0.000 C 
BRANCH  30  33
ATOM     31  O   UNL     1       3.215   0.206   0.000  0.00  0.00    +0.000 OA
ATOM     32  N   UNL     1       2.501  -1.031   0.000  0.00  0.00    +0.000 NA
ATOM     33  C   UNL     1       2.501  -0.206   0.000  0.00  0.00    +0.000 C 
BRANCH  32  34
ATOM     34  C   UNL     1       3.215  -1.444   0.000  0.00  0.00    +0.000 C 
BRANCH  34  37
ATOM     35  O   UNL     1       2.501  -2.681   0.000  0.00  0.00    +0.000 OA
ATOM     36  N   UNL     1       3.930  -2.681   0.000  0.00  0.00    +0.000 NA
ATOM     37  C   UNL     1       3.215  -2.269   0.000  0.00  0.00    +0.000 C 
ATOM     38  C   UNL     1       3.930  -3.506   0.000  0.00  0.00    +0.000 C 
ENDBRANCH  34  37
BRANCH  34  39
ATOM     39  C   UNL     1       3.930  -1.031   0.000  0.00  0.00    +0.000 C 
ATOM     40  C   UNL     1       4.644  -1.444   0.000  0.00  0.00    +0.000 C 
ATOM     41  C   UNL     1       3.930  -0.206   0.000  0.00  0.00    +0.000 C 
ENDBRANCH  34  39
ENDBRANCH  32  34
ENDBRANCH  30  33
BRANCH  30  42
ATOM     42  O   UNL     1       1.786   1.031   0.000  0.00  0.00    +0.000 OA
BRANCH  42  43
ATOM     43  C   UNL     1       2.501   1.444   0.000  0.00  0.00    +0.000 C 
BRANCH  43  44
ATOM     44  C   UNL     1       2.501   2.269   0.000  0.00  0.00    +0.000 A 
ATOM     45  C   UNL     1       3.215   2.681   0.000  0.00  0.00    +0.000 A 
ATOM     46  C   UNL     1       1.786   2.681   0.000  0.00  0.00    +0.000 A 
ATOM     47  C   UNL     1       3.215   3.506   0.000  0.00  0.00    +0.000 A 
ATOM     48  C   UNL     1       1.786   3.506   0.000  0.00  0.00    +0.000 A 
ATOM     49  C   UNL     1       2.501   3.919   0.000  0.00  0.00    +0.000 A 
BRANCH  49  51
ATOM     50  S   UNL     1       2.088   6.013   0.000  0.00  0.00    +0.000 S 
ATOM     51  C   UNL     1       2.501   4.744   0.000  0.00  0.00    +0.000 A 
ATOM     52  C   UNL     1       3.168   5.229   0.000  0.00  0.00    +0.000 A 
ATOM     53  C   UNL     1       1.833   5.229   0.000  0.00  0.00    +0.000 A 
ATOM     54  C   UNL     1       2.913   6.013   0.000  0.00  0.00    +0.000 A 
ENDBRANCH  49  51
ENDBRANCH  43  44
ENDBRANCH  42  43
ENDBRANCH  30  42
ENDBRANCH   2  30
TORSDOF 19
