REMARK  Name = 
REMARK  6 active torsions:
REMARK  status: ('A' for Active; 'I' for Inactive)
REMARK    1  A    between atoms: C_7  and  N_11
REMARK    2  A    between atoms: N_11  and  C_12
REMARK    3  A    between atoms: C_12  and  C_13
REMARK    4  A    between atoms: C_13  and  C_14
REMARK    5  A    between atoms: C_14  and  N_15
REMARK    6  A    between atoms: N_15  and  C_16
REMARK                            x       y       z     vdW  Elec       q    Type
REMARK                         _______ _______ _______ _____ _____    ______ ____
ROOT
ATOM      1  C   UNL     1      -2.143  -0.412   0.000  0.00  0.00    +0.000 C 
ENDROOT
BRANCH   1   2
ATOM      2  N   UNL     1      -1.429   0.000   0.000  0.00  0.00    +0.000 NA
BRANCH   2   3
ATOM      3  C   UNL     1      -0.715  -0.412   0.000  0.00  0.00    +0.000 C 
ATOM      4  C   UNL     1      -0.715  -1.238   0.000  0.00  0.00    +0.000 C 
ATOM      5  C   UNL     1       0.000  -1.650   0.000  0.00  0.00    +0.000 C 
ATOM      6  O   UNL     1       0.715  -1.238   0.000  0.00  0.00    +0.000 OA
ATOM      7  C   UNL     1       0.715  -0.412   0.000  0.00  0.00    +0.000 A 
ATOM      8  C   UNL     1       0.000   0.000   0.000  0.00  0.00    +0.000 A 
ATOM      9  C   UNL     1       0.000   0.825   0.000  0.00  0.00    +0.000 A 
ATOM     10  C   UNL     1       0.715   1.238   0.000  0.00  0.00    +0.000 A 
ATOM     11  C   UNL     1       1.429   0.825   0.000  0.00  0.00    +0.000 A 
ATOM     12  C   UNL     1       1.429   0.000   0.000  0.00  0.00    +0.000 A 
ATOM     13 BR   UNL     1       2.143  -0.412   0.000  0.00  0.00    +0.000 Br
ATOM     14 BR   UNL     1       0.715   2.062   0.000  0.00  0.00    +0.000 Br
ENDBRANCH   2   3
ENDBRANCH   1   2
BRANCH   1  15
ATOM     15  C   UNL     1      -2.858   0.000   0.000  0.00  0.00    +0.000 C 
BRANCH  15  16
ATOM     16  C   UNL     1      -3.572  -0.412   0.000  0.00  0.00    +0.000 C 
BRANCH  16  17
ATOM     17  N   UNL     1      -4.287   0.000   0.000  0.00  0.00    +0.000 NA
BRANCH  17  24
ATOM     18  C   UNL     1      -7.215  -0.158   0.000  0.00  0.00    +0.000 A 
ATOM     19  C   UNL     1      -7.700  -0.825   0.000  0.00  0.00    +0.000 A 
ATOM     20  S   UNL     1      -7.215  -1.492   0.000  0.00  0.00    +0.000 S 
ATOM     21  C   UNL     1      -6.430  -1.238   0.000  0.00  0.00    +0.000 A 
ATOM     22  C   UNL     1      -6.430  -0.412   0.000  0.00  0.00    +0.000 A 
ATOM     23  N   UNL     1      -5.716   0.000   0.000  0.00  0.00    +0.000 NA
ATOM     24  C   UNL     1      -5.001  -0.412   0.000  0.00  0.00    +0.000 A 
ATOM     25  C   UNL     1      -5.001  -1.238   0.000  0.00  0.00    +0.000 A 
ATOM     26  C   UNL     1      -5.716  -1.650   0.000  0.00  0.00    +0.000 A 
ATOM     27  O   UNL     1      -5.716  -2.475   0.000  0.00  0.00    +0.000 OA
ENDBRANCH  17  24
ENDBRANCH  16  17
ENDBRANCH  15  16
ENDBRANCH   1  15
TORSDOF 6
