REMARK  Name = 
REMARK  15 active torsions:
REMARK  status: ('A' for Active; 'I' for Inactive)
REMARK    1  A    between atoms: C_3  and  C_4
REMARK    2  A    between atoms: C_4  and  C_5
REMARK    3  A    between atoms: C_5  and  C_6
REMARK    4  A    between atoms: C_7  and  C_8
REMARK    5  A    between atoms: C_8  and  C_9
REMARK    6  A    between atoms: C_9  and  C_10
REMARK    7  A    between atoms: C_11  and  C_12
REMARK    8  A    between atoms: C_12  and  C_13
REMARK    9  A    between atoms: C_13  and  C_14
REMARK   10  A    between atoms: C_15  and  C_16
REMARK   11  A    between atoms: C_16  and  C_17
REMARK   12  A    between atoms: C_17  and  C_18
REMARK   13  A    between atoms: C_19  and  C_20
REMARK   14  A    between atoms: C_20  and  C_21
REMARK   15  A    between atoms: C_21  and  C_22
REMARK                            x       y       z     vdW  Elec       q    Type
REMARK                         _______ _______ _______ _____ _____    ______ ____
ROOT
ATOM      1  C   UNL     1      -0.324  -0.216   0.000  0.00  0.00    +0.000 C 
ENDROOT
BRANCH   1   3
ATOM      2  C   UNL     1      -1.784  -0.216   0.000  0.00  0.00    +0.000 C 
ATOM      3  C   UNL     1      -1.081   0.216   0.000  0.00  0.00    +0.000 C 
ATOM      4  C   UNL     1      -1.784  -1.027   0.000  0.00  0.00    +0.000 C 
BRANCH   2   5
ATOM      5  C   UNL     1      -2.486   0.216   0.000  0.00  0.00    +0.000 C 
BRANCH   5   6
ATOM      6  C   UNL     1      -3.189  -0.216   0.000  0.00  0.00    +0.000 C 
BRANCH   6   8
ATOM      7  C   UNL     1      -4.594  -0.216   0.000  0.00  0.00    +0.000 C 
ATOM      8  C   UNL     1      -3.892   0.216   0.000  0.00  0.00    +0.000 C 
ATOM      9  C   UNL     1      -4.594  -1.027   0.000  0.00  0.00    +0.000 C 
BRANCH   7  10
ATOM     10  C   UNL     1      -5.297   0.216   0.000  0.00  0.00    +0.000 C 
BRANCH  10  11
ATOM     11  C   UNL     1      -6.000  -0.216   0.000  0.00  0.00    +0.000 C 
BRANCH  11  14
ATOM     12  C   UNL     1      -8.108   0.216   0.000  0.00  0.00    +0.000 C 
ATOM     13  C   UNL     1      -7.405  -0.216   0.000  0.00  0.00    +0.000 C 
ATOM     14  C   UNL     1      -6.702   0.216   0.000  0.00  0.00    +0.000 C 
ATOM     15  C   UNL     1      -7.405  -1.027   0.000  0.00  0.00    +0.000 C 
ENDBRANCH  11  14
ENDBRANCH  10  11
ENDBRANCH   7  10
ENDBRANCH   6   8
ENDBRANCH   5   6
ENDBRANCH   2   5
ENDBRANCH   1   3
BRANCH   1  16
ATOM     16  C   UNL     1       0.378   0.216   0.000  0.00  0.00    +0.000 C 
BRANCH  16  17
ATOM     17  C   UNL     1       1.081  -0.216   0.000  0.00  0.00    +0.000 C 
ATOM     18  C   UNL     1       1.784   0.216   0.000  0.00  0.00    +0.000 C 
ATOM     19  C   UNL     1       1.784   1.027   0.000  0.00  0.00    +0.000 C 
BRANCH  18  20
ATOM     20  C   UNL     1       2.486  -0.216   0.000  0.00  0.00    +0.000 C 
BRANCH  20  21
ATOM     21  C   UNL     1       3.189   0.216   0.000  0.00  0.00    +0.000 C 
BRANCH  21  22
ATOM     22  C   UNL     1       3.892  -0.216   0.000  0.00  0.00    +0.000 C 
ATOM     23  C   UNL     1       4.594   0.216   0.000  0.00  0.00    +0.000 C 
ATOM     24  C   UNL     1       4.594   1.027   0.000  0.00  0.00    +0.000 C 
BRANCH  23  25
ATOM     25  C   UNL     1       5.297  -0.216   0.000  0.00  0.00    +0.000 C 
BRANCH  25  26
ATOM     26  C   UNL     1       5.999   0.216   0.000  0.00  0.00    +0.000 C 
BRANCH  26  27
ATOM     27  C   UNL     1       6.702  -0.216   0.000  0.00  0.00    +0.000 C 
ATOM     28  C   UNL     1       7.405   0.216   0.000  0.00  0.00    +0.000 C 
ATOM     29  C   UNL     1       8.108  -0.216   0.000  0.00  0.00    +0.000 C 
ATOM     30  C   UNL     1       7.405   1.027   0.000  0.00  0.00    +0.000 C 
ENDBRANCH  26  27
ENDBRANCH  25  26
ENDBRANCH  23  25
ENDBRANCH  21  22
ENDBRANCH  20  21
ENDBRANCH  18  20
ENDBRANCH  16  17
ENDBRANCH   1  16
TORSDOF 15
