REMARK  Name = 
REMARK  23 active torsions:
REMARK  status: ('A' for Active; 'I' for Inactive)
REMARK    1  A    between atoms: C_1  and  C_16
REMARK    2  A    between atoms: C_2  and  C_15
REMARK    3  A    between atoms: N_4  and  C_23
REMARK    4  A    between atoms: N_5  and  C_25
REMARK    5  A    between atoms: N_6  and  C_24
REMARK    6  A    between atoms: C_7  and  C_19
REMARK    7  A    between atoms: C_8  and  C_20
REMARK    8  A    between atoms: C_15  and  C_20
REMARK    9  A    between atoms: C_16  and  C_19
REMARK   10  A    between atoms: N_17  and  C_27
REMARK   11  A    between atoms: N_18  and  C_26
REMARK   12  A    between atoms: C_23  and  C_31
REMARK   13  A    between atoms: C_24  and  C_29
REMARK   14  A    between atoms: C_25  and  C_30
REMARK   15  A    between atoms: C_26  and  C_33
REMARK   16  A    between atoms: C_27  and  C_32
REMARK   17  A    between atoms: C_28  and  C_34
REMARK   18  A    between atoms: C_29  and  C_37
REMARK   19  A    between atoms: C_30  and  C_35
REMARK   20  A    between atoms: C_31  and  C_36
REMARK   21  A    between atoms: C_32  and  C_35
REMARK   22  A    between atoms: C_33  and  C_37
REMARK   23  A    between atoms: C_34  and  C_36
REMARK                            x       y       z     vdW  Elec       q    Type
REMARK                         _______ _______ _______ _____ _____    ______ ____
ROOT
ATOM      1  C   UNL     1       0.281  -2.413   0.000  0.00  0.00    +0.000 C 
ENDROOT
BRANCH   1   3
ATOM      2  C   UNL     1       1.519  -1.692   0.000  0.00  0.00    +0.000 C 
ATOM      3  N   UNL     1       0.694  -1.692   0.000  0.00  0.00    +0.000 N 
ATOM      4  O   UNL     1       0.277  -0.979   0.000  0.00  0.00    +0.000 OA
ATOM      5  O   UNL     1       1.927  -0.979   0.000  0.00  0.00    +0.000 OA
BRANCH   2   6
ATOM      6  C   UNL     1       1.927  -2.404   0.000  0.00  0.00    +0.000 C 
BRANCH   6   7
ATOM      7  C   UNL     1       2.752  -2.404   0.000  0.00  0.00    +0.000 C 
BRANCH   7   8
ATOM      8  C   UNL     1       3.168  -1.871   0.000  0.00  0.00    +0.000 C 
ATOM      9  N   UNL     1       3.869  -2.104   0.000  0.00  0.00    +0.000 NA
ATOM     10  O   UNL     1       2.955  -1.074   0.000  0.00  0.00    +0.000 OA
BRANCH   9  11
ATOM     11  C   UNL     1       4.581  -1.688   0.000  0.00  0.00    +0.000 C 
BRANCH  11  12
ATOM     12  C   UNL     1       4.581  -0.863   0.000  0.00  0.00    +0.000 C 
BRANCH  12  13
ATOM     13  C   UNL     1       3.865  -0.450   0.000  0.00  0.00    +0.000 C 
BRANCH  13  14
ATOM     14  C   UNL     1       4.269   0.271   0.000  0.00  0.00    +0.000 C 
BRANCH  14  15
ATOM     15  C   UNL     1       3.856   0.983   0.000  0.00  0.00    +0.000 C 
BRANCH  15  17
ATOM     16  C   UNL     1       2.619   1.700   0.000  0.00  0.00    +0.000 C 
ATOM     17  N   UNL     1       3.031   0.983   0.000  0.00  0.00    +0.000 N 
ATOM     18  O   UNL     1       2.619   0.271   0.000  0.00  0.00    +0.000 OA
ATOM     19  O   UNL     1       1.794   1.700   0.000  0.00  0.00    +0.000 OA
ATOM     20  C   UNL     1       3.031   2.413   0.000  0.00  0.00    +0.000 C 
ENDBRANCH  15  17
ENDBRANCH  14  15
ENDBRANCH  13  14
ENDBRANCH  12  13
ENDBRANCH  11  12
ENDBRANCH   9  11
ENDBRANCH   7   8
ENDBRANCH   6   7
ENDBRANCH   2   6
ENDBRANCH   1   3
BRANCH   1  21
ATOM     21  C   UNL     1      -0.544  -2.413   0.000  0.00  0.00    +0.000 C 
BRANCH  21  22
ATOM     22  C   UNL     1      -0.948  -1.700   0.000  0.00  0.00    +0.000 C 
BRANCH  22  23
ATOM     23  C   UNL     1      -1.660  -2.117   0.000  0.00  0.00    +0.000 C 
BRANCH  23  24
ATOM     24  C   UNL     1      -2.373  -1.704   0.000  0.00  0.00    +0.000 C 
BRANCH  24  26
ATOM     25  C   UNL     1      -1.998  -0.325   0.000  0.00  0.00    +0.000 C 
ATOM     26  N   UNL     1      -2.585  -0.904   0.000  0.00  0.00    +0.000 NA
ATOM     27  O   UNL     1      -1.201  -0.538   0.000  0.00  0.00    +0.000 OA
BRANCH  25  28
ATOM     28  C   UNL     1      -2.406   0.388   0.000  0.00  0.00    +0.000 C 
BRANCH  28  29
ATOM     29  C   UNL     1      -1.819   0.971   0.000  0.00  0.00    +0.000 C 
BRANCH  29  30
ATOM     30  C   UNL     1      -0.994   0.971   0.000  0.00  0.00    +0.000 C 
ATOM     31  N   UNL     1      -0.406   1.550   0.000  0.00  0.00    +0.000 N 
ATOM     32  O   UNL     1       0.419   1.546   0.000  0.00  0.00    +0.000 OA
ATOM     33  O   UNL     1      -0.585   0.258   0.000  0.00  0.00    +0.000 OA
BRANCH  31  34
ATOM     34  C   UNL     1      -0.994   2.138   0.000  0.00  0.00    +0.000 C 
BRANCH  34  35
ATOM     35  C   UNL     1      -1.710   1.733   0.000  0.00  0.00    +0.000 C 
BRANCH  35  36
ATOM     36  C   UNL     1      -2.431   2.146   0.000  0.00  0.00    +0.000 C 
BRANCH  36  37
ATOM     37  C   UNL     1      -3.144   1.733   0.000  0.00  0.00    +0.000 C 
BRANCH  37  39
ATOM     38  N   UNL     1      -4.581   1.738   0.000  0.00  0.00    +0.000 NA
ATOM     39  C   UNL     1      -3.860   2.146   0.000  0.00  0.00    +0.000 C 
ENDBRANCH  37  39
ENDBRANCH  36  37
ENDBRANCH  35  36
ENDBRANCH  34  35
ENDBRANCH  31  34
ENDBRANCH  29  30
ENDBRANCH  28  29
ENDBRANCH  25  28
ENDBRANCH  24  26
ENDBRANCH  23  24
ENDBRANCH  22  23
ENDBRANCH  21  22
ENDBRANCH   1  21
TORSDOF 23
