REMARK  Name = 
REMARK  8 active torsions:
REMARK  status: ('A' for Active; 'I' for Inactive)
REMARK    1  A    between atoms: C_2  and  S_3
REMARK    2  A    between atoms: S_3  and  C_6
REMARK    3  A    between atoms: C_6  and  C_7
REMARK    4  A    between atoms: C_7  and  C_8
REMARK    5  A    between atoms: C_8  and  C_9
REMARK    6  A    between atoms: C_12  and  C_17
REMARK    7  A    between atoms: C_20  and  C_23
REMARK    8  A    between atoms: C_28  and  C_29
REMARK                            x       y       z     vdW  Elec       q    Type
REMARK                         _______ _______ _______ _____ _____    ______ ____
ROOT
ATOM      1  C   UNL     1       0.811  -0.246   0.000  0.00  0.00    +0.000 C 
ATOM      2  C   UNL     1       0.096   0.167   0.000  0.00  0.00    +0.000 C 
ATOM      3  C   UNL     1       0.096   0.992   0.000  0.00  0.00    +0.000 C 
ATOM      4  C   UNL     1       0.811   1.404   0.000  0.00  0.00    +0.000 C 
ATOM      5  C   UNL     1       1.525   0.992   0.000  0.00  0.00    +0.000 C 
ATOM      6  C   UNL     1       1.525   0.167   0.000  0.00  0.00    +0.000 C 
ATOM      7  C   UNL     1       0.948   0.854   0.000  0.00  0.00    +0.000 C 
ATOM      8  C   UNL     1       0.948   0.304   0.000  0.00  0.00    +0.000 C 
ENDROOT
BRANCH   4   9
ATOM      9  C   UNL     1       0.811   2.229   0.000  0.00  0.00    +0.000 A 
ATOM     10  N   UNL     1       0.143   2.714   0.000  0.00  0.00    +0.000 NA
ATOM     11  N   UNL     1       0.398   3.499   0.000  0.00  0.00    +0.000 NA
ATOM     12  C   UNL     1       1.223   3.499   0.000  0.00  0.00    +0.000 A 
ATOM     13  N   UNL     1       1.478   2.714   0.000  0.00  0.00    +0.000 N 
ATOM     14  C   UNL     1       2.263   2.459   0.000  0.00  0.00    +0.000 C 
BRANCH  12  15
ATOM     15  C   UNL     1       1.708   4.166   0.000  0.00  0.00    +0.000 A 
ATOM     16  C   UNL     1       1.373   4.920   0.000  0.00  0.00    +0.000 A 
ATOM     17  C   UNL     1       1.857   5.587   0.000  0.00  0.00    +0.000 A 
ATOM     18  C   UNL     1       2.678   5.501   0.000  0.00  0.00    +0.000 A 
ATOM     19  C   UNL     1       3.014   4.747   0.000  0.00  0.00    +0.000 A 
ATOM     20  C   UNL     1       2.529   4.080   0.000  0.00  0.00    +0.000 A 
BRANCH  20  21
ATOM     21  C   UNL     1       2.864   3.326   0.000  0.00  0.00    +0.000 C 
ATOM     22  F   UNL     1       3.200   2.572   0.000  0.00  0.00    +0.000 F 
ATOM     23  F   UNL     1       2.110   2.991   0.000  0.00  0.00    +0.000 F 
ATOM     24  F   UNL     1       3.618   3.662   0.000  0.00  0.00    +0.000 F 
ENDBRANCH  20  21
ENDBRANCH  12  15
ENDBRANCH   4   9
BRANCH   1  25
ATOM     25  C   UNL     1       0.811  -1.071   0.000  0.00  0.00    +0.000 C 
BRANCH  25  26
ATOM     26  C   UNL     1       0.096  -1.483   0.000  0.00  0.00    +0.000 C 
BRANCH  26  27
ATOM     27  C   UNL     1       0.096  -2.308   0.000  0.00  0.00    +0.000 C 
BRANCH  27  28
ATOM     28  S   UNL     1      -0.618  -2.721   0.000  0.00  0.00    +0.000 S 
ATOM     29  O   UNL     1      -0.206  -3.435   0.000  0.00  0.00    +0.000 OA
ATOM     30  O   UNL     1      -1.031  -2.006   0.000  0.00  0.00    +0.000 OA
BRANCH  28  32
ATOM     31  C   UNL     1      -1.333  -3.958   0.000  0.00  0.00    +0.000 C 
ATOM     32  C   UNL     1      -1.333  -3.133   0.000  0.00  0.00    +0.000 C 
ENDBRANCH  28  32
ENDBRANCH  27  28
ENDBRANCH  26  27
ENDBRANCH  25  26
ENDBRANCH   1  25
TORSDOF 8
