REMARK  Name = 
REMARK  4 active torsions:
REMARK  status: ('A' for Active; 'I' for Inactive)
REMARK    1  A    between atoms: C_2  and  C_3
REMARK    2  A    between atoms: C_3  and  C_4
REMARK    3  A    between atoms: C_7  and  C_8
REMARK    4  A    between atoms: C_9  and  C_10
REMARK                            x       y       z     vdW  Elec       q    Type
REMARK                         _______ _______ _______ _____ _____    ______ ____
ROOT
ATOM      1  C   UNL     1       0.531  -4.412   0.000  0.00  0.00    +0.000 C 
ATOM      2  C   UNL     1       0.867  -5.166   0.000  0.00  0.00    +0.000 C 
ENDROOT
BRANCH   2   3
ATOM      3  C   UNL     1       0.382  -5.833   0.000  0.00  0.00    +0.000 A 
ATOM      4  C   UNL     1       0.718  -6.587   0.000  0.00  0.00    +0.000 A 
ATOM      5  C   UNL     1       0.233  -7.254   0.000  0.00  0.00    +0.000 A 
ATOM      6  O   UNL     1       0.568  -8.008   0.000  0.00  0.00    +0.000 OA
ATOM      7  C   UNL     1      -0.588  -7.168   0.000  0.00  0.00    +0.000 A 
ATOM      8  O   UNL     1      -1.073  -7.835   0.000  0.00  0.00    +0.000 OA
ATOM      9  C   UNL     1      -0.923  -6.414   0.000  0.00  0.00    +0.000 A 
ATOM     10  C   UNL     1      -0.438  -5.747   0.000  0.00  0.00    +0.000 A 
ENDBRANCH   2   3
BRANCH   1  14
ATOM     11  C   UNL     1       1.429  -2.475   0.000  0.00  0.00    +0.000 A 
ATOM     12  N   UNL     1       2.096  -2.960   0.000  0.00  0.00    +0.000 NA
ATOM     13  O   UNL     1       1.841  -3.744   0.000  0.00  0.00    +0.000 OA
ATOM     14  C   UNL     1       1.016  -3.744   0.000  0.00  0.00    +0.000 A 
ATOM     15  N   UNL     1       0.761  -2.960   0.000  0.00  0.00    +0.000 NA
BRANCH  11  16
ATOM     16  C   UNL     1       1.429  -1.650   0.000  0.00  0.00    +0.000 C 
BRANCH  16  18
ATOM     17  C   UNL     1       2.143  -0.412   0.000  0.00  0.00    +0.000 C 
ATOM     18  C   UNL     1       2.143  -1.238   0.000  0.00  0.00    +0.000 C 
ENDBRANCH  16  18
ENDBRANCH  11  16
ENDBRANCH   1  14
TORSDOF 4
