REMARK  Name = 
REMARK  3 active torsions:
REMARK  status: ('A' for Active; 'I' for Inactive)
REMARK    1  A    between atoms: C_10  and  C_11
REMARK    2  A    between atoms: C_11  and  C_12
REMARK    3  A    between atoms: C_15  and  C_18
REMARK                            x       y       z     vdW  Elec       q    Type
REMARK                         _______ _______ _______ _____ _____    ______ ____
ROOT
ATOM      1  C   UNL     1       4.102  -4.556   0.000  0.00  0.00    +0.000 A 
ATOM      2  C   UNL     1       4.886  -4.301   0.000  0.00  0.00    +0.000 A 
ATOM      3  C   UNL     1       5.500  -4.853   0.000  0.00  0.00    +0.000 A 
ATOM      4  C   UNL     1       5.328  -5.660   0.000  0.00  0.00    +0.000 A 
ATOM      5  C   UNL     1       4.543  -5.915   0.000  0.00  0.00    +0.000 A 
ATOM      6  C   UNL     1       3.930  -5.363   0.000  0.00  0.00    +0.000 A 
ENDROOT
BRANCH   4   7
ATOM      7  C   UNL     1       5.941  -6.212   0.000  0.00  0.00    +0.000 A 
ATOM      8  C   UNL     1       6.726  -5.957   0.000  0.00  0.00    +0.000 A 
ATOM      9  C   UNL     1       7.339  -6.509   0.000  0.00  0.00    +0.000 A 
ATOM     10  C   UNL     1       7.167  -7.316   0.000  0.00  0.00    +0.000 A 
ATOM     11  C   UNL     1       6.383  -7.571   0.000  0.00  0.00    +0.000 A 
ATOM     12  C   UNL     1       5.770  -7.019   0.000  0.00  0.00    +0.000 A 
ENDBRANCH   4   7
BRANCH   1  13
ATOM     13  C   UNL     1       3.489  -4.004   0.000  0.00  0.00    +0.000 C 
BRANCH  13  23
ATOM     14  C   UNL     1       0.608  -2.949   0.000  0.00  0.00    +0.000 C 
ATOM     15  N   UNL     1       1.322  -2.537   0.000  0.00  0.00    +0.000 N 
ATOM     16  C   UNL     1       1.322  -1.712   0.000  0.00  0.00    +0.000 C 
ATOM     17  C   UNL     1       2.037  -2.949   0.000  0.00  0.00    +0.000 C 
ATOM     18  O   UNL     1       2.751  -2.537   0.000  0.00  0.00    +0.000 OA
ATOM     19  N   UNL     1       2.037  -3.774   0.000  0.00  0.00    +0.000 N 
ATOM     20  N   UNL     1       1.369  -4.259   0.000  0.00  0.00    +0.000 NA
ATOM     21  N   UNL     1       1.624  -5.044   0.000  0.00  0.00    +0.000 NA
ATOM     22  N   UNL     1       2.449  -5.044   0.000  0.00  0.00    +0.000 NA
ATOM     23  C   UNL     1       2.704  -4.259   0.000  0.00  0.00    +0.000 A 
ENDBRANCH  13  23
ENDBRANCH   1  13
TORSDOF 3
