REMARK  Name = 
REMARK  11 active torsions:
REMARK  status: ('A' for Active; 'I' for Inactive)
REMARK    1  A    between atoms: C_1  and  C_2
REMARK    2  A    between atoms: C_1  and  N_14
REMARK    3  A    between atoms: C_2  and  N_3
REMARK    4  A    between atoms: N_3  and  C_4
REMARK    5  A    between atoms: N_3  and  C_9
REMARK    6  A    between atoms: C_4  and  P_5
REMARK    7  A    between atoms: C_9  and  P_10
REMARK    8  A    between atoms: N_14  and  C_15
REMARK    9  A    between atoms: N_14  and  C_20
REMARK   10  A    between atoms: C_15  and  P_16
REMARK   11  A    between atoms: C_20  and  P_21
REMARK                            x       y       z     vdW  Elec       q    Type
REMARK                         _______ _______ _______ _____ _____    ______ ____
ROOT
ATOM      1  C   UNL     1       1.540  -1.238   0.000  0.00  0.00    +0.000 C 
ENDROOT
BRANCH   1   2
ATOM      2  N   UNL     1       0.825  -0.825   0.000  0.00  0.00    +0.000 NA
BRANCH   2   3
ATOM      3  C   UNL     1       0.111  -1.238   0.000  0.00  0.00    +0.000 C 
BRANCH   3   4
ATOM      4  P   UNL     1      -0.604  -0.825   0.000  0.00  0.00    +0.000 P 
ATOM      5  O   UNL     1      -0.191  -0.111   0.000  0.00  0.00    +0.000 OA
ATOM      6  O   UNL     1      -1.318  -0.412   0.000  0.00  0.00    +0.000 OA
ATOM      7  O   UNL     1      -1.016  -1.540   0.000  0.00  0.00    +0.000 OA
ENDBRANCH   3   4
ENDBRANCH   2   3
BRANCH   2   8
ATOM      8  C   UNL     1       0.825   0.000   0.000  0.00  0.00    +0.000 C 
BRANCH   8   9
ATOM      9  P   UNL     1       1.540   0.412   0.000  0.00  0.00    +0.000 P 
ATOM     10  O   UNL     1       1.952  -0.302   0.000  0.00  0.00    +0.000 OA
ATOM     11  O   UNL     1       1.127   1.127   0.000  0.00  0.00    +0.000 OA
ATOM     12  O   UNL     1       2.254   0.825   0.000  0.00  0.00    +0.000 OA
ENDBRANCH   8   9
ENDBRANCH   2   8
ENDBRANCH   1   2
BRANCH   1  13
ATOM     13  C   UNL     1       1.540  -2.062   0.000  0.00  0.00    +0.000 C 
BRANCH  13  14
ATOM     14  N   UNL     1       2.254  -2.475   0.000  0.00  0.00    +0.000 NA
BRANCH  14  15
ATOM     15  C   UNL     1       2.254  -3.300   0.000  0.00  0.00    +0.000 C 
BRANCH  15  16
ATOM     16  P   UNL     1       1.540  -3.712   0.000  0.00  0.00    +0.000 P 
ATOM     17  O   UNL     1       1.127  -2.998   0.000  0.00  0.00    +0.000 OA
ATOM     18  O   UNL     1       1.952  -4.427   0.000  0.00  0.00    +0.000 OA
ATOM     19  O   UNL     1       0.825  -4.125   0.000  0.00  0.00    +0.000 OA
ENDBRANCH  15  16
ENDBRANCH  14  15
BRANCH  14  20
ATOM     20  C   UNL     1       2.968  -2.062   0.000  0.00  0.00    +0.000 C 
BRANCH  20  21
ATOM     21  P   UNL     1       3.683  -2.475   0.000  0.00  0.00    +0.000 P 
ATOM     22  O   UNL     1       4.095  -1.760   0.000  0.00  0.00    +0.000 OA
ATOM     23  O   UNL     1       4.397  -2.888   0.000  0.00  0.00    +0.000 OA
ATOM     24  O   UNL     1       3.270  -3.189   0.000  0.00  0.00    +0.000 OA
ENDBRANCH  20  21
ENDBRANCH  14  20
ENDBRANCH  13  14
ENDBRANCH   1  13
TORSDOF 11
REMARK  Name = 
REMARK  11 active torsions:
REMARK  status: ('A' for Active; 'I' for Inactive)
REMARK    1  A    between atoms: C_1  and  C_2
REMARK    2  A    between atoms: C_1  and  N_14
REMARK    3  A    between atoms: C_2  and  N_3
REMARK    4  A    between atoms: N_3  and  C_4
REMARK    5  A    between atoms: N_3  and  C_9
REMARK    6  A    between atoms: C_4  and  P_5
REMARK    7  A    between atoms: C_9  and  P_10
REMARK    8  A    between atoms: N_14  and  C_15
REMARK    9  A    between atoms: N_14  and  C_20
REMARK   10  A    between atoms: C_15  and  P_16
REMARK   11  A    between atoms: C_20  and  P_21
REMARK                            x       y       z     vdW  Elec       q    Type
REMARK                         _______ _______ _______ _____ _____    ______ ____
ROOT
ATOM      1 SM   UNL     1       0.111  -4.537   0.000  0.00  0.00    +0.000 Sm
ENDROOT
TORSDOF 0
