REMARK  Name = 
REMARK  3 active torsions:
REMARK  status: ('A' for Active; 'I' for Inactive)
REMARK    1  A    between atoms: C_6  and  C_7
REMARK    2  A    between atoms: C_12  and  C_13
REMARK    3  A    between atoms: C_12  and  C_14
REMARK                            x       y       z     vdW  Elec       q    Type
REMARK                         _______ _______ _______ _____ _____    ______ ____
ROOT
ATOM      1  S   UNL     1       0.133   1.676   0.000  0.00  0.00    +0.000 S 
ATOM      2  O   UNL     1       0.047  -0.794   0.000  0.00  0.00    +0.000 OA
ATOM      3  N   UNL     1      -0.667   0.443   0.000  0.00  0.00    +0.000 N 
ATOM      4  N   UNL     1       0.801   0.520   0.000  0.00  0.00    +0.000 NA
ATOM      5  C   UNL     1       0.940   1.848   0.000  0.00  0.00    +0.000 A 
ATOM      6  C   UNL     1       1.353   1.133   0.000  0.00  0.00    +0.000 A 
ATOM      7  C   UNL     1       0.047   0.856   0.000  0.00  0.00    +0.000 A 
ATOM      8  C   UNL     1      -0.667  -0.382   0.000  0.00  0.00    +0.000 C 
ATOM      9  H   UNL     1      -1.110   0.699   0.000  0.00  0.00    +0.000 HD
ENDROOT
BRANCH   5  10
ATOM     10  C   UNL     1       1.276   2.602   0.000  0.00  0.00    +0.000 C 
ATOM     11  C   UNL     1       0.791   3.269   0.000  0.00  0.00    +0.000 C 
ATOM     12  C   UNL     1       2.096   2.688   0.000  0.00  0.00    +0.000 C 
ENDBRANCH   5  10
BRANCH   8  13
ATOM     13  C   UNL     1      -1.382  -0.794   0.000  0.00  0.00    +0.000 C 
BRANCH  13  15
ATOM     14  N   UNL     1      -2.096  -2.856   0.000  0.00  0.00    +0.000 NA
ATOM     15  C   UNL     1      -1.382  -1.619   0.000  0.00  0.00    +0.000 A 
ATOM     16  C   UNL     1      -0.667  -2.031   0.000  0.00  0.00    +0.000 A 
ATOM     17  C   UNL     1      -2.096  -2.031   0.000  0.00  0.00    +0.000 A 
ATOM     18  C   UNL     1      -0.667  -2.856   0.000  0.00  0.00    +0.000 A 
ATOM     19  C   UNL     1      -1.382  -3.269   0.000  0.00  0.00    +0.000 A 
ENDBRANCH  13  15
ENDBRANCH   8  13
TORSDOF 3
