REMARK  Name = 
REMARK  18 active torsions:
REMARK  status: ('A' for Active; 'I' for Inactive)
REMARK    1  A    between atoms: C_2  and  C_3
REMARK    2  A    between atoms: C_4  and  C_5
REMARK    3  A    between atoms: C_5  and  C_6
REMARK    4  A    between atoms: C_7  and  C_8
REMARK    5  A    between atoms: C_8  and  C_9
REMARK    6  A    between atoms: C_10  and  C_11
REMARK    7  A    between atoms: C_11  and  C_12
REMARK    8  A    between atoms: C_13  and  C_14
REMARK    9  A    between atoms: C_14  and  C_15
REMARK   10  A    between atoms: C_16  and  C_17
REMARK   11  A    between atoms: C_17  and  C_18
REMARK   12  A    between atoms: C_19  and  C_20
REMARK   13  A    between atoms: C_20  and  C_21
REMARK   14  A    between atoms: C_21  and  C_22
REMARK   15  A    between atoms: N_24  and  C_25
REMARK   16  A    between atoms: C_25  and  C_26
REMARK   17  A    between atoms: C_26  and  N_27
REMARK   18  A    between atoms: C_28  and  C_30
REMARK                            x       y       z     vdW  Elec       q    Type
REMARK                         _______ _______ _______ _____ _____    ______ ____
ROOT
ATOM      1  C   UNL     1       3.032  -5.272   0.000  0.00  0.00    +0.000 C 
ATOM      2  C   UNL     1       3.842  -5.116   0.000  0.00  0.00    +0.000 C 
ENDROOT
BRANCH   1   3
ATOM      3  C   UNL     1       2.492  -4.648   0.000  0.00  0.00    +0.000 C 
BRANCH   3   5
ATOM      4  C   UNL     1       1.142  -4.180   0.000  0.00  0.00    +0.000 C 
ATOM      5  C   UNL     1       1.682  -4.804   0.000  0.00  0.00    +0.000 C 
BRANCH   4   6
ATOM      6  C   UNL     1       1.412  -3.401   0.000  0.00  0.00    +0.000 C 
BRANCH   6   8
ATOM      7  C   UNL     1       1.142  -1.998   0.000  0.00  0.00    +0.000 C 
ATOM      8  C   UNL     1       0.872  -2.777   0.000  0.00  0.00    +0.000 C 
BRANCH   7   9
ATOM      9  C   UNL     1       1.952  -1.842   0.000  0.00  0.00    +0.000 C 
BRANCH   9  11
ATOM     10  C   UNL     1       3.032  -0.906   0.000  0.00  0.00    +0.000 C 
ATOM     11  C   UNL     1       2.222  -1.062   0.000  0.00  0.00    +0.000 C 
BRANCH  10  12
ATOM     12  C   UNL     1       3.572  -1.530   0.000  0.00  0.00    +0.000 C 
BRANCH  12  14
ATOM     13  C   UNL     1       4.652  -0.594   0.000  0.00  0.00    +0.000 C 
ATOM     14  C   UNL     1       4.383  -1.374   0.000  0.00  0.00    +0.000 C 
BRANCH  13  15
ATOM     15  C   UNL     1       4.112   0.029   0.000  0.00  0.00    +0.000 C 
BRANCH  15  17
ATOM     16  C   UNL     1       2.762   0.497   0.000  0.00  0.00    +0.000 C 
ATOM     17  C   UNL     1       3.302  -0.127   0.000  0.00  0.00    +0.000 C 
BRANCH  16  19
ATOM     18  C   UNL     1       2.492   1.900   0.000  0.00  0.00    +0.000 C 
ATOM     19  C   UNL     1       3.032   1.277   0.000  0.00  0.00    +0.000 C 
ENDBRANCH  16  19
ENDBRANCH  15  17
ENDBRANCH  13  15
ENDBRANCH  12  14
ENDBRANCH  10  12
ENDBRANCH   9  11
ENDBRANCH   7   9
ENDBRANCH   6   8
ENDBRANCH   4   6
ENDBRANCH   3   5
ENDBRANCH   1   3
BRANCH   2  20
ATOM     20  C   UNL     1       4.112  -4.336   0.000  0.00  0.00    +0.000 C 
BRANCH  20  21
ATOM     21  C   UNL     1       3.572  -3.712   0.000  0.00  0.00    +0.000 C 
BRANCH  21  22
ATOM     22  C   UNL     1       3.842  -2.933   0.000  0.00  0.00    +0.000 C 
ATOM     23  O   UNL     1       3.302  -2.309   0.000  0.00  0.00    +0.000 OA
ATOM     24  N   UNL     1       4.652  -2.777   0.000  0.00  0.00    +0.000 NA
BRANCH  24  25
ATOM     25  C   UNL     1       5.193  -3.401   0.000  0.00  0.00    +0.000 C 
BRANCH  25  26
ATOM     26  C   UNL     1       6.003  -3.245   0.000  0.00  0.00    +0.000 C 
BRANCH  26  27
ATOM     27  N   UNL     1       6.543  -3.868   0.000  0.00  0.00    +0.000 NA
ATOM     28  C   UNL     1       7.353  -3.712   0.000  0.00  0.00    +0.000 C 
ATOM     29  O   UNL     1       7.623  -2.933   0.000  0.00  0.00    +0.000 OA
BRANCH  28  30
ATOM     30  C   UNL     1       7.893  -4.336   0.000  0.00  0.00    +0.000 A 
ATOM     31  C   UNL     1       8.703  -4.180   0.000  0.00  0.00    +0.000 A 
ATOM     32  O   UNL     1       8.973  -3.401   0.000  0.00  0.00    +0.000 OA
ATOM     33  C   UNL     1       9.243  -4.804   0.000  0.00  0.00    +0.000 A 
ATOM     34  C   UNL     1       8.973  -5.583   0.000  0.00  0.00    +0.000 A 
ATOM     35  C   UNL     1       8.163  -5.739   0.000  0.00  0.00    +0.000 A 
ATOM     36  C   UNL     1       7.623  -5.116   0.000  0.00  0.00    +0.000 A 
ENDBRANCH  28  30
ENDBRANCH  26  27
ENDBRANCH  25  26
ENDBRANCH  24  25
ENDBRANCH  21  22
ENDBRANCH  20  21
ENDBRANCH   2  20
TORSDOF 18
