REMARK  Name = 
REMARK  6 active torsions:
REMARK  status: ('A' for Active; 'I' for Inactive)
REMARK    1  A    between atoms: C_1  and  C_2
REMARK    2  A    between atoms: N_8  and  C_18
REMARK    3  A    between atoms: C_15  and  C_44
REMARK    4  A    between atoms: C_22  and  C_40
REMARK    5  A    between atoms: N_41  and  C_43
REMARK    6  A    between atoms: C_43  and  C_44
REMARK                            x       y       z     vdW  Elec       q    Type
REMARK                         _______ _______ _______ _____ _____    ______ ____
ROOT
ATOM      1  C   UNL     1      -2.893   1.835   0.000  0.00  0.00    +0.000 A 
ATOM      2  C   UNL     1      -2.894   1.007   0.000  0.00  0.00    +0.000 A 
ATOM      3  C   UNL     1      -2.181   2.247   0.000  0.00  0.00    +0.000 A 
ATOM      4  C   UNL     1      -1.464   1.837   0.000  0.00  0.00    +0.000 A 
ATOM      5  C   UNL     1      -0.034   1.006   0.000  0.00  0.00    +0.000 A 
ATOM      6  C   UNL     1      -0.032   1.834   0.000  0.00  0.00    +0.000 A 
ATOM      7  C   UNL     1      -0.749   2.252   0.000  0.00  0.00    +0.000 A 
ATOM      8  C   UNL     1      -1.466   1.009   0.000  0.00  0.00    +0.000 A 
ATOM      9  C   UNL     1      -2.180   0.597   0.000  0.00  0.00    +0.000 A 
ATOM     10  O   UNL     1      -2.179  -0.223   0.000  0.00  0.00    +0.000 OA
ATOM     11  N   UNL     1      -0.752   0.602   0.000  0.00  0.00    +0.000 N 
ATOM     12  C   UNL     1      -0.753  -0.224   0.000  0.00  0.00    +0.000 A 
ATOM     13  C   UNL     1      -1.466  -0.633   0.000  0.00  0.00    +0.000 A 
ATOM     14  C   UNL     1      -1.467  -1.453   0.000  0.00  0.00    +0.000 A 
ATOM     15  C   UNL     1      -0.046  -0.632   0.000  0.00  0.00    +0.000 A 
ATOM     16  C   UNL     1      -0.044  -1.451   0.000  0.00  0.00    +0.000 A 
ATOM     17  C   UNL     1      -0.758  -1.861   0.000  0.00  0.00    +0.000 A 
ATOM     18  C   UNL     1      -0.759  -2.683   0.000  0.00  0.00    +0.000 A 
ATOM     19  C   UNL     1      -0.046  -3.096   0.000  0.00  0.00    +0.000 A 
ATOM     20  C   UNL     1       0.669  -2.680   0.000  0.00  0.00    +0.000 A 
ATOM     21  C   UNL     1       0.666  -1.860   0.000  0.00  0.00    +0.000 A 
ATOM     22  F   UNL     1      -3.609   2.248   0.000  0.00  0.00    +0.000 F 
ATOM     23  O   UNL     1      -0.748   3.079   0.000  0.00  0.00    +0.000 OA
ENDROOT
BRANCH   2  25
ATOM     24  C   UNL     1      -4.247  -0.586   0.000  0.00  0.00    +0.000 C 
ATOM     25  N   UNL     1      -3.610   0.593   0.000  0.00  0.00    +0.000 N 
ATOM     26  C   UNL     1      -4.423   0.740   0.000  0.00  0.00    +0.000 C 
ATOM     27  C   UNL     1      -4.815   0.013   0.000  0.00  0.00    +0.000 C 
ATOM     28  C   UNL     1      -3.501  -0.226   0.000  0.00  0.00    +0.000 C 
BRANCH  24  29
ATOM     29  C   UNL     1      -4.251  -1.308   0.000  0.00  0.00    +0.000 A 
ATOM     30  C   UNL     1      -4.879  -1.664   0.000  0.00  0.00    +0.000 A 
ATOM     31  N   UNL     1      -4.883  -2.385   0.000  0.00  0.00    +0.000 NA
ATOM     32  C   UNL     1      -4.260  -2.750   0.000  0.00  0.00    +0.000 A 
ATOM     33  C   UNL     1      -3.631  -2.388   0.000  0.00  0.00    +0.000 A 
ATOM     34  N   UNL     1      -3.630  -1.669   0.000  0.00  0.00    +0.000 NA
ENDBRANCH  24  29
ENDBRANCH   2  25
BRANCH   6  35
ATOM     35  C   UNL     1       0.685   2.245   0.000  0.00  0.00    +0.000 C 
ATOM     36  N   UNL     1       1.399   1.829   0.000  0.00  0.00    +0.000 NA
ATOM     37  O   UNL     1       0.688   3.071   0.000  0.00  0.00    +0.000 OA
BRANCH  36  38
ATOM     38  C   UNL     1       2.116   2.240   0.000  0.00  0.00    +0.000 C 
BRANCH  38  39
ATOM     39  C   UNL     1       2.831   1.824   0.000  0.00  0.00    +0.000 C 
BRANCH  39  43
ATOM     40  C   UNL     1       4.883   2.330   0.000  0.00  0.00    +0.000 C 
ATOM     41  C   UNL     1       4.572   3.096   0.000  0.00  0.00    +0.000 C 
ATOM     42  C   UNL     1       3.747   3.037   0.000  0.00  0.00    +0.000 C 
ATOM     43  C   UNL     1       3.548   2.234   0.000  0.00  0.00    +0.000 C 
ATOM     44  N   UNL     1       4.251   1.800   0.000  0.00  0.00    +0.000 NA
ATOM     45  C   UNL     1       4.245   0.973   0.000  0.00  0.00    +0.000 C 
ENDBRANCH  39  43
ENDBRANCH  38  39
ENDBRANCH  36  38
ENDBRANCH   6  35
TORSDOF 6
