REMARK  Name = 
REMARK  34 active torsions:
REMARK  status: ('A' for Active; 'I' for Inactive)
REMARK    1  A    between atoms: C_1  and  C_16
REMARK    2  A    between atoms: C_2  and  C_8
REMARK    3  A    between atoms: C_3  and  C_57
REMARK    4  A    between atoms: C_4  and  C_13
REMARK    5  A    between atoms: C_5  and  C_14
REMARK    6  A    between atoms: C_6  and  C_15
REMARK    7  A    between atoms: N_7  and  C_8
REMARK    8  A    between atoms: C_8  and  C_32
REMARK    9  A    between atoms: N_9  and  C_14
REMARK   10  A    between atoms: N_10  and  C_13
REMARK   11  A    between atoms: N_11  and  C_15
REMARK   12  A    between atoms: N_12  and  C_16
REMARK   13  A    between atoms: C_13  and  C_18
REMARK   14  A    between atoms: C_14  and  C_26
REMARK   15  A    between atoms: C_15  and  C_27
REMARK   16  A    between atoms: C_16  and  C_39
REMARK   17  A    between atoms: C_18  and  C_45
REMARK   18  A    between atoms: C_26  and  C_30
REMARK   19  A    between atoms: C_27  and  C_40
REMARK   20  A    between atoms: N_28  and  C_41
REMARK   21  A    between atoms: C_39  and  C_42
REMARK   22  A    between atoms: C_41  and  C_42
REMARK   23  A    between atoms: N_47  and  C_50
REMARK   24  A    between atoms: C_50  and  C_51
REMARK   25  A    between atoms: C_57  and  C_58
REMARK   26  A    between atoms: C_57  and  N_59
REMARK   27  A    between atoms: C_58  and  C_60
REMARK   28  A    between atoms: C_69  and  C_71
REMARK   29  A    between atoms: C_71  and  N_72
REMARK   30  A    between atoms: C_71  and  C_73
REMARK   31  A    between atoms: C_73  and  C_74
REMARK   32  A    between atoms: C_79  and  C_80
REMARK   33  A    between atoms: C_88  and  C_92
REMARK   34  A    between atoms: N_94  and  C_95
REMARK                            x       y       z     vdW  Elec       q    Type
REMARK                         _______ _______ _______ _____ _____    ______ ____
ROOT
ATOM      1  C   UNK     1       0.755   0.492   0.000  0.00  0.00    +0.000 C 
ATOM      2  N   UNK     1       1.453   0.936   0.000  0.00  0.00    +0.000 NA
ATOM      3  O   UNK     1       0.755  -0.270   0.000  0.00  0.00    +0.000 OA
ENDROOT
BRANCH   1   4
ATOM      4  C   UNK     1       0.057   0.936   0.000  0.00  0.00    +0.000 C 
BRANCH   4   6
ATOM      5  C   UNK     1      -1.403   0.936   0.000  0.00  0.00    +0.000 C 
ATOM      6  N   UNK     1      -0.705   0.492   0.000  0.00  0.00    +0.000 NA
ATOM      7  O   UNK     1      -1.403   1.761   0.000  0.00  0.00    +0.000 OA
BRANCH   5   8
ATOM      8  C   UNK     1      -2.101   0.492   0.000  0.00  0.00    +0.000 C 
BRANCH   8  10
ATOM      9  C   UNK     1      -3.497   0.492   0.000  0.00  0.00    +0.000 C 
ATOM     10  N   UNK     1      -2.799   0.936   0.000  0.00  0.00    +0.000 NA
ATOM     11  O   UNK     1      -3.497  -0.333   0.000  0.00  0.00    +0.000 OA
BRANCH   9  12
ATOM     12  C   UNK     1      -4.216   0.903   0.000  0.00  0.00    +0.000 C 
BRANCH  12  13
ATOM     13  N   UNK     1      -4.929   0.488   0.000  0.00  0.00    +0.000 NA
ATOM     14  C   UNK     1      -5.645   0.898   0.000  0.00  0.00    +0.000 C 
ATOM     15  O   UNK     1      -5.647   1.718   0.000  0.00  0.00    +0.000 OA
BRANCH  14  16
ATOM     16  C   UNK     1      -6.363   0.485   0.000  0.00  0.00    +0.000 C 
BRANCH  16  17
ATOM     17  N   UNK     1      -7.076   0.900   0.000  0.00  0.00    +0.000 NA
ATOM     18  C   UNK     1      -7.792   0.489   0.000  0.00  0.00    +0.000 C 
ATOM     19  O   UNK     1      -7.794  -0.339   0.000  0.00  0.00    +0.000 OA
BRANCH  18  20
ATOM     20  C   UNK     1      -8.505   0.905   0.000  0.00  0.00    +0.000 C 
ATOM     21  N   UNK     1      -9.260   0.572   0.000  0.00  0.00    +0.000 NA
ATOM     22  C   UNK     1      -8.589   1.725   0.000  0.00  0.00    +0.000 C 
ATOM     23  C   UNK     1      -9.810   1.187   0.000  0.00  0.00    +0.000 C 
ATOM     24  C   UNK     1      -9.395   1.900   0.000  0.00  0.00    +0.000 C 
ATOM     25  O   UNK     1     -10.631   1.103   0.000  0.00  0.00    +0.000 OA
ENDBRANCH  18  20
ENDBRANCH  16  17
BRANCH  16  26
ATOM     26  C   UNK     1      -6.363  -0.339   0.000  0.00  0.00    +0.000 C 
BRANCH  26  27
ATOM     27  C   UNK     1      -5.648  -0.752   0.000  0.00  0.00    +0.000 A 
ATOM     28  N   UNK     1      -4.895  -0.416   0.000  0.00  0.00    +0.000 NA
ATOM     29  C   UNK     1      -5.562  -1.572   0.000  0.00  0.00    +0.000 A 
ATOM     30  C   UNK     1      -4.343  -1.029   0.000  0.00  0.00    +0.000 A 
ATOM     31  N   UNK     1      -4.755  -1.744   0.000  0.00  0.00    +0.000 NA
ENDBRANCH  26  27
ENDBRANCH  16  26
ENDBRANCH  14  16
ENDBRANCH  12  13
BRANCH  12  32
ATOM     32  C   UNK     1      -4.219   1.728   0.000  0.00  0.00    +0.000 C 
BRANCH  32  33
ATOM     33  C   UNK     1      -3.506   2.143   0.000  0.00  0.00    +0.000 A 
ATOM     34  C   UNK     1      -3.423   2.964   0.000  0.00  0.00    +0.000 A 
ATOM     35  C   UNK     1      -2.751   1.810   0.000  0.00  0.00    +0.000 A 
ATOM     36  C   UNK     1      -2.617   3.139   0.000  0.00  0.00    +0.000 A 
ATOM     37  N   UNK     1      -2.201   2.426   0.000  0.00  0.00    +0.000 NA
ATOM     38  C   UNK     1      -2.408   3.937   0.000  0.00  0.00    +0.000 A 
ATOM     39  C   UNK     1      -2.995   4.517   0.000  0.00  0.00    +0.000 A 
ATOM     40  C   UNK     1      -3.790   4.298   0.000  0.00  0.00    +0.000 A 
ATOM     41  C   UNK     1      -3.999   3.500   0.000  0.00  0.00    +0.000 A 
ENDBRANCH  32  33
ENDBRANCH  12  32
ENDBRANCH   9  12
ENDBRANCH   8  10
BRANCH   8  42
ATOM     42  C   UNK     1      -2.101  -0.333   0.000  0.00  0.00    +0.000 C 
ATOM     43  O   UNK     1      -1.403  -0.714   0.000  0.00  0.00    +0.000 OA
ENDBRANCH   8  42
ENDBRANCH   5   8
ENDBRANCH   4   6
BRANCH   4  44
ATOM     44  C   UNK     1       0.057   1.761   0.000  0.00  0.00    +0.000 C 
BRANCH  44  45
ATOM     45  C   UNK     1       0.755   2.142   0.000  0.00  0.00    +0.000 A 
ATOM     46  C   UNK     1       2.151   2.967   0.000  0.00  0.00    +0.000 A 
ATOM     47  C   UNK     1       1.453   1.761   0.000  0.00  0.00    +0.000 A 
ATOM     48  C   UNK     1       0.755   2.967   0.000  0.00  0.00    +0.000 A 
ATOM     49  C   UNK     1       2.151   2.142   0.000  0.00  0.00    +0.000 A 
ATOM     50  C   UNK     1       1.453   3.411   0.000  0.00  0.00    +0.000 A 
ATOM     51  O   UNK     1       2.849   3.411   0.000  0.00  0.00    +0.000 OA
ENDBRANCH  44  45
ENDBRANCH   4  44
ENDBRANCH   1   4
BRANCH   2  52
ATOM     52  C   UNK     1       2.151   0.492   0.000  0.00  0.00    +0.000 C 
BRANCH  52  53
ATOM     53  C   UNK     1       2.849   0.936   0.000  0.00  0.00    +0.000 C 
ATOM     54  N   UNK     1       3.547   0.492   0.000  0.00  0.00    +0.000 NA
ATOM     55  O   UNK     1       2.849   1.761   0.000  0.00  0.00    +0.000 OA
BRANCH  54  56
ATOM     56  C   UNK     1       4.245   0.936   0.000  0.00  0.00    +0.000 C 
BRANCH  56  57
ATOM     57  C   UNK     1       4.943   0.555   0.000  0.00  0.00    +0.000 C 
ATOM     58  N   UNK     1       5.705   0.936   0.000  0.00  0.00    +0.000 NA
ATOM     59  O   UNK     1       4.943  -0.270   0.000  0.00  0.00    +0.000 OA
BRANCH  58  60
ATOM     60  C   UNK     1       6.403   0.555   0.000  0.00  0.00    +0.000 C 
BRANCH  60  61
ATOM     61  C   UNK     1       7.101   0.936   0.000  0.00  0.00    +0.000 C 
ATOM     62  O   UNK     1       7.795   0.489   0.000  0.00  0.00    +0.000 OA
ATOM     63  N   UNK     1       7.106   1.758   0.000  0.00  0.00    +0.000 N 
ATOM     64  C   UNK     1       7.773   2.243   0.000  0.00  0.00    +0.000 C 
ATOM     65  C   UNK     1       6.438   2.243   0.000  0.00  0.00    +0.000 C 
ATOM     66  C   UNK     1       7.518   3.027   0.000  0.00  0.00    +0.000 C 
ATOM     67  C   UNK     1       6.693   3.027   0.000  0.00  0.00    +0.000 C 
BRANCH  64  68
ATOM     68  C   UNK     1       8.488   1.830   0.000  0.00  0.00    +0.000 C 
ATOM     69  O   UNK     1       8.488   1.005   0.000  0.00  0.00    +0.000 OA
ATOM     70  N   UNK     1       9.202   2.243   0.000  0.00  0.00    +0.000 NA
BRANCH  70  71
ATOM     71  C   UNK     1       9.916   1.830   0.000  0.00  0.00    +0.000 C 
ATOM     72  C   UNK     1      10.631   2.243   0.000  0.00  0.00    +0.000 C 
ENDBRANCH  70  71
ENDBRANCH  64  68
ENDBRANCH  60  61
BRANCH  60  73
ATOM     73  C   UNK     1       6.403  -0.270   0.000  0.00  0.00    +0.000 C 
BRANCH  73  74
ATOM     74  C   UNK     1       7.101  -0.714   0.000  0.00  0.00    +0.000 C 
BRANCH  74  75
ATOM     75  C   UNK     1       7.101  -1.476   0.000  0.00  0.00    +0.000 C 
BRANCH  75  78
ATOM     76  C   UNK     1       7.799  -2.745   0.000  0.00  0.00    +0.000 C 
ATOM     77  N   UNK     1       7.101  -3.126   0.000  0.00  0.00    +0.000 NA
ATOM     78  N   UNK     1       7.799  -1.920   0.000  0.00  0.00    +0.000 NA
ATOM     79  N   UNK     1       8.497  -3.126   0.000  0.00  0.00    +0.000 NA
ENDBRANCH  75  78
ENDBRANCH  74  75
ENDBRANCH  73  74
ENDBRANCH  60  73
ENDBRANCH  58  60
ENDBRANCH  56  57
BRANCH  56  80
ATOM     80  C   UNK     1       4.245   1.761   0.000  0.00  0.00    +0.000 C 
BRANCH  80  81
ATOM     81  C   UNK     1       4.943   2.142   0.000  0.00  0.00    +0.000 C 
ATOM     82  C   UNK     1       4.943   2.967   0.000  0.00  0.00    +0.000 C 
ATOM     83  C   UNK     1       5.705   1.761   0.000  0.00  0.00    +0.000 C 
ENDBRANCH  80  81
ENDBRANCH  56  80
ENDBRANCH  54  56
ENDBRANCH  52  53
BRANCH  52  84
ATOM     84  C   UNK     1       2.151  -0.270   0.000  0.00  0.00    +0.000 C 
BRANCH  84  85
ATOM     85  C   UNK     1       2.865  -0.682   0.000  0.00  0.00    +0.000 A 
ATOM     86  N   UNK     1       3.619  -0.347   0.000  0.00  0.00    +0.000 NA
ATOM     87  N   UNK     1       3.759  -1.674   0.000  0.00  0.00    +0.000 N 
ATOM     88  C   UNK     1       4.171  -0.960   0.000  0.00  0.00    +0.000 A 
ATOM     89  C   UNK     1       2.952  -1.503   0.000  0.00  0.00    +0.000 A 
BRANCH  87  90
ATOM     90  C   UNK     1       4.094  -2.428   0.000  0.00  0.00    +0.000 C 
BRANCH  90  91
ATOM     91  C   UNK     1       3.609  -3.095   0.000  0.00  0.00    +0.000 A 
ATOM     92  C   UNK     1       3.945  -3.849   0.000  0.00  0.00    +0.000 A 
ATOM     93  C   UNK     1       2.789  -3.009   0.000  0.00  0.00    +0.000 A 
ATOM     94  C   UNK     1       3.460  -4.517   0.000  0.00  0.00    +0.000 A 
ATOM     95  C   UNK     1       2.304  -3.677   0.000  0.00  0.00    +0.000 A 
ATOM     96  C   UNK     1       2.639  -4.430   0.000  0.00  0.00    +0.000 A 
ENDBRANCH  90  91
ENDBRANCH  87  90
ENDBRANCH  84  85
ENDBRANCH  52  84
ENDBRANCH   2  52
TORSDOF 34
REMARK  Name = 
REMARK  34 active torsions:
REMARK  status: ('A' for Active; 'I' for Inactive)
REMARK    1  A    between atoms: C_1  and  C_16
REMARK    2  A    between atoms: C_2  and  C_8
REMARK    3  A    between atoms: C_3  and  C_57
REMARK    4  A    between atoms: C_4  and  C_13
REMARK    5  A    between atoms: C_5  and  C_14
REMARK    6  A    between atoms: C_6  and  C_15
REMARK    7  A    between atoms: N_7  and  C_8
REMARK    8  A    between atoms: C_8  and  C_32
REMARK    9  A    between atoms: N_9  and  C_14
REMARK   10  A    between atoms: N_10  and  C_13
REMARK   11  A    between atoms: N_11  and  C_15
REMARK   12  A    between atoms: N_12  and  C_16
REMARK   13  A    between atoms: C_13  and  C_18
REMARK   14  A    between atoms: C_14  and  C_26
REMARK   15  A    between atoms: C_15  and  C_27
REMARK   16  A    between atoms: C_16  and  C_39
REMARK   17  A    between atoms: C_18  and  C_45
REMARK   18  A    between atoms: C_26  and  C_30
REMARK   19  A    between atoms: C_27  and  C_40
REMARK   20  A    between atoms: N_28  and  C_41
REMARK   21  A    between atoms: C_39  and  C_42
REMARK   22  A    between atoms: C_41  and  C_42
REMARK   23  A    between atoms: N_47  and  C_50
REMARK   24  A    between atoms: C_50  and  C_51
REMARK   25  A    between atoms: C_57  and  C_58
REMARK   26  A    between atoms: C_57  and  N_59
REMARK   27  A    between atoms: C_58  and  C_60
REMARK   28  A    between atoms: C_69  and  C_71
REMARK   29  A    between atoms: C_71  and  N_72
REMARK   30  A    between atoms: C_71  and  C_73
REMARK   31  A    between atoms: C_73  and  C_74
REMARK   32  A    between atoms: C_79  and  C_80
REMARK   33  A    between atoms: C_88  and  C_92
REMARK   34  A    between atoms: N_94  and  C_95
REMARK                            x       y       z     vdW  Elec       q    Type
REMARK                         _______ _______ _______ _____ _____    ______ ____
ROOT
ATOM      1  C   UNL     1      -1.035  -4.146   0.000  0.00  0.00    +0.000 C 
ATOM      2  C   UNL     1      -0.319  -3.739   0.000  0.00  0.00    +0.000 C 
ATOM      3  O   UNL     1       0.393  -4.156   0.000  0.00  0.00    +0.000 OA
ATOM      4  O   UNL     1      -0.314  -2.914   0.000  0.00  0.00    +0.000 OA
ENDROOT
TORSDOF 0
REMARK  Name = 
REMARK  34 active torsions:
REMARK  status: ('A' for Active; 'I' for Inactive)
REMARK    1  A    between atoms: C_1  and  C_16
REMARK    2  A    between atoms: C_2  and  C_8
REMARK    3  A    between atoms: C_3  and  C_57
REMARK    4  A    between atoms: C_4  and  C_13
REMARK    5  A    between atoms: C_5  and  C_14
REMARK    6  A    between atoms: C_6  and  C_15
REMARK    7  A    between atoms: N_7  and  C_8
REMARK    8  A    between atoms: C_8  and  C_32
REMARK    9  A    between atoms: N_9  and  C_14
REMARK   10  A    between atoms: N_10  and  C_13
REMARK   11  A    between atoms: N_11  and  C_15
REMARK   12  A    between atoms: N_12  and  C_16
REMARK   13  A    between atoms: C_13  and  C_18
REMARK   14  A    between atoms: C_14  and  C_26
REMARK   15  A    between atoms: C_15  and  C_27
REMARK   16  A    between atoms: C_16  and  C_39
REMARK   17  A    between atoms: C_18  and  C_45
REMARK   18  A    between atoms: C_26  and  C_30
REMARK   19  A    between atoms: C_27  and  C_40
REMARK   20  A    between atoms: N_28  and  C_41
REMARK   21  A    between atoms: C_39  and  C_42
REMARK   22  A    between atoms: C_41  and  C_42
REMARK   23  A    between atoms: N_47  and  C_50
REMARK   24  A    between atoms: C_50  and  C_51
REMARK   25  A    between atoms: C_57  and  C_58
REMARK   26  A    between atoms: C_57  and  N_59
REMARK   27  A    between atoms: C_58  and  C_60
REMARK   28  A    between atoms: C_69  and  C_71
REMARK   29  A    between atoms: C_71  and  N_72
REMARK   30  A    between atoms: C_71  and  C_73
REMARK   31  A    between atoms: C_73  and  C_74
REMARK   32  A    between atoms: C_79  and  C_80
REMARK   33  A    between atoms: C_88  and  C_92
REMARK   34  A    between atoms: N_94  and  C_95
REMARK                            x       y       z     vdW  Elec       q    Type
REMARK                         _______ _______ _______ _____ _____    ______ ____
ROOT
ATOM      1  C   UNL     1      -4.345  -4.117   0.000  0.00  0.00    +0.000 C 
ATOM      2  C   UNL     1      -3.629  -3.709   0.000  0.00  0.00    +0.000 C 
ATOM      3  O   UNL     1      -2.917  -4.126   0.000  0.00  0.00    +0.000 OA
ATOM      4  O   UNL     1      -3.624  -2.884   0.000  0.00  0.00    +0.000 OA
ENDROOT
TORSDOF 0
