REMARK  Name = 
REMARK  1 active torsions:
REMARK  status: ('A' for Active; 'I' for Inactive)
REMARK    1  A    between atoms: C_6  and  C_7
REMARK                            x       y       z     vdW  Elec       q    Type
REMARK                         _______ _______ _______ _____ _____    ______ ____
ROOT
ATOM      1  N   UNK A   1       1.072  -0.206   0.000  0.00  0.00    +0.000 NA
ATOM      2  C   UNK A   0       1.072   0.619   0.000  0.00  0.00    +0.000 C 
ATOM      3  C   UNK A   1       0.357   1.031   0.000  0.00  0.00    +0.000 C 
ATOM      4  C   UNK A   1      -0.357   0.619   0.000  0.00  0.00    +0.000 C 
ATOM      5  C   UNK A   1      -0.357  -0.206   0.000  0.00  0.00    +0.000 C 
ATOM      6  C   UNK A   1       0.357  -0.619   0.000  0.00  0.00    +0.000 C 
ATOM      7  O   UNK A   1      -1.072  -0.619   0.000  0.00  0.00    +0.000 OA
ATOM      8  O   UNK A   1      -1.072   1.031   0.000  0.00  0.00    +0.000 OA
ATOM      9  O   UNK A   1       0.357   1.856   0.000  0.00  0.00    +0.000 OA
ENDROOT
BRANCH   6  10
ATOM     10  C   UNK A   1       0.357  -1.444   0.000  0.00  0.00    +0.000 C 
ATOM     11  O   UNK A   1      -0.357  -1.856   0.000  0.00  0.00    +0.000 OA
ENDBRANCH   6  10
TORSDOF 1
