REMARK  Name = 
REMARK  11 active torsions:
REMARK  status: ('A' for Active; 'I' for Inactive)
REMARK    1  A    between atoms: O_2  and  C_3
REMARK    2  A    between atoms: C_3  and  C_5
REMARK    3  A    between atoms: C_5  and  C_6
REMARK    4  A    between atoms: C_6  and  C_7
REMARK    5  A    between atoms: C_9  and  C_10
REMARK    6  A    between atoms: C_10  and  C_11
REMARK    7  A    between atoms: C_12  and  C_18
REMARK    8  A    between atoms: C_19  and  C_20
REMARK    9  A    between atoms: C_20  and  C_21
REMARK   10  A    between atoms: C_21  and  O_22
REMARK   11  A    between atoms: O_22  and  C_23
REMARK                            x       y       z     vdW  Elec       q    Type
REMARK                         _______ _______ _______ _____ _____    ______ ____
ROOT
ATOM      1  C   UNL     1       6.008  -9.987   0.000  0.00  0.00    +0.000 C 
ATOM      2  C   UNL     1       6.761  -9.652   0.000  0.00  0.00    +0.000 C 
ATOM      3  C   UNL     1       7.313 -10.265   0.000  0.00  0.00    +0.000 C 
ATOM      4  C   UNL     1       6.901 -10.979   0.000  0.00  0.00    +0.000 C 
ATOM      5  C   UNL     1       6.094 -10.807   0.000  0.00  0.00    +0.000 C 
ATOM      6  O   UNL     1       5.481 -11.360   0.000  0.00  0.00    +0.000 OA
ATOM      7  O   UNL     1       8.134 -10.178   0.000  0.00  0.00    +0.000 OA
ENDROOT
BRANCH   2   8
ATOM      8  C   UNL     1       6.933  -8.845   0.000  0.00  0.00    +0.000 C 
ATOM      9  C   UNL     1       7.717  -8.590   0.000  0.00  0.00    +0.000 C 
BRANCH   9  10
ATOM     10  C   UNL     1       7.889  -7.783   0.000  0.00  0.00    +0.000 C 
ATOM     11  O   UNL     1       7.276  -7.231   0.000  0.00  0.00    +0.000 OA
BRANCH  10  12
ATOM     12  C   UNL     1       8.674  -7.528   0.000  0.00  0.00    +0.000 C 
BRANCH  12  13
ATOM     13  O   UNL     1       8.845  -6.721   0.000  0.00  0.00    +0.000 OA
BRANCH  13  14
ATOM     14  C   UNL     1       9.630  -6.466   0.000  0.00  0.00    +0.000 A 
ATOM     15  C   UNL     1       9.801  -5.659   0.000  0.00  0.00    +0.000 A 
ATOM     16  C   UNL     1      10.586  -5.404   0.000  0.00  0.00    +0.000 A 
ATOM     17  C   UNL     1      11.199  -5.956   0.000  0.00  0.00    +0.000 A 
ATOM     18  C   UNL     1      11.027  -6.763   0.000  0.00  0.00    +0.000 A 
ATOM     19  C   UNL     1      10.243  -7.018   0.000  0.00  0.00    +0.000 A 
ENDBRANCH  13  14
ENDBRANCH  12  13
ENDBRANCH  10  12
ENDBRANCH   9  10
ENDBRANCH   2   8
BRANCH   1  20
ATOM     20  C   UNL     1       5.293  -9.575   0.000  0.00  0.00    +0.000 C 
BRANCH  20  23
ATOM     21  C   UNL     1       3.150  -9.162   0.000  0.00  0.00    +0.000 C 
ATOM     22  C   UNL     1       3.864  -9.575   0.000  0.00  0.00    +0.000 C 
ATOM     23  C   UNL     1       4.579  -9.987   0.000  0.00  0.00    +0.000 C 
BRANCH  21  24
ATOM     24  C   UNL     1       2.435  -9.575   0.000  0.00  0.00    +0.000 C 
BRANCH  24  25
ATOM     25  C   UNL     1       1.721  -9.162   0.000  0.00  0.00    +0.000 C 
BRANCH  25  26
ATOM     26  C   UNL     1       1.006  -9.575   0.000  0.00  0.00    +0.000 C 
ATOM     27  O   UNL     1       1.006 -10.399   0.000  0.00  0.00    +0.000 OA
BRANCH  26  29
ATOM     28  C   UNL     1      -0.423  -9.575   0.000  0.00  0.00    +0.000 C 
ATOM     29  O   UNL     1       0.292  -9.162   0.000  0.00  0.00    +0.000 OA
ENDBRANCH  26  29
ENDBRANCH  25  26
ENDBRANCH  24  25
ENDBRANCH  21  24
ENDBRANCH  20  23
ENDBRANCH   1  20
TORSDOF 11
