REMARK  Name = 
REMARK  10 active torsions:
REMARK  status: ('A' for Active; 'I' for Inactive)
REMARK    1  A    between atoms: C_1  and  O_9
REMARK    2  A    between atoms: C_2  and  O_10
REMARK    3  A    between atoms: C_7  and  C_11
REMARK    4  A    between atoms: C_11  and  N_12
REMARK    5  A    between atoms: N_12  and  C_13
REMARK    6  A    between atoms: C_13  and  C_17
REMARK    7  A    between atoms: C_17  and  C_18
REMARK    8  A    between atoms: C_18  and  N_19
REMARK    9  A    between atoms: C_28  and  O_31
REMARK   10  A    between atoms: C_29  and  O_33
REMARK                            x       y       z     vdW  Elec       q    Type
REMARK                         _______ _______ _______ _____ _____    ______ ____
ROOT
ATOM      1  C   UNL     1      26.708 -18.480   0.000  0.00  0.00    +0.000 C 
ENDROOT
BRANCH   1   2
ATOM      2  C   UNL     1      26.007 -18.067   0.000  0.00  0.00    +0.000 C 
BRANCH   2   3
ATOM      3  N   UNL     1      25.306 -18.480   0.000  0.00  0.00    +0.000 N 
ATOM      4  C   UNL     1      23.491 -18.067   0.000  0.00  0.00    +0.000 A 
ATOM      5  C   UNL     1      24.151 -17.531   0.000  0.00  0.00    +0.000 C 
ATOM      6  C   UNL     1      24.934 -17.737   0.000  0.00  0.00    +0.000 C 
ATOM      7  C   UNL     1      23.491 -18.892   0.000  0.00  0.00    +0.000 A 
ATOM      8  C   UNL     1      24.934 -19.222   0.000  0.00  0.00    +0.000 C 
ATOM      9  C   UNL     1      24.151 -19.387   0.000  0.00  0.00    +0.000 C 
ATOM     10  O   UNL     1      25.455 -17.097   0.000  0.00  0.00    +0.000 OA
ATOM     11  C   UNL     1      22.776 -17.655   0.000  0.00  0.00    +0.000 A 
ATOM     12  C   UNL     1      22.062 -18.067   0.000  0.00  0.00    +0.000 A 
ATOM     13  C   UNL     1      22.062 -18.892   0.000  0.00  0.00    +0.000 A 
ATOM     14  C   UNL     1      22.776 -19.305   0.000  0.00  0.00    +0.000 A 
BRANCH  12  15
ATOM     15  O   UNL     1      21.336 -17.648   0.000  0.00  0.00    +0.000 OA
ATOM     16  C   UNL     1      20.626 -18.058   0.000  0.00  0.00    +0.000 C 
ENDBRANCH  12  15
BRANCH  13  17
ATOM     17  O   UNL     1      21.336 -19.311   0.000  0.00  0.00    +0.000 OA
ATOM     18  C   UNL     1      20.626 -18.901   0.000  0.00  0.00    +0.000 C 
ENDBRANCH  13  17
ENDBRANCH   2   3
ENDBRANCH   1   2
BRANCH   1  19
ATOM     19  C   UNL     1      27.410 -18.067   0.000  0.00  0.00    +0.000 C 
BRANCH  19  20
ATOM     20  N   UNL     1      28.111 -18.480   0.000  0.00  0.00    +0.000 NA
ATOM     21  C   UNL     1      28.111 -19.305   0.000  0.00  0.00    +0.000 C 
BRANCH  20  22
ATOM     22  C   UNL     1      28.812 -18.067   0.000  0.00  0.00    +0.000 C 
BRANCH  22  29
ATOM     23  C   UNL     1      31.741 -19.387   0.000  0.00  0.00    +0.000 A 
ATOM     24  C   UNL     1      31.741 -18.562   0.000  0.00  0.00    +0.000 A 
ATOM     25  C   UNL     1      31.040 -18.150   0.000  0.00  0.00    +0.000 A 
ATOM     26  C   UNL     1      30.297 -18.562   0.000  0.00  0.00    +0.000 A 
ATOM     27  C   UNL     1      30.297 -19.387   0.000  0.00  0.00    +0.000 A 
ATOM     28  C   UNL     1      31.040 -19.800   0.000  0.00  0.00    +0.000 A 
ATOM     29  C   UNL     1      29.472 -18.562   0.000  0.00  0.00    +0.000 C 
ATOM     30  C   UNL     1      29.472 -19.387   0.000  0.00  0.00    +0.000 C 
BRANCH  24  31
ATOM     31  O   UNL     1      32.442 -18.150   0.000  0.00  0.00    +0.000 OA
ATOM     32  C   UNL     1      33.144 -18.562   0.000  0.00  0.00    +0.000 C 
ENDBRANCH  24  31
BRANCH  23  33
ATOM     33  O   UNL     1      32.442 -19.800   0.000  0.00  0.00    +0.000 OA
ATOM     34  C   UNL     1      33.144 -19.387   0.000  0.00  0.00    +0.000 C 
ENDBRANCH  23  33
ENDBRANCH  22  29
ENDBRANCH  20  22
ENDBRANCH  19  20
ENDBRANCH   1  19
TORSDOF 10
