REMARK  Name = 
REMARK  13 active torsions:
REMARK  status: ('A' for Active; 'I' for Inactive)
REMARK    1  A    between atoms: C_2  and  N_28
REMARK    2  A    between atoms: N_8  and  C_9
REMARK    3  A    between atoms: C_9  and  C_10
REMARK    4  A    between atoms: C_13  and  C_16
REMARK    5  A    between atoms: C_16  and  N_17
REMARK    6  A    between atoms: N_17  and  C_18
REMARK    7  A    between atoms: C_18  and  C_19
REMARK    8  A    between atoms: C_19  and  C_20
REMARK    9  A    between atoms: C_20  and  N_21
REMARK   10  A    between atoms: N_21  and  C_22
REMARK   11  A    between atoms: N_31  and  C_34
REMARK   12  A    between atoms: C_34  and  C_35
REMARK   13  A    between atoms: C_35  and  P_36
REMARK                            x       y       z     vdW  Elec       q    Type
REMARK                         _______ _______ _______ _____ _____    ______ ____
ROOT
ATOM      1  C   UNL     1      -1.429  -8.250   0.000  0.00  0.00    +0.000 A 
ATOM      2  C   UNL     1      -1.429  -7.425   0.000  0.00  0.00    +0.000 A 
ATOM      3  N   UNL     1      -0.715  -7.013   0.000  0.00  0.00    +0.000 NA
ATOM      4  C   UNL     1       0.000  -7.425   0.000  0.00  0.00    +0.000 A 
ATOM      5  N   UNL     1       0.000  -8.250   0.000  0.00  0.00    +0.000 NA
ATOM      6  C   UNL     1      -0.715  -8.662   0.000  0.00  0.00    +0.000 A 
ATOM      7  N   UNL     1      -0.715  -9.488   0.000  0.00  0.00    +0.000 NA
ATOM      8  N   UNL     1       0.715  -7.013   0.000  0.00  0.00    +0.000 NA
ENDROOT
BRANCH   2   9
ATOM      9  N   UNL     1      -2.143  -7.013   0.000  0.00  0.00    +0.000 N 
ATOM     10  C   UNL     1      -2.858  -7.425   0.000  0.00  0.00    +0.000 C 
ATOM     11  C   UNL     1      -3.572  -7.013   0.000  0.00  0.00    +0.000 C 
ATOM     12  N   UNL     1      -3.572  -6.188   0.000  0.00  0.00    +0.000 NA
ATOM     13  C   UNL     1      -2.858  -5.775   0.000  0.00  0.00    +0.000 C 
ATOM     14  C   UNL     1      -2.143  -6.188   0.000  0.00  0.00    +0.000 C 
BRANCH  12  15
ATOM     15  C   UNL     1      -4.287  -5.775   0.000  0.00  0.00    +0.000 C 
BRANCH  15  16
ATOM     16  C   UNL     1      -4.287  -4.950   0.000  0.00  0.00    +0.000 C 
BRANCH  16  17
ATOM     17  P   UNL     1      -5.001  -4.537   0.000  0.00  0.00    +0.000 P 
ATOM     18  O   UNL     1      -5.716  -4.125   0.000  0.00  0.00    +0.000 OA
ATOM     19  O   UNL     1      -4.589  -3.823   0.000  0.00  0.00    +0.000 OA
ATOM     20  O   UNL     1      -5.414  -5.252   0.000  0.00  0.00    +0.000 OA
ENDBRANCH  16  17
ENDBRANCH  15  16
ENDBRANCH  12  15
ENDBRANCH   2   9
BRANCH   8  21
ATOM     21  C   UNL     1       1.429  -7.425   0.000  0.00  0.00    +0.000 C 
BRANCH  21  22
ATOM     22  C   UNL     1       2.143  -7.013   0.000  0.00  0.00    +0.000 C 
ATOM     23  C   UNL     1       2.143  -6.188   0.000  0.00  0.00    +0.000 C 
ATOM     24  C   UNL     1       2.858  -5.775   0.000  0.00  0.00    +0.000 C 
ATOM     25  C   UNL     1       3.572  -6.188   0.000  0.00  0.00    +0.000 C 
ATOM     26  C   UNL     1       3.572  -7.013   0.000  0.00  0.00    +0.000 C 
ATOM     27  C   UNL     1       2.858  -7.425   0.000  0.00  0.00    +0.000 C 
BRANCH  25  28
ATOM     28  C   UNL     1       4.287  -5.775   0.000  0.00  0.00    +0.000 C 
BRANCH  28  29
ATOM     29  N   UNL     1       5.001  -6.188   0.000  0.00  0.00    +0.000 NA
BRANCH  29  30
ATOM     30  C   UNL     1       5.716  -5.775   0.000  0.00  0.00    +0.000 C 
BRANCH  30  31
ATOM     31  C   UNL     1       6.430  -6.188   0.000  0.00  0.00    +0.000 C 
BRANCH  31  32
ATOM     32  C   UNL     1       7.145  -5.775   0.000  0.00  0.00    +0.000 C 
BRANCH  32  33
ATOM     33  N   UNL     1       7.859  -6.188   0.000  0.00  0.00    +0.000 NA
BRANCH  33  34
ATOM     34  C   UNL     1       8.574  -5.775   0.000  0.00  0.00    +0.000 C 
ATOM     35  C   UNL     1       8.574  -4.950   0.000  0.00  0.00    +0.000 C 
ATOM     36  C   UNL     1       9.288  -4.537   0.000  0.00  0.00    +0.000 C 
ATOM     37  C   UNL     1      10.003  -4.950   0.000  0.00  0.00    +0.000 C 
ATOM     38  C   UNL     1      10.003  -5.775   0.000  0.00  0.00    +0.000 C 
ATOM     39  C   UNL     1       9.288  -6.188   0.000  0.00  0.00    +0.000 C 
ENDBRANCH  33  34
ENDBRANCH  32  33
ENDBRANCH  31  32
ENDBRANCH  30  31
ENDBRANCH  29  30
ENDBRANCH  28  29
ENDBRANCH  25  28
ENDBRANCH  21  22
ENDBRANCH   8  21
TORSDOF 13
