REMARK  Name = 
REMARK  2 active torsions:
REMARK  status: ('A' for Active; 'I' for Inactive)
REMARK    1  A    between atoms: CA_4  and  C_7
REMARK    2  A    between atoms: C_13  and  C_14
REMARK                            x       y       z     vdW  Elec       q    Type
REMARK                         _______ _______ _______ _____ _____    ______ ____
ROOT
ATOM      1  C   GLN A   1       0.363  -0.063   0.000  0.00  0.00    +0.000 C 
ATOM      2  N   UNK A   2       1.065  -0.476   0.000  0.00  0.00    +0.000 N 
ATOM      3  O   GLN A   1       0.363   0.762   0.000  0.00  0.00    +0.000 OA
ATOM      4  C   UNK A   2       1.319  -1.260   0.000  0.00  0.00    +0.000 C 
ATOM      5  S   UNK A   2       2.144  -1.261   0.000  0.00  0.00    +0.000 S 
ATOM      6  C   UNK A   2       2.400  -0.476   0.000  0.00  0.00    +0.000 C 
ATOM      7  C   UNK A   2       1.732   0.009   0.000  0.00  0.00    +0.000 C 
ENDROOT
BRANCH   1  11
ATOM      8  CD  GLN A   1      -1.658  -0.476   0.000  0.00  0.00    +0.000 C 
ATOM      9  CG  GLN A   1      -1.410  -1.259   0.000  0.00  0.00    +0.000 C 
ATOM     10  CB  GLN A   1      -0.585  -1.259   0.000  0.00  0.00    +0.000 C 
ATOM     11  CA  GLN A   1      -0.338  -0.476   0.000  0.00  0.00    +0.000 C 
ATOM     12  N   GLN A   1      -0.998   0.019   0.000  0.00  0.00    +0.000 NA
ATOM     13  OE1 GLN A   1      -2.442  -0.187   0.000  0.00  0.00    +0.000 OA
ENDBRANCH   1  11
BRANCH   7  14
ATOM     14  C   UNK A   2       1.733   0.844   0.000  0.00  0.00    +0.000 C 
ATOM     15  O   UNK A   2       2.442   1.253   0.000  0.00  0.00    +0.000 OA
ATOM     16  O   UNK A   2       1.012   1.261   0.000  0.00  0.00    +0.000 OA
ENDBRANCH   7  14
TORSDOF 2
