REMARK  Name = 
REMARK  10 active torsions:
REMARK  status: ('A' for Active; 'I' for Inactive)
REMARK    1  A    between atoms: V_2  and  O_4
REMARK    2  A    between atoms: O_4  and  V_5
REMARK    3  A    between atoms: O_4  and  V_23
REMARK    4  A    between atoms: V_5  and  O_7
REMARK    5  A    between atoms: O_7  and  V_8
REMARK    6  A    between atoms: V_8  and  O_11
REMARK    7  A    between atoms: O_11  and  V_12
REMARK    8  A    between atoms: V_12  and  O_15
REMARK    9  A    between atoms: O_15  and  V_16
REMARK   10  A    between atoms: O_15  and  V_19
REMARK                            x       y       z     vdW  Elec       q    Type
REMARK                         _______ _______ _______ _____ _____    ______ ____
ROOT
ATOM      1  V   UNL     1       0.000  -0.621   0.000  0.00  0.00    +0.000 V 
ATOM      2  O   UNL     1      -0.414  -1.335   0.000  0.00  0.00    +0.000 OA
ATOM      3  O   UNL     1       0.414   0.093   0.000  0.00  0.00    +0.000 OA
ENDROOT
BRANCH   1   4
ATOM      4  O   UNL     1      -0.714  -0.207   0.000  0.00  0.00    +0.000 OA
BRANCH   4   5
ATOM      5  V   UNL     1      -1.427  -0.621   0.000  0.00  0.00    +0.000 V 
ATOM      6  O   UNL     1      -1.427  -1.442   0.000  0.00  0.00    +0.000 OA
BRANCH   5   7
ATOM      7  O   UNL     1      -2.141  -0.207   0.000  0.00  0.00    +0.000 OA
BRANCH   7   8
ATOM      8  V   UNL     1      -2.141   0.621   0.000  0.00  0.00    +0.000 V 
ATOM      9  O   UNL     1      -2.141   1.442   0.000  0.00  0.00    +0.000 OA
ATOM     10  O   UNL     1      -1.321   0.621   0.000  0.00  0.00    +0.000 OA
ATOM     11  O   UNL     1      -2.962   0.621   0.000  0.00  0.00    +0.000 OA
ENDBRANCH   7   8
BRANCH   7  13
ATOM     12  O   UNL     1      -3.569  -0.207   0.000  0.00  0.00    +0.000 OA
ATOM     13  V   UNL     1      -2.855  -0.621   0.000  0.00  0.00    +0.000 V 
ATOM     14  O   UNL     1      -2.855  -1.442   0.000  0.00  0.00    +0.000 OA
ENDBRANCH   7  13
ENDBRANCH   5   7
ENDBRANCH   4   5
ENDBRANCH   1   4
BRANCH   1  15
ATOM     15  O   UNL     1       0.714  -1.028   0.000  0.00  0.00    +0.000 OA
BRANCH  15  16
ATOM     16  V   UNL     1       1.427  -0.621   0.000  0.00  0.00    +0.000 V 
ATOM     17  O   UNL     1       1.841  -1.335   0.000  0.00  0.00    +0.000 OA
ATOM     18  O   UNL     1       1.014   0.093   0.000  0.00  0.00    +0.000 OA
BRANCH  16  19
ATOM     19  O   UNL     1       2.141  -0.207   0.000  0.00  0.00    +0.000 OA
BRANCH  19  20
ATOM     20  V   UNL     1       2.141   0.621   0.000  0.00  0.00    +0.000 V 
ATOM     21  O   UNL     1       2.962   0.621   0.000  0.00  0.00    +0.000 OA
ATOM     22  O   UNL     1       1.320   0.621   0.000  0.00  0.00    +0.000 OA
ATOM     23  O   UNL     1       2.141   1.442   0.000  0.00  0.00    +0.000 OA
ENDBRANCH  19  20
BRANCH  19  24
ATOM     24  V   UNL     1       2.855  -0.621   0.000  0.00  0.00    +0.000 V 
ATOM     25  O   UNL     1       3.569  -0.207   0.000  0.00  0.00    +0.000 OA
ATOM     26  O   UNL     1       2.855  -1.442   0.000  0.00  0.00    +0.000 OA
ENDBRANCH  19  24
ENDBRANCH  16  19
ENDBRANCH  15  16
ENDBRANCH   1  15
TORSDOF 10
