REMARK  Name = 
REMARK  20 active torsions:
REMARK  status: ('A' for Active; 'I' for Inactive)
REMARK    1  A    between atoms: C_6  and  C_7
REMARK    2  A    between atoms: C_6  and  N_23
REMARK    3  A    between atoms: C_7  and  N_24
REMARK    4  A    between atoms: C_8  and  C_9
REMARK    5  A    between atoms: C_8  and  N_23
REMARK    6  A    between atoms: C_9  and  N_25
REMARK    7  A    between atoms: C_10  and  C_18
REMARK    8  A    between atoms: C_10  and  N_23
REMARK    9  A    between atoms: C_11  and  C_19
REMARK   10  A    between atoms: C_11  and  N_24
REMARK   11  A    between atoms: C_12  and  C_20
REMARK   12  A    between atoms: C_12  and  N_24
REMARK   13  A    between atoms: C_13  and  C_21
REMARK   14  A    between atoms: C_13  and  N_25
REMARK   15  A    between atoms: C_14  and  C_16
REMARK   16  A    between atoms: C_14  and  O_36
REMARK   17  A    between atoms: C_15  and  C_17
REMARK   18  A    between atoms: C_15  and  O_36
REMARK   19  A    between atoms: C_17  and  C_22
REMARK   20  A    between atoms: C_17  and  N_25
REMARK                            x       y       z     vdW  Elec       q    Type
REMARK                         _______ _______ _______ _____ _____    ______ ____
ROOT
ATOM      1  C   UNL     1      -0.321   0.259   0.000  0.00  0.00    +0.000 C 
ENDROOT
BRANCH   1   2
ATOM      2  C   UNL     1      -1.091   0.556   0.000  0.00  0.00    +0.000 C 
BRANCH   2   3
ATOM      3  N   UNL     1      -1.732   0.037   0.000  0.00  0.00    +0.000 NA
BRANCH   3   4
ATOM      4  C   UNL     1      -1.604  -0.778   0.000  0.00  0.00    +0.000 C 
BRANCH   4   5
ATOM      5  C   UNL     1      -0.834  -1.074   0.000  0.00  0.00    +0.000 C 
ATOM      6  O   UNL     1      -0.192  -0.556   0.000  0.00  0.00    +0.000 OA
ATOM      7  O   UNL     1      -0.706  -1.889   0.000  0.00  0.00    +0.000 OA
ENDBRANCH   4   5
ENDBRANCH   3   4
BRANCH   3   8
ATOM      8  C   UNL     1      -2.502   0.333   0.000  0.00  0.00    +0.000 C 
BRANCH   8   9
ATOM      9  C   UNL     1      -3.144  -0.185   0.000  0.00  0.00    +0.000 C 
BRANCH   9  10
ATOM     10  N   UNL     1      -3.914   0.111   0.000  0.00  0.00    +0.000 NA
BRANCH  10  11
ATOM     11  C   UNL     1      -4.555  -0.407   0.000  0.00  0.00    +0.000 C 
BRANCH  11  12
ATOM     12  C   UNL     1      -4.427  -1.222   0.000  0.00  0.00    +0.000 C 
ATOM     13  O   UNL     1      -3.657  -1.519   0.000  0.00  0.00    +0.000 OA
ATOM     14  O   UNL     1      -5.069  -1.741   0.000  0.00  0.00    +0.000 OA
ENDBRANCH  11  12
ENDBRANCH  10  11
BRANCH  10  15
ATOM     15  C   UNL     1      -4.042   0.926   0.000  0.00  0.00    +0.000 C 
BRANCH  15  16
ATOM     16  C   UNL     1      -4.812   1.222   0.000  0.00  0.00    +0.000 C 
ATOM     17  O   UNL     1      -5.454   0.704   0.000  0.00  0.00    +0.000 OA
ATOM     18  O   UNL     1      -4.940   2.037   0.000  0.00  0.00    +0.000 OA
ENDBRANCH  15  16
ENDBRANCH  10  15
ENDBRANCH   9  10
ENDBRANCH   8   9
ENDBRANCH   3   8
ENDBRANCH   2   3
ENDBRANCH   1   2
BRANCH   1  19
ATOM     19  N   UNL     1       0.321   0.778   0.000  0.00  0.00    +0.000 NA
BRANCH  19  20
ATOM     20  C   UNL     1       0.192   1.593   0.000  0.00  0.00    +0.000 C 
BRANCH  20  21
ATOM     21  C   UNL     1      -0.577   1.889   0.000  0.00  0.00    +0.000 C 
ATOM     22  O   UNL     1      -1.219   1.371   0.000  0.00  0.00    +0.000 OA
ATOM     23  O   UNL     1      -0.706   2.704   0.000  0.00  0.00    +0.000 OA
ENDBRANCH  20  21
ENDBRANCH  19  20
BRANCH  19  24
ATOM     24  C   UNL     1       1.091   0.481   0.000  0.00  0.00    +0.000 C 
BRANCH  24  25
ATOM     25  C   UNL     1       1.219  -0.333   0.000  0.00  0.00    +0.000 C 
ATOM     26  O   UNL     1       0.577  -0.852   0.000  0.00  0.00    +0.000 OA
ATOM     27  O   UNL     1       1.989  -0.630   0.000  0.00  0.00    +0.000 OA
ENDBRANCH  24  25
BRANCH  24  28
ATOM     28  C   UNL     1       1.732   1.000   0.000  0.00  0.00    +0.000 C 
BRANCH  28  29
ATOM     29  O   UNL     1       2.502   0.704   0.000  0.00  0.00    +0.000 OA
BRANCH  29  30
ATOM     30  C   UNL     1       3.144   1.222   0.000  0.00  0.00    +0.000 C 
BRANCH  30  36
ATOM     31  C   UNL     1       5.454   0.333   0.000  0.00  0.00    +0.000 A 
ATOM     32  C   UNL     1       5.325   1.148   0.000  0.00  0.00    +0.000 A 
ATOM     33  C   UNL     1       4.812  -0.185   0.000  0.00  0.00    +0.000 A 
ATOM     34  C   UNL     1       4.555   1.445   0.000  0.00  0.00    +0.000 A 
ATOM     35  C   UNL     1       4.042   0.111   0.000  0.00  0.00    +0.000 A 
ATOM     36  C   UNL     1       3.914   0.926   0.000  0.00  0.00    +0.000 A 
ENDBRANCH  30  36
ENDBRANCH  29  30
ENDBRANCH  28  29
ENDBRANCH  24  28
ENDBRANCH  19  24
ENDBRANCH   1  19
TORSDOF 20
REMARK  Name = 
REMARK  20 active torsions:
REMARK  status: ('A' for Active; 'I' for Inactive)
REMARK    1  A    between atoms: C_6  and  C_7
REMARK    2  A    between atoms: C_6  and  N_23
REMARK    3  A    between atoms: C_7  and  N_24
REMARK    4  A    between atoms: C_8  and  C_9
REMARK    5  A    between atoms: C_8  and  N_23
REMARK    6  A    between atoms: C_9  and  N_25
REMARK    7  A    between atoms: C_10  and  C_18
REMARK    8  A    between atoms: C_10  and  N_23
REMARK    9  A    between atoms: C_11  and  C_19
REMARK   10  A    between atoms: C_11  and  N_24
REMARK   11  A    between atoms: C_12  and  C_20
REMARK   12  A    between atoms: C_12  and  N_24
REMARK   13  A    between atoms: C_13  and  C_21
REMARK   14  A    between atoms: C_13  and  N_25
REMARK   15  A    between atoms: C_14  and  C_16
REMARK   16  A    between atoms: C_14  and  O_36
REMARK   17  A    between atoms: C_15  and  C_17
REMARK   18  A    between atoms: C_15  and  O_36
REMARK   19  A    between atoms: C_17  and  C_22
REMARK   20  A    between atoms: C_17  and  N_25
REMARK                            x       y       z     vdW  Elec       q    Type
REMARK                         _______ _______ _______ _____ _____    ______ ____
ROOT
ATOM      1 GD   UNL     1      -0.577  -2.704   0.000  0.00  0.00    +0.000 Gd
ENDROOT
TORSDOF 0
