REMARK  Name = 
REMARK  15 active torsions:
REMARK  status: ('A' for Active; 'I' for Inactive)
REMARK    1  A    between atoms: C_1  and  C_2
REMARK    2  A    between atoms: C_1  and  C_8
REMARK    3  A    between atoms: C_1  and  N_9
REMARK    4  A    between atoms: C_6  and  C_11
REMARK    5  A    between atoms: N_7  and  C_11
REMARK    6  A    between atoms: C_11  and  C_22
REMARK    7  A    between atoms: N_12  and  C_13
REMARK    8  A    between atoms: C_13  and  C_14
REMARK    9  A    between atoms: C_13  and  C_20
REMARK   10  A    between atoms: N_15  and  CA_23
REMARK   11  A    between atoms: C_20  and  C_30
REMARK   12  A    between atoms: C_22  and  C_32
REMARK   13  A    between atoms: CA_23  and  C_26
REMARK   14  A    between atoms: CA_23  and  CB_29
REMARK   15  A    between atoms: CB_29  and  CG_31
REMARK                            x       y       z     vdW  Elec       q    Type
REMARK                         _______ _______ _______ _____ _____    ______ ____
ROOT
ATOM      1  C   UNK A   1      -0.712   0.200   0.000  0.00  0.00    +0.000 C 
ENDROOT
BRANCH   1   4
ATOM      2  C   UNK A   1       0.000   2.250   0.000  0.00  0.00    +0.000 C 
ATOM      3  N   UNK A   1       0.000   1.429   0.000  0.00  0.00    +0.000 NA
ATOM      4  C   UNK A   1      -0.712   1.025   0.000  0.00  0.00    +0.000 C 
ATOM      5  N   UNK A   1       0.712   2.667   0.000  0.00  0.00    +0.000 NA
ATOM      6  N   UNK A   1      -0.712   2.667   0.000  0.00  0.00    +0.000 NA
ATOM      7  C   UNK A   1      -1.429   1.429   0.000  0.00  0.00    +0.000 C 
ATOM      8  C   UNK A   1      -1.425   2.262   0.000  0.00  0.00    +0.000 C 
ENDBRANCH   1   4
BRANCH   1  10
ATOM      9  C   UNK A   0      -2.142   0.200   0.000  0.00  0.00    +0.000 C 
ATOM     10  N   UNK A   1      -1.429  -0.212   0.000  0.00  0.00    +0.000 NA
ATOM     11  N   UNK A   1      -2.862  -0.212   0.000  0.00  0.00    +0.000 NA
ATOM     12  O   UNK A   0      -2.142   1.025   0.000  0.00  0.00    +0.000 OA
BRANCH  11  13
ATOM     13  C   UNK A   1      -3.575   0.200   0.000  0.00  0.00    +0.000 C 
BRANCH  13  14
ATOM     14  C   UNK A   1      -4.287  -0.212   0.000  0.00  0.00    +0.000 C 
ATOM     15  O   UNK A   1      -4.287  -1.038   0.000  0.00  0.00    +0.000 OA
ATOM     16  O   UNK A   1      -5.000   0.200   0.000  0.00  0.00    +0.000 OA
ENDBRANCH  13  14
BRANCH  13  17
ATOM     17  C   UNK A   1      -3.575   1.025   0.000  0.00  0.00    +0.000 C 
BRANCH  17  18
ATOM     18  C   UNK A   1      -4.287   1.437   0.000  0.00  0.00    +0.000 A 
ATOM     19  C   UNK A   1      -4.287   2.262   0.000  0.00  0.00    +0.000 A 
ATOM     20  C   UNK A   1      -5.000   1.025   0.000  0.00  0.00    +0.000 A 
ATOM     21  C   UNK A   1      -5.713   1.437   0.000  0.00  0.00    +0.000 A 
ATOM     22  C   UNK A   1      -5.000   2.675   0.000  0.00  0.00    +0.000 A 
ATOM     23  C   UNK A   1      -5.713   2.262   0.000  0.00  0.00    +0.000 A 
ENDBRANCH  17  18
ENDBRANCH  13  17
ENDBRANCH  11  13
ENDBRANCH   1  10
BRANCH   1  24
ATOM     24  C   UNK A   1       0.000  -0.212   0.000  0.00  0.00    +0.000 C 
ATOM     25  N   UNK A   1       0.712   0.200   0.000  0.00  0.00    +0.000 NA
ATOM     26  O   UNK A   1       0.000  -1.038   0.000  0.00  0.00    +0.000 OA
BRANCH  25  27
ATOM     27  C   UNK A   1       1.425  -0.212   0.000  0.00  0.00    +0.000 C 
BRANCH  27  28
ATOM     28  C   UNK A   1       2.146   0.200   0.000  0.00  0.00    +0.000 C 
ATOM     29  N   PHE A   2       2.858  -0.212   0.000  0.00  0.00    +0.000 NA
ATOM     30  O   UNK A   1       2.146   1.025   0.000  0.00  0.00    +0.000 OA
BRANCH  29  31
ATOM     31  CA  PHE A   2       3.575   0.200   0.000  0.00  0.00    +0.000 C 
BRANCH  31  33
ATOM     32  O   PHE A   2       4.287  -1.038   0.000  0.00  0.00    +0.000 OA
ATOM     33  C   PHE A   2       4.287  -0.212   0.000  0.00  0.00    +0.000 C 
ENDBRANCH  31  33
BRANCH  31  34
ATOM     34  CB  PHE A   2       3.575   1.025   0.000  0.00  0.00    +0.000 C 
BRANCH  34  35
ATOM     35  CG  PHE A   2       4.287   1.437   0.000  0.00  0.00    +0.000 A 
ATOM     36  CD1 PHE A   2       4.287   2.262   0.000  0.00  0.00    +0.000 A 
ATOM     37  CD2 PHE A   2       5.000   1.025   0.000  0.00  0.00    +0.000 A 
ATOM     38  CE2 PHE A   2       5.713   1.437   0.000  0.00  0.00    +0.000 A 
ATOM     39  CE1 PHE A   2       4.996   2.675   0.000  0.00  0.00    +0.000 A 
ATOM     40  CZ  PHE A   2       5.713   2.262   0.000  0.00  0.00    +0.000 A 
ENDBRANCH  34  35
ENDBRANCH  31  34
ENDBRANCH  29  31
ENDBRANCH  27  28
BRANCH  27  41
ATOM     41  C   UNK A   1       1.425  -1.038   0.000  0.00  0.00    +0.000 C 
BRANCH  41  42
ATOM     42  C   UNK A   1       2.125  -1.733   0.000  0.00  0.00    +0.000 C 
ATOM     43  C   UNK A   1       1.871  -2.675   0.000  0.00  0.00    +0.000 C 
ATOM     44  C   UNK A   1       3.062  -1.475   0.000  0.00  0.00    +0.000 C 
ENDBRANCH  41  42
ENDBRANCH  27  41
ENDBRANCH  25  27
ENDBRANCH   1  24
TORSDOF 15
