REMARK  Name = 
REMARK  14 active torsions:
REMARK  status: ('A' for Active; 'I' for Inactive)
REMARK    1  A    between atoms: C_11  and  N_57
REMARK    2  A    between atoms: C_15  and  C_16
REMARK    3  A    between atoms: C_26  and  C_27
REMARK    4  A    between atoms: C_27  and  C_28
REMARK    5  A    between atoms: C_28  and  C_29
REMARK    6  A    between atoms: C_40  and  C_41
REMARK    7  A    between atoms: C_58  and  C_59
REMARK    8  A    between atoms: C_63  and  C_66
REMARK    9  A    between atoms: C_69  and  C_72
REMARK   10  A    between atoms: C_75  and  O_78
REMARK   11  A    between atoms: O_78  and  C_79
REMARK   12  A    between atoms: C_79  and  C_80
REMARK   13  A    between atoms: C_80  and  C_81
REMARK   14  A    between atoms: C_81  and  C_82
REMARK                            x       y       z     vdW  Elec       q    Type
REMARK                         _______ _______ _______ _____ _____    ______ ____
ROOT
ATOM      1  C   UNL     1      -4.873   0.315   0.000  0.00  0.00    +0.000 C 
ATOM      2  N   UNL     1      -4.236  -0.214   0.000  0.00  0.00    +0.000 N 
ATOM      3  C   UNL     1      -3.534   0.227   0.000  0.00  0.00    +0.000 C 
ATOM      4  C   UNL     1      -3.739   1.032   0.000  0.00  0.00    +0.000 C 
ATOM      5  C   UNL     1      -4.565   1.083   0.000  0.00  0.00    +0.000 C 
ATOM      6  C   UNL     1      -0.837   0.210   0.000  0.00  0.00    +0.000 C 
ATOM      7  C   UNL     1      -1.093   0.975   0.000  0.00  0.00    +0.000 C 
ATOM      8  C   UNL     1      -1.901   0.972   0.000  0.00  0.00    +0.000 C 
ATOM      9  N   UNL     1      -2.149   0.201   0.000  0.00  0.00    +0.000 NA
ATOM     10  C   UNL     1      -2.844  -0.205   0.000  0.00  0.00    +0.000 C 
ATOM     11  C   UNL     1      -0.145  -0.193   0.000  0.00  0.00    +0.000 C 
ATOM     12  C   UNL     1      -0.149  -1.000   0.000  0.00  0.00    +0.000 C 
ATOM     13  N   UNL     1      -0.849  -1.401   0.000  0.00  0.00    +0.000 NA
ATOM     14  O   UNL     1       0.550  -1.407   0.000  0.00  0.00    +0.000 OA
ATOM     15  C   UNL     1      -0.856  -2.205   0.000  0.00  0.00    +0.000 C 
ATOM     16  C   UNL     1      -1.557  -2.597   0.000  0.00  0.00    +0.000 C 
ATOM     17  C   UNL     1      -0.872  -3.818   0.000  0.00  0.00    +0.000 C 
ATOM     18  N   UNL     1      -1.570  -3.409   0.000  0.00  0.00    +0.000 N 
ATOM     19  C   UNL     1      -2.175  -3.943   0.000  0.00  0.00    +0.000 C 
ATOM     20  C   UNL     1      -1.853  -4.688   0.000  0.00  0.00    +0.000 C 
ATOM     21  C   UNL     1      -1.047  -4.608   0.000  0.00  0.00    +0.000 C 
ATOM     22  C   UNL     1      -2.877  -3.540   0.000  0.00  0.00    +0.000 C 
ATOM     23  N   UNL     1      -3.576  -3.942   0.000  0.00  0.00    +0.000 NA
ATOM     24  C   UNL     1      -4.275  -3.540   0.000  0.00  0.00    +0.000 C 
ATOM     25  O   UNL     1      -2.882  -2.733   0.000  0.00  0.00    +0.000 OA
ATOM     26  C   UNL     1      -4.936  -0.615   0.000  0.00  0.00    +0.000 C 
ATOM     27  C   UNL     1      -5.635  -0.214   0.000  0.00  0.00    +0.000 C 
ATOM     28  O   UNL     1      -4.940  -1.427   0.000  0.00  0.00    +0.000 OA
ATOM     29  O   UNL     1      -2.300   1.632   0.000  0.00  0.00    +0.000 OA
ATOM     30  O   UNL     1      -0.802   1.565   0.000  0.00  0.00    +0.000 OA
ATOM     31  O   UNL     1      -0.350  -5.013   0.000  0.00  0.00    +0.000 OA
ATOM     32  C   UNL     1      -4.279  -2.733   0.000  0.00  0.00    +0.000 C 
ATOM     33  N   UNL     1      -5.639  -1.813   0.000  0.00  0.00    +0.000 NA
ATOM     34  O   UNL     1      -3.580  -2.323   0.000  0.00  0.00    +0.000 OA
ATOM     35  O   UNL     1      -2.842  -1.013   0.000  0.00  0.00    +0.000 OA
ATOM     36  O   UNL     1      -2.262  -2.193   0.000  0.00  0.00    +0.000 OA
ATOM     37  O   UNL     1      -3.210   1.670   0.000  0.00  0.00    +0.000 OA
ATOM     38  C   UNL     1      -5.007   1.783   0.000  0.00  0.00    +0.000 C 
ENDROOT
BRANCH  15  39
ATOM     39  C   UNL     1      -0.163  -2.615   0.000  0.00  0.00    +0.000 C 
ATOM     40  O   UNL     1      -0.168  -3.425   0.000  0.00  0.00    +0.000 OA
ATOM     41  C   UNL     1       0.558  -2.207   0.000  0.00  0.00    +0.000 C 
ENDBRANCH  15  39
BRANCH  27  42
ATOM     42  C   UNL     1      -6.330  -0.615   0.000  0.00  0.00    +0.000 C 
ATOM     43  C   UNL     1      -7.047  -0.202   0.000  0.00  0.00    +0.000 C 
ATOM     44  O   UNL     1      -6.329  -1.444   0.000  0.00  0.00    +0.000 OA
ENDBRANCH  27  42
BRANCH  11  45
ATOM     45  N   UNL     1       0.575   0.218   0.000  0.00  0.00    +0.000 NA
ATOM     46  C   UNL     1       1.290  -0.199   0.000  0.00  0.00    +0.000 C 
ATOM     47  O   UNL     1       1.286  -1.028   0.000  0.00  0.00    +0.000 OA
BRANCH  46  48
ATOM     48  C   UNL     1       2.009   0.212   0.000  0.00  0.00    +0.000 A 
ATOM     49  C   UNL     1       2.724  -0.208   0.000  0.00  0.00    +0.000 A 
ATOM     50  C   UNL     1       3.442   0.203   0.000  0.00  0.00    +0.000 A 
ATOM     51  C   UNL     1       3.446   1.032   0.000  0.00  0.00    +0.000 A 
ATOM     52  C   UNL     1       2.726   1.449   0.000  0.00  0.00    +0.000 A 
ATOM     53  C   UNL     1       2.010   1.037   0.000  0.00  0.00    +0.000 A 
BRANCH  51  54
ATOM     54  C   UNL     1       4.161   1.444   0.000  0.00  0.00    +0.000 A 
ATOM     55  C   UNL     1       4.878   1.026   0.000  0.00  0.00    +0.000 A 
ATOM     56  C   UNL     1       5.596   1.437   0.000  0.00  0.00    +0.000 A 
ATOM     57  C   UNL     1       5.599   2.266   0.000  0.00  0.00    +0.000 A 
ATOM     58  C   UNL     1       4.878   2.683   0.000  0.00  0.00    +0.000 A 
ATOM     59  C   UNL     1       4.162   2.269   0.000  0.00  0.00    +0.000 A 
BRANCH  57  60
ATOM     60  C   UNL     1       6.317   2.675   0.000  0.00  0.00    +0.000 A 
ATOM     61  C   UNL     1       7.034   2.258   0.000  0.00  0.00    +0.000 A 
ATOM     62  C   UNL     1       7.752   2.671   0.000  0.00  0.00    +0.000 A 
ATOM     63  C   UNL     1       7.753   3.500   0.000  0.00  0.00    +0.000 A 
ATOM     64  C   UNL     1       7.032   3.915   0.000  0.00  0.00    +0.000 A 
ATOM     65  C   UNL     1       6.317   3.501   0.000  0.00  0.00    +0.000 A 
BRANCH  63  66
ATOM     66  O   UNL     1       8.468   3.922   0.000  0.00  0.00    +0.000 OA
BRANCH  66  67
ATOM     67  C   UNL     1       8.451   4.751   0.000  0.00  0.00    +0.000 C 
BRANCH  67  68
ATOM     68  C   UNL     1       7.726   5.151   0.000  0.00  0.00    +0.000 C 
BRANCH  68  69
ATOM     69  C   UNL     1       7.017   4.723   0.000  0.00  0.00    +0.000 C 
BRANCH  69  70
ATOM     70  C   UNL     1       6.291   5.123   0.000  0.00  0.00    +0.000 C 
ATOM     71  C   UNL     1       5.582   4.694   0.000  0.00  0.00    +0.000 C 
ENDBRANCH  69  70
ENDBRANCH  68  69
ENDBRANCH  67  68
ENDBRANCH  66  67
ENDBRANCH  63  66
ENDBRANCH  57  60
ENDBRANCH  51  54
ENDBRANCH  46  48
ENDBRANCH  11  45
BRANCH  24  72
ATOM     72  C   UNL     1      -4.974  -3.942   0.000  0.00  0.00    +0.000 C 
ATOM     73  O   UNL     1      -4.978  -4.750   0.000  0.00  0.00    +0.000 OA
BRANCH  72  74
ATOM     74  C   UNL     1      -5.668  -3.540   0.000  0.00  0.00    +0.000 C 
ATOM     75  O   UNL     1      -5.673  -2.733   0.000  0.00  0.00    +0.000 OA
BRANCH  74  76
ATOM     76  C   UNL     1      -6.367  -3.942   0.000  0.00  0.00    +0.000 A 
ATOM     77  C   UNL     1      -7.067  -3.540   0.000  0.00  0.00    +0.000 A 
ATOM     78  C   UNL     1      -7.772  -3.938   0.000  0.00  0.00    +0.000 A 
ATOM     79  C   UNL     1      -7.775  -4.748   0.000  0.00  0.00    +0.000 A 
ATOM     80  C   UNL     1      -7.067  -5.151   0.000  0.00  0.00    +0.000 A 
ATOM     81  C   UNL     1      -6.364  -4.751   0.000  0.00  0.00    +0.000 A 
ATOM     82  O   UNL     1      -8.468  -5.143   0.000  0.00  0.00    +0.000 OA
ENDBRANCH  74  76
ENDBRANCH  72  74
ENDBRANCH  24  72
TORSDOF 14
