REMARK  Name = 
REMARK  11 active torsions:
REMARK  status: ('A' for Active; 'I' for Inactive)
REMARK    1  A    between atoms: S_1  and  N_7
REMARK    2  A    between atoms: S_1  and  C_27
REMARK    3  A    between atoms: N_6  and  C_16
REMARK    4  A    between atoms: N_7  and  C_21
REMARK    5  A    between atoms: C_9  and  C_10
REMARK    6  A    between atoms: C_9  and  C_12
REMARK    7  A    between atoms: C_9  and  C_13
REMARK    8  A    between atoms: C_10  and  C_11
REMARK    9  A    between atoms: C_16  and  C_18
REMARK   10  A    between atoms: C_18  and  C_21
REMARK   11  A    between atoms: C_20  and  C_24
REMARK                            x       y       z     vdW  Elec       q    Type
REMARK                         _______ _______ _______ _____ _____    ______ ____
ROOT
ATOM      1  O   UNL     1       0.357  -1.031   0.000  0.00  0.00    +0.000 OA
ATOM      2  N   UNL     1      -0.357   0.206   0.000  0.00  0.00    +0.000 N 
ATOM      3  C   UNL     1      -0.357  -0.619   0.000  0.00  0.00    +0.000 C 
ATOM      4  H   UNL     1      -0.800   0.462   0.000  0.00  0.00    +0.000 HD
ENDROOT
BRANCH   3   5
ATOM      5  C   UNL     1      -1.072  -1.031   0.000  0.00  0.00    +0.000 C 
BRANCH   5   6
ATOM      6  C   UNL     1      -1.072  -1.856   0.000  0.00  0.00    +0.000 A 
ATOM      7  C   UNL     1      -1.786  -2.269   0.000  0.00  0.00    +0.000 A 
ATOM      8  C   UNL     1      -0.357  -2.269   0.000  0.00  0.00    +0.000 A 
ATOM      9  C   UNL     1      -1.786  -3.094   0.000  0.00  0.00    +0.000 A 
ATOM     10  C   UNL     1      -0.357  -3.094   0.000  0.00  0.00    +0.000 A 
ATOM     11  C   UNL     1      -1.072  -3.506   0.000  0.00  0.00    +0.000 A 
BRANCH   9  12
ATOM     12  C   UNL     1      -2.501  -3.506   0.000  0.00  0.00    +0.000 A 
ATOM     13  C   UNL     1      -2.501  -4.331   0.000  0.00  0.00    +0.000 A 
ATOM     14  C   UNL     1      -3.215  -3.094   0.000  0.00  0.00    +0.000 A 
ATOM     15  C   UNL     1      -3.215  -4.744   0.000  0.00  0.00    +0.000 A 
ATOM     16  C   UNL     1      -3.930  -3.506   0.000  0.00  0.00    +0.000 A 
ATOM     17  C   UNL     1      -3.930  -4.331   0.000  0.00  0.00    +0.000 A 
ENDBRANCH   9  12
ENDBRANCH   5   6
BRANCH   5  18
ATOM     18  C   UNL     1      -1.786  -0.619   0.000  0.00  0.00    +0.000 C 
BRANCH  18  19
ATOM     19  C   UNL     1      -2.501  -1.031   0.000  0.00  0.00    +0.000 C 
ATOM     20  C   UNL     1      -3.215  -0.619   0.000  0.00  0.00    +0.000 C 
ATOM     21  C   UNL     1      -2.501  -1.856   0.000  0.00  0.00    +0.000 C 
ENDBRANCH  18  19
ENDBRANCH   5  18
ENDBRANCH   3   5
BRANCH   2  22
ATOM     22  C   UNL     1       0.357   0.619   0.000  0.00  0.00    +0.000 C 
BRANCH  22  24
ATOM     23  O   UNL     1      -0.357   1.856   0.000  0.00  0.00    +0.000 OA
ATOM     24  C   UNL     1       0.357   1.444   0.000  0.00  0.00    +0.000 C 
BRANCH  24  25
ATOM     25  C   UNL     1       1.072   1.856   0.000  0.00  0.00    +0.000 C 
BRANCH  25  26
ATOM     26  N   UNL     1       1.072   2.681   0.000  0.00  0.00    +0.000 NA
ATOM     27  H   UNL     1       0.629   2.937   0.000  0.00  0.00    +0.000 HD
BRANCH  26  28
ATOM     28  S   UNL     1       1.786   3.094   0.000  0.00  0.00    +0.000 S 
ATOM     29  O   UNL     1       2.199   2.379   0.000  0.00  0.00    +0.000 OA
ATOM     30  O   UNL     1       1.374   3.808   0.000  0.00  0.00    +0.000 OA
BRANCH  28  32
ATOM     31  N   UNL     1       2.501   4.331   0.000  0.00  0.00    +0.000 NA
ATOM     32  C   UNL     1       2.501   3.506   0.000  0.00  0.00    +0.000 A 
ATOM     33  C   UNL     1       3.215   3.094   0.000  0.00  0.00    +0.000 A 
ATOM     34  C   UNL     1       3.930   3.506   0.000  0.00  0.00    +0.000 A 
ATOM     35  C   UNL     1       3.215   4.744   0.000  0.00  0.00    +0.000 A 
ATOM     36  C   UNL     1       3.930   4.331   0.000  0.00  0.00    +0.000 A 
ENDBRANCH  28  32
ENDBRANCH  26  28
ENDBRANCH  25  26
ENDBRANCH  24  25
ENDBRANCH  22  24
ENDBRANCH   2  22
TORSDOF 11
