REMARK  Name = 
REMARK  4 active torsions:
REMARK  status: ('A' for Active; 'I' for Inactive)
REMARK    1  A    between atoms: C_4  and  C_7
REMARK    2  A    between atoms: C_8  and  C_9
REMARK    3  A    between atoms: C_12  and  C_15
REMARK    4  A    between atoms: C_17  and  C_22
REMARK                            x       y       z     vdW  Elec       q    Type
REMARK                         _______ _______ _______ _____ _____    ______ ____
ROOT
ATOM      1  C   UNL     1       2.582  -8.634   0.000  0.00  0.00    +0.000 A 
ATOM      2  C   UNL     1       3.402  -8.548   0.000  0.00  0.00    +0.000 A 
ATOM      3  C   UNL     1       3.887  -9.216   0.000  0.00  0.00    +0.000 A 
ATOM      4  C   UNL     1       3.552  -9.969   0.000  0.00  0.00    +0.000 A 
ATOM      5  N   UNL     1       2.731 -10.056   0.000  0.00  0.00    +0.000 NA
ATOM      6  C   UNL     1       2.246  -9.388   0.000  0.00  0.00    +0.000 A 
ENDROOT
BRANCH   4   7
ATOM      7  C   UNL     1       4.037 -10.637   0.000  0.00  0.00    +0.000 A 
ATOM      8  C   UNL     1       4.857 -10.550   0.000  0.00  0.00    +0.000 A 
ATOM      9  C   UNL     1       5.342 -11.218   0.000  0.00  0.00    +0.000 A 
ATOM     10  C   UNL     1       5.006 -11.972   0.000  0.00  0.00    +0.000 A 
ATOM     11  C   UNL     1       4.186 -12.058   0.000  0.00  0.00    +0.000 A 
ATOM     12  F   UNL     1       3.850 -12.812   0.000  0.00  0.00    +0.000 F 
ATOM     13  C   UNL     1       3.701 -11.390   0.000  0.00  0.00    +0.000 A 
BRANCH   9  14
ATOM     14  C   UNL     1       6.162 -11.132   0.000  0.00  0.00    +0.000 C 
ATOM     15  N   UNL     1       6.983 -11.045   0.000  0.00  0.00    +0.000 NA
ENDBRANCH   9  14
ENDBRANCH   4   7
BRANCH   1  17
ATOM     16  C   UNL     1       1.612  -7.300   0.000  0.00  0.00    +0.000 C 
ATOM     17  C   UNL     1       2.097  -7.967   0.000  0.00  0.00    +0.000 C 
BRANCH  16  21
ATOM     18  C   UNL     1       0.715  -4.537   0.000  0.00  0.00    +0.000 C 
ATOM     19  C   UNL     1       0.715  -5.362   0.000  0.00  0.00    +0.000 A 
ATOM     20  N   UNL     1       1.382  -5.847   0.000  0.00  0.00    +0.000 NA
ATOM     21  C   UNL     1       1.127  -6.632   0.000  0.00  0.00    +0.000 A 
ATOM     22  C   UNL     1       0.302  -6.632   0.000  0.00  0.00    +0.000 A 
ATOM     23  S   UNL     1       0.047  -5.847   0.000  0.00  0.00    +0.000 S 
ENDBRANCH  16  21
ENDBRANCH   1  17
TORSDOF 4
