REMARK  Name = 
REMARK  4 active torsions:
REMARK  status: ('A' for Active; 'I' for Inactive)
REMARK    1  A    between atoms: N_2  and  C_3
REMARK    2  A    between atoms: C_3  and  C_4
REMARK    3  A    between atoms: C_4  and  C_5
REMARK    4  A    between atoms: C_4  and  O_7
REMARK                            x       y       z     vdW  Elec       q    Type
REMARK                         _______ _______ _______ _____ _____    ______ ____
ROOT
ATOM      1  C   UNL     1      -1.036   0.415   0.000  0.00  0.00    +0.000 C 
ENDROOT
BRANCH   1   3
ATOM      2  C   UNL     1      -2.478   0.401   0.000  0.00  0.00    +0.000 C 
ATOM      3  N   UNL     1      -1.769  -0.011   0.000  0.00  0.00    +0.000 NA
ATOM      4  O   UNL     1      -2.478   1.226   0.000  0.00  0.00    +0.000 OA
ATOM      5  N   UNL     1      -3.178  -0.011   0.000  0.00  0.00    +0.000 NA
ENDBRANCH   1   3
BRANCH   1   6
ATOM      6  C   UNL     1      -0.327   0.011   0.000  0.00  0.00    +0.000 C 
BRANCH   6   7
ATOM      7  C   UNL     1      -0.327  -0.814   0.000  0.00  0.00    +0.000 C 
ATOM      8 HG   UNL     1       0.391  -1.226   0.000  0.00  0.00    +0.000 Hg
ENDBRANCH   6   7
BRANCH   6   9
ATOM      9  O   UNL     1       0.386   0.443   0.000  0.00  0.00    +0.000 OA
ATOM     10  C   UNL     1       1.123   0.025   0.000  0.00  0.00    +0.000 C 
ENDBRANCH   6   9
ENDBRANCH   1   6
TORSDOF 4
REMARK  Name = 
REMARK  4 active torsions:
REMARK  status: ('A' for Active; 'I' for Inactive)
REMARK    1  A    between atoms: N_2  and  C_3
REMARK    2  A    between atoms: C_3  and  C_4
REMARK    3  A    between atoms: C_4  and  C_5
REMARK    4  A    between atoms: C_4  and  O_7
REMARK                            x       y       z     vdW  Elec       q    Type
REMARK                         _______ _______ _______ _____ _____    ______ ____
ROOT
ATOM      1 CL   UNL     1       3.178  -1.060   0.000  0.00  0.00    +0.000 Cl
ENDROOT
TORSDOF 0
