REMARK  Name = 
REMARK  6 active torsions:
REMARK  status: ('A' for Active; 'I' for Inactive)
REMARK    1  A    between atoms: C_1  and  C_15
REMARK    2  A    between atoms: C_5  and  O_7
REMARK    3  A    between atoms: O_7  and  C_8
REMARK    4  A    between atoms: C_10  and  O_14
REMARK    5  A    between atoms: O_14  and  C_21
REMARK    6  A    between atoms: C_23  and  C_27
REMARK                            x       y       z     vdW  Elec       q    Type
REMARK                         _______ _______ _______ _____ _____    ______ ____
ROOT
ATOM      1  C   UNL     1       1.100   0.825   0.000  0.00  0.00    +0.000 C 
ATOM      2  C   UNL     1       0.385   0.412   0.000  0.00  0.00    +0.000 C 
ATOM      3  C   UNL     1       0.385  -0.412   0.000  0.00  0.00    +0.000 C 
ATOM      4  C   UNL     1       1.072  -0.825   0.000  0.00  0.00    +0.000 C 
ATOM      5  C   UNL     1       1.787  -0.412   0.000  0.00  0.00    +0.000 C 
ATOM      6  C   UNL     1       1.787   0.412   0.000  0.00  0.00    +0.000 C 
ATOM      7  N   UNL     1       2.502   0.825   0.000  0.00  0.00    +0.000 NA
ATOM      8  N   UNL     1       1.072  -1.650   0.000  0.00  0.00    +0.000 NA
ATOM      9  O   UNL     1      -0.330   0.825   0.000  0.00  0.00    +0.000 OA
ENDROOT
BRANCH   1  10
ATOM     10  O   UNL     1       1.100   1.650   0.000  0.00  0.00    +0.000 OA
BRANCH  10  15
ATOM     11  C   UNL     1       3.217   2.062   0.000  0.00  0.00    +0.000 C 
ATOM     12  C   UNL     1       3.217   2.887   0.000  0.00  0.00    +0.000 C 
ATOM     13  C   UNL     1       2.502   3.300   0.000  0.00  0.00    +0.000 C 
ATOM     14  C   UNL     1       1.815   2.887   0.000  0.00  0.00    +0.000 C 
ATOM     15  C   UNL     1       1.815   2.062   0.000  0.00  0.00    +0.000 C 
ATOM     16  O   UNL     1       2.502   1.650   0.000  0.00  0.00    +0.000 OA
ATOM     17  N   UNL     1       1.100   3.300   0.000  0.00  0.00    +0.000 NA
BRANCH  11  18
ATOM     18  C   UNL     1       3.932   1.650   0.000  0.00  0.00    +0.000 C 
ATOM     19  N   UNL     1       3.932   0.825   0.000  0.00  0.00    +0.000 NA
ENDBRANCH  11  18
ENDBRANCH  10  15
ENDBRANCH   1  10
BRANCH   3  20
ATOM     20  O   UNL     1      -0.330  -0.825   0.000  0.00  0.00    +0.000 OA
BRANCH  20  21
ATOM     21  C   UNL     1      -1.072  -1.237   0.000  0.00  0.00    +0.000 C 
ATOM     22  O   UNL     1      -1.760  -0.825   0.000  0.00  0.00    +0.000 OA
ATOM     23  C   UNL     1      -2.502  -1.237   0.000  0.00  0.00    +0.000 C 
ATOM     24  C   UNL     1      -2.502  -2.062   0.000  0.00  0.00    +0.000 C 
ATOM     25  C   UNL     1      -1.787  -2.475   0.000  0.00  0.00    +0.000 C 
ATOM     26  C   UNL     1      -1.072  -2.062   0.000  0.00  0.00    +0.000 C 
ATOM     27  O   UNL     1      -3.217  -2.447   0.000  0.00  0.00    +0.000 OA
ATOM     28  N   UNL     1      -1.787  -3.300   0.000  0.00  0.00    +0.000 NA
ATOM     29  O   UNL     1      -0.357  -2.475   0.000  0.00  0.00    +0.000 OA
BRANCH  23  30
ATOM     30  C   UNL     1      -3.190  -0.797   0.000  0.00  0.00    +0.000 C 
ATOM     31  O   UNL     1      -3.932  -1.210   0.000  0.00  0.00    +0.000 OA
ENDBRANCH  23  30
ENDBRANCH  20  21
ENDBRANCH   3  20
TORSDOF 6
