REMARK  Name = 
REMARK  6 active torsions:
REMARK  status: ('A' for Active; 'I' for Inactive)
REMARK    1  A    between atoms: C_1  and  C_7
REMARK    2  A    between atoms: N_11  and  C_13
REMARK    3  A    between atoms: C_13  and  C_14
REMARK    4  A    between atoms: C_14  and  N_15
REMARK    5  A    between atoms: N_15  and  C_16
REMARK    6  A    between atoms: N_15  and  C_17
REMARK                            x       y       z     vdW  Elec       q    Type
REMARK                         _______ _______ _______ _____ _____    ______ ____
ROOT
ATOM      1  C   UNL     1      -1.508  -0.126   0.000  0.00  0.00    +0.000 A 
ATOM      2  N   UNL     1      -2.290  -0.380   0.000  0.00  0.00    +0.000 NA
ATOM      3  O   UNL     1      -2.290  -1.202   0.000  0.00  0.00    +0.000 OA
ATOM      4  C   UNL     1      -1.508  -1.456   0.000  0.00  0.00    +0.000 A 
ATOM      5  N   UNL     1      -1.025  -0.791   0.000  0.00  0.00    +0.000 N 
ATOM      6  N   UNL     1      -1.256  -2.230   0.000  0.00  0.00    +0.000 NA
ENDROOT
BRANCH   1   7
ATOM      7  C   UNL     1      -1.252   0.662   0.000  0.00  0.00    +0.000 A 
ATOM      8  C   UNL     1      -0.451   0.832   0.000  0.00  0.00    +0.000 A 
ATOM      9  C   UNL     1      -0.196   1.617   0.000  0.00  0.00    +0.000 A 
ATOM     10  C   UNL     1      -0.748   2.230   0.000  0.00  0.00    +0.000 A 
ATOM     11  C   UNL     1      -1.549   2.060   0.000  0.00  0.00    +0.000 A 
ATOM     12  C   UNL     1      -1.804   1.275   0.000  0.00  0.00    +0.000 A 
ENDBRANCH   1   7
BRANCH   5  13
ATOM     13  C   UNL     1      -0.185  -0.783   0.000  0.00  0.00    +0.000 C 
BRANCH  13  14
ATOM     14  C   UNL     1       0.227  -0.068   0.000  0.00  0.00    +0.000 C 
BRANCH  14  15
ATOM     15  N   UNL     1       1.052  -0.068   0.000  0.00  0.00    +0.000 NA
BRANCH  15  16
ATOM     16  C   UNL     1       1.458   0.636   0.000  0.00  0.00    +0.000 C 
ATOM     17  C   UNL     1       2.289   0.636   0.000  0.00  0.00    +0.000 C 
ENDBRANCH  15  16
BRANCH  15  18
ATOM     18  C   UNL     1       1.471  -0.793   0.000  0.00  0.00    +0.000 C 
ATOM     19  C   UNL     1       2.290  -0.792   0.000  0.00  0.00    +0.000 C 
ENDBRANCH  15  18
ENDBRANCH  14  15
ENDBRANCH  13  14
ENDBRANCH   5  13
TORSDOF 6
