REMARK  Name = 
REMARK  4 active torsions:
REMARK  status: ('A' for Active; 'I' for Inactive)
REMARK    1  A    between atoms: O_2  and  C_3
REMARK    2  A    between atoms: C_5  and  C_13
REMARK    3  A    between atoms: C_7  and  O_11
REMARK    4  A    between atoms: C_8  and  O_9
REMARK                            x       y       z     vdW  Elec       q    Type
REMARK                         _______ _______ _______ _____ _____    ______ ____
ROOT
ATOM      1  C   UNL     1       3.352  -1.110   0.000  0.00  0.00    +0.000 C 
ATOM      2  C   UNL     1       4.067  -1.523   0.000  0.00  0.00    +0.000 A 
ATOM      3  C   UNL     1       4.781  -1.110   0.000  0.00  0.00    +0.000 A 
ATOM      4  C   UNL     1       5.496  -1.523   0.000  0.00  0.00    +0.000 A 
ATOM      5  C   UNL     1       5.496  -2.348   0.000  0.00  0.00    +0.000 A 
ATOM      6  C   UNL     1       4.781  -2.760   0.000  0.00  0.00    +0.000 A 
ATOM      7  C   UNL     1       4.067  -2.348   0.000  0.00  0.00    +0.000 A 
ATOM      8  C   UNL     1       3.352  -2.760   0.000  0.00  0.00    +0.000 C 
ATOM      9  C   UNL     1       2.638  -2.348   0.000  0.00  0.00    +0.000 C 
ATOM     10  C   UNL     1       2.638  -1.523   0.000  0.00  0.00    +0.000 C 
ATOM     11  C   UNL     1       1.853  -1.268   0.000  0.00  0.00    +0.000 C 
ATOM     12  O   UNL     1       1.598  -0.483   0.000  0.00  0.00    +0.000 OA
ATOM     13  O   UNL     1       1.368  -1.935   0.000  0.00  0.00    +0.000 OA
ATOM     14  C   UNL     1       1.853  -2.603   0.000  0.00  0.00    +0.000 C 
ATOM     15  O   UNL     1       3.352  -3.585   0.000  0.00  0.00    +0.000 OA
ATOM     16  O   UNL     1       6.280  -2.603   0.000  0.00  0.00    +0.000 OA
ATOM     17  C   UNL     1       6.765  -1.935   0.000  0.00  0.00    +0.000 C 
ATOM     18  O   UNL     1       6.280  -1.268   0.000  0.00  0.00    +0.000 OA
ENDROOT
BRANCH   1  21
ATOM     19  C   UNL     1       4.067   0.952   0.000  0.00  0.00    +0.000 A 
ATOM     20  C   UNL     1       4.067   0.127   0.000  0.00  0.00    +0.000 A 
ATOM     21  C   UNL     1       3.352  -0.285   0.000  0.00  0.00    +0.000 A 
ATOM     22  C   UNL     1       2.638   0.127   0.000  0.00  0.00    +0.000 A 
ATOM     23  C   UNL     1       2.638   0.952   0.000  0.00  0.00    +0.000 A 
ATOM     24  C   UNL     1       3.352   1.365   0.000  0.00  0.00    +0.000 A 
BRANCH  19  26
ATOM     25  C   UNL     1       4.781   2.190   0.000  0.00  0.00    +0.000 C 
ATOM     26  O   UNL     1       4.781   1.365   0.000  0.00  0.00    +0.000 OA
ENDBRANCH  19  26
BRANCH  24  27
ATOM     27  O   UNL     1       3.352   2.190   0.000  0.00  0.00    +0.000 OA
ATOM     28  C   UNL     1       2.638   2.602   0.000  0.00  0.00    +0.000 C 
ENDBRANCH  24  27
BRANCH  23  29
ATOM     29  O   UNL     1       1.923   1.365   0.000  0.00  0.00    +0.000 OA
ATOM     30  C   UNL     1       1.923   2.190   0.000  0.00  0.00    +0.000 C 
ENDBRANCH  23  29
ENDBRANCH   1  21
TORSDOF 4
