REMARK  Name = 
REMARK  11 active torsions:
REMARK  status: ('A' for Active; 'I' for Inactive)
REMARK    1  A    between atoms: C_9  and  C_34
REMARK    2  A    between atoms: C_11  and  N_14
REMARK    3  A    between atoms: C_15  and  C_17
REMARK    4  A    between atoms: C_17  and  C_18
REMARK    5  A    between atoms: C_17  and  C_24
REMARK    6  A    between atoms: C_18  and  C_19
REMARK    7  A    between atoms: C_19  and  C_20
REMARK    8  A    between atoms: C_24  and  C_25
REMARK    9  A    between atoms: C_24  and  C_31
REMARK   10  A    between atoms: C_25  and  C_26
REMARK   11  A    between atoms: C_26  and  C_27
REMARK                            x       y       z     vdW  Elec       q    Type
REMARK                         _______ _______ _______ _____ _____    ______ ____
ROOT
ATOM      1  N   UNL     1       2.632   0.412   0.000  0.00  0.00    +0.000 NA
ATOM      2  C   UNL     1       3.457   0.412   0.000  0.00  0.00    +0.000 C 
ATOM      3  O   UNL     1       3.870  -0.302   0.000  0.00  0.00    +0.000 OA
ENDROOT
BRANCH   1  14
ATOM      4  C   UNL     1       3.046  -2.333   0.000  0.00  0.00    +0.000 C 
ATOM      5  N   UNL     1       2.441  -1.772   0.000  0.00  0.00    +0.000 N 
ATOM      6  C   UNL     1       1.673  -2.073   0.000  0.00  0.00    +0.000 A 
ATOM      7  C   UNL     1       1.673  -2.898   0.000  0.00  0.00    +0.000 A 
ATOM      8  C   UNL     1       0.959  -3.311   0.000  0.00  0.00    +0.000 A 
ATOM      9  C   UNL     1       0.244  -2.898   0.000  0.00  0.00    +0.000 A 
ATOM     10  C   UNL     1       0.244  -2.073   0.000  0.00  0.00    +0.000 A 
ATOM     11  C   UNL     1       0.959  -1.661   0.000  0.00  0.00    +0.000 A 
ATOM     12  C   UNL     1       0.836  -0.845   0.000  0.00  0.00    +0.000 C 
ATOM     13  N   UNL     1       1.397  -0.240   0.000  0.00  0.00    +0.000 NA
ATOM     14  C   UNL     1       2.220  -0.302   0.000  0.00  0.00    +0.000 C 
ATOM     15  C   UNL     1       2.684  -0.984   0.000  0.00  0.00    +0.000 C 
ATOM     16  O   UNL     1       3.500  -0.861   0.000  0.00  0.00    +0.000 OA
BRANCH  12  17
ATOM     17  C   UNL     1       0.048  -0.602   0.000  0.00  0.00    +0.000 A 
ATOM     18  C   UNL     1      -0.557  -1.163   0.000  0.00  0.00    +0.000 A 
ATOM     19  C   UNL     1      -1.345  -0.920   0.000  0.00  0.00    +0.000 A 
ATOM     20  C   UNL     1      -1.529  -0.116   0.000  0.00  0.00    +0.000 A 
ATOM     21  C   UNL     1      -0.924   0.446   0.000  0.00  0.00    +0.000 A 
ATOM     22  C   UNL     1      -0.136   0.202   0.000  0.00  0.00    +0.000 A 
ENDBRANCH  12  17
ENDBRANCH   1  14
BRANCH   2  23
ATOM     23  C   UNL     1       3.870   1.127   0.000  0.00  0.00    +0.000 C 
BRANCH  23  24
ATOM     24  C   UNL     1       3.457   1.841   0.000  0.00  0.00    +0.000 C 
BRANCH  24  25
ATOM     25  C   UNL     1       3.870   2.556   0.000  0.00  0.00    +0.000 C 
BRANCH  25  26
ATOM     26  C   UNL     1       3.457   3.270   0.000  0.00  0.00    +0.000 C 
ATOM     27  F   UNL     1       4.172   3.683   0.000  0.00  0.00    +0.000 F 
ATOM     28  F   UNL     1       2.743   2.858   0.000  0.00  0.00    +0.000 F 
ATOM     29  F   UNL     1       3.045   3.985   0.000  0.00  0.00    +0.000 F 
ENDBRANCH  25  26
ENDBRANCH  24  25
ENDBRANCH  23  24
BRANCH  23  30
ATOM     30  C   UNL     1       4.695   1.127   0.000  0.00  0.00    +0.000 C 
BRANCH  30  31
ATOM     31  C   UNL     1       5.107   0.412   0.000  0.00  0.00    +0.000 C 
ATOM     32  O   UNL     1       5.932   0.412   0.000  0.00  0.00    +0.000 OA
ATOM     33  N   UNL     1       4.695  -0.302   0.000  0.00  0.00    +0.000 NA
ENDBRANCH  30  31
BRANCH  30  34
ATOM     34  C   UNL     1       5.107   1.841   0.000  0.00  0.00    +0.000 C 
BRANCH  34  35
ATOM     35  C   UNL     1       5.932   1.841   0.000  0.00  0.00    +0.000 C 
BRANCH  35  36
ATOM     36  C   UNL     1       6.345   2.556   0.000  0.00  0.00    +0.000 C 
ATOM     37  F   UNL     1       6.757   3.270   0.000  0.00  0.00    +0.000 F 
ATOM     38  F   UNL     1       5.630   2.968   0.000  0.00  0.00    +0.000 F 
ATOM     39  F   UNL     1       7.059   2.143   0.000  0.00  0.00    +0.000 F 
ENDBRANCH  35  36
ENDBRANCH  34  35
ENDBRANCH  30  34
ENDBRANCH  23  30
ENDBRANCH   2  23
TORSDOF 11
