REMARK  Name = 
REMARK  5 active torsions:
REMARK  status: ('A' for Active; 'I' for Inactive)
REMARK    1  A    between atoms: O_2  and  C_3
REMARK    2  A    between atoms: C_6  and  C_9
REMARK    3  A    between atoms: C_9  and  C_11
REMARK    4  A    between atoms: C_17  and  C_19
REMARK    5  A    between atoms: C_27  and  N_29
REMARK                            x       y       z     vdW  Elec       q    Type
REMARK                         _______ _______ _______ _____ _____    ______ ____
ROOT
ATOM      1  C   UNL     1      -0.715   2.062   0.000  0.00  0.00    +0.000 A 
ATOM      2  C   UNL     1       0.000   2.475   0.000  0.00  0.00    +0.000 A 
ATOM      3 CL   UNL     1       0.000   3.300   0.000  0.00  0.00    +0.000 Cl
ATOM      4  C   UNL     1       0.715   2.062   0.000  0.00  0.00    +0.000 A 
ATOM      5  C   UNL     1       0.715   1.238   0.000  0.00  0.00    +0.000 A 
ATOM      6  F   UNL     1       1.429   0.825   0.000  0.00  0.00    +0.000 F 
ATOM      7  C   UNL     1       0.000   0.825   0.000  0.00  0.00    +0.000 A 
ATOM      8  C   UNL     1      -0.715   1.238   0.000  0.00  0.00    +0.000 A 
ENDROOT
BRANCH   7   9
ATOM      9  C   UNL     1       0.000   0.000   0.000  0.00  0.00    +0.000 A 
ATOM     10  N   UNL     1      -0.715  -0.412   0.000  0.00  0.00    +0.000 NA
ATOM     11  C   UNL     1      -0.715  -1.238   0.000  0.00  0.00    +0.000 A 
ATOM     12  N   UNL     1       0.000  -1.650   0.000  0.00  0.00    +0.000 NA
ATOM     13  C   UNL     1       0.715  -1.238   0.000  0.00  0.00    +0.000 A 
ATOM     14  C   UNL     1       0.715  -0.412   0.000  0.00  0.00    +0.000 A 
ATOM     15  C   UNL     1       1.429   0.000   0.000  0.00  0.00    +0.000 A 
ATOM     16  C   UNL     1       2.143  -0.412   0.000  0.00  0.00    +0.000 A 
ATOM     17  C   UNL     1       2.143  -1.238   0.000  0.00  0.00    +0.000 A 
ATOM     18  C   UNL     1       1.429  -1.650   0.000  0.00  0.00    +0.000 A 
BRANCH  17  19
ATOM     19  N   UNL     1       2.858  -1.650   0.000  0.00  0.00    +0.000 N 
ATOM     20  C   UNL     1       3.572  -1.238   0.000  0.00  0.00    +0.000 C 
ATOM     21  C   UNL     1       4.287  -1.650   0.000  0.00  0.00    +0.000 C 
ATOM     22  O   UNL     1       4.287  -2.475   0.000  0.00  0.00    +0.000 OA
ATOM     23  C   UNL     1       3.572  -2.888   0.000  0.00  0.00    +0.000 C 
ATOM     24  C   UNL     1       2.858  -2.475   0.000  0.00  0.00    +0.000 C 
ENDBRANCH  17  19
ENDBRANCH   7   9
BRANCH   1  25
ATOM     25  C   UNL     1      -1.429   2.475   0.000  0.00  0.00    +0.000 C 
ATOM     26  O   UNL     1      -2.143   2.062   0.000  0.00  0.00    +0.000 OA
BRANCH  25  30
ATOM     27  C   UNL     1      -1.429   4.950   0.000  0.00  0.00    +0.000 A 
ATOM     28  N   UNL     1      -0.715   4.537   0.000  0.00  0.00    +0.000 NA
ATOM     29  N   UNL     1      -0.715   3.712   0.000  0.00  0.00    +0.000 NA
ATOM     30  C   UNL     1      -1.429   3.300   0.000  0.00  0.00    +0.000 A 
ATOM     31  C   UNL     1      -2.143   3.712   0.000  0.00  0.00    +0.000 A 
ATOM     32  C   UNL     1      -2.143   4.537   0.000  0.00  0.00    +0.000 A 
BRANCH  27  34
ATOM     33  C   UNL     1      -2.143   6.188   0.000  0.00  0.00    +0.000 C 
ATOM     34  O   UNL     1      -1.429   5.775   0.000  0.00  0.00    +0.000 OA
ENDBRANCH  27  34
ENDBRANCH  25  30
ENDBRANCH   1  25
TORSDOF 5
