REMARK  Name = 
REMARK  9 active torsions:
REMARK  status: ('A' for Active; 'I' for Inactive)
REMARK    1  A    between atoms: C_1  and  C_5
REMARK    2  A    between atoms: CA_4  and  C_7
REMARK    3  A    between atoms: C_5  and  S_6
REMARK    4  A    between atoms: S_6  and  C_15
REMARK    5  A    between atoms: CA_12  and  N_14
REMARK    6  A    between atoms: C_22  and  C_23
REMARK    7  A    between atoms: C_23  and  O_25
REMARK    8  A    between atoms: C_23  and  C_26
REMARK    9  A    between atoms: O_25  and  C_32
REMARK                            x       y       z     vdW  Elec       q    Type
REMARK                         _______ _______ _______ _____ _____    ______ ____
ROOT
ATOM      1  C   UNL     1       1.457   1.014   0.000  0.00  0.00    +0.000 C 
ATOM      2  C   UNL     1       1.457   0.190   0.000  0.00  0.00    +0.000 C 
ATOM      3  S   UNL     1       0.745  -0.219   0.000  0.00  0.00    +0.000 S 
ATOM      4  CA  UNL     1       0.745   1.431   0.000  0.00  0.00    +0.000 C 
ATOM      5  N   UNL     1       0.033   1.014   0.000  0.00  0.00    +0.000 N 
ATOM      6  C   UNL     1       0.036   0.190   0.000  0.00  0.00    +0.000 C 
ATOM      7  CA  UNL     1      -0.787   0.185   0.000  0.00  0.00    +0.000 C 
ATOM      8  C   UNL     1      -0.792   1.011   0.000  0.00  0.00    +0.000 C 
ATOM      9  O   UNL     1      -1.378   1.592   0.000  0.00  0.00    +0.000 OA
ENDROOT
BRANCH   4  10
ATOM     10  C   UNL     1       0.747   2.257   0.000  0.00  0.00    +0.000 C 
ATOM     11  O   UNL     1       0.032   2.670   0.000  0.00  0.00    +0.000 OA
ATOM     12  OXT UNL     1       1.461   2.670   0.000  0.00  0.00    +0.000 OA
ENDBRANCH   4  10
BRANCH   7  13
ATOM     13  N   UNL     1      -1.201  -0.528   0.000  0.00  0.00    +0.000 NA
ATOM     14  C   UNL     1      -2.026  -0.527   0.000  0.00  0.00    +0.000 C 
ATOM     15  O   UNL     1      -2.438   0.188   0.000  0.00  0.00    +0.000 OA
BRANCH  14  16
ATOM     16  C   UNL     1      -2.440  -1.241   0.000  0.00  0.00    +0.000 C 
BRANCH  16  17
ATOM     17  C   UNL     1      -3.265  -1.239   0.000  0.00  0.00    +0.000 A 
ATOM     18  C   UNL     1      -3.674  -1.956   0.000  0.00  0.00    +0.000 A 
ATOM     19  C   UNL     1      -4.499  -1.955   0.000  0.00  0.00    +0.000 A 
ATOM     20  C   UNL     1      -4.910  -1.239   0.000  0.00  0.00    +0.000 A 
ATOM     21  C   UNL     1      -4.492  -0.523   0.000  0.00  0.00    +0.000 A 
ATOM     22  C   UNL     1      -3.670  -0.527   0.000  0.00  0.00    +0.000 A 
ENDBRANCH  16  17
BRANCH  16  23
ATOM     23  O   UNL     1      -2.029  -1.956   0.000  0.00  0.00    +0.000 OA
BRANCH  23  24
ATOM     24  C   UNL     1      -2.443  -2.670   0.000  0.00  0.00    +0.000 C 
ATOM     25  O   UNL     1      -3.268  -2.668   0.000  0.00  0.00    +0.000 OA
ENDBRANCH  23  24
ENDBRANCH  16  23
ENDBRANCH  14  16
ENDBRANCH   7  13
BRANCH   1  26
ATOM     26  C   UNL     1       2.172   1.425   0.000  0.00  0.00    +0.000 C 
BRANCH  26  27
ATOM     27  S   UNL     1       2.886   1.010   0.000  0.00  0.00    +0.000 S 
BRANCH  27  28
ATOM     28  C   UNL     1       3.601   1.421   0.000  0.00  0.00    +0.000 A 
ATOM     29  N   UNL     1       3.693   2.244   0.000  0.00  0.00    +0.000 NA
ATOM     30  N   UNL     1       4.500   2.413   0.000  0.00  0.00    +0.000 NA
ATOM     31  N   UNL     1       4.911   1.697   0.000  0.00  0.00    +0.000 NA
ATOM     32  N   UNL     1       4.357   1.086   0.000  0.00  0.00    +0.000 N 
ATOM     33  C   UNL     1       4.527   0.279   0.000  0.00  0.00    +0.000 C 
ENDBRANCH  27  28
ENDBRANCH  26  27
ENDBRANCH   1  26
TORSDOF 9
