REMARK  Name = 
REMARK  8 active torsions:
REMARK  status: ('A' for Active; 'I' for Inactive)
REMARK    1  A    between atoms: C_5  and  C_7
REMARK    2  A    between atoms: C_7  and  C_9
REMARK    3  A    between atoms: C_14  and  C_15
REMARK    4  A    between atoms: C_16  and  C_35
REMARK    5  A    between atoms: N_17  and  C_20
REMARK    6  A    between atoms: C_20  and  C_21
REMARK    7  A    between atoms: C_23  and  C_31
REMARK    8  A    between atoms: C_25  and  C_27
REMARK                            x       y       z     vdW  Elec       q    Type
REMARK                         _______ _______ _______ _____ _____    ______ ____
ROOT
ATOM      1  C   UNL     1       0.715  -1.238   0.000  0.00  0.00    +0.000 A 
ATOM      2  C   UNL     1       1.382  -1.722   0.000  0.00  0.00    +0.000 A 
ATOM      3  N   UNL     1       1.127  -2.507   0.000  0.00  0.00    +0.000 N 
ATOM      4  N   UNL     1       0.302  -2.507   0.000  0.00  0.00    +0.000 NA
ATOM      5  N   UNL     1       0.047  -1.722   0.000  0.00  0.00    +0.000 NA
ENDROOT
BRANCH   2   6
ATOM      6  C   UNL     1       2.167  -1.468   0.000  0.00  0.00    +0.000 A 
ATOM      7  C   UNL     1       2.338  -0.660   0.000  0.00  0.00    +0.000 A 
ATOM      8  C   UNL     1       3.123  -0.406   0.000  0.00  0.00    +0.000 A 
ATOM      9  N   UNL     1       3.736  -0.958   0.000  0.00  0.00    +0.000 NA
ATOM     10  C   UNL     1       3.564  -1.765   0.000  0.00  0.00    +0.000 A 
ATOM     11  C   UNL     1       2.780  -2.019   0.000  0.00  0.00    +0.000 A 
ENDBRANCH   2   6
BRANCH   1  17
ATOM     12  C   UNL     1       0.000   0.000   0.000  0.00  0.00    +0.000 A 
ATOM     13  C   UNL     1       0.000   0.825   0.000  0.00  0.00    +0.000 A 
ATOM     14  C   UNL     1       0.715   1.238   0.000  0.00  0.00    +0.000 A 
ATOM     15  C   UNL     1       1.429   0.825   0.000  0.00  0.00    +0.000 A 
ATOM     16  N   UNL     1       1.429   0.000   0.000  0.00  0.00    +0.000 NA
ATOM     17  C   UNL     1       0.715  -0.412   0.000  0.00  0.00    +0.000 A 
BRANCH  12  18
ATOM     18  C   UNL     1      -0.715  -0.412   0.000  0.00  0.00    +0.000 C 
ATOM     19  O   UNL     1      -0.715  -1.238   0.000  0.00  0.00    +0.000 OA
BRANCH  18  24
ATOM     20  C   UNL     1      -2.858   0.000   0.000  0.00  0.00    +0.000 A 
ATOM     21  C   UNL     1      -2.858   0.825   0.000  0.00  0.00    +0.000 A 
ATOM     22  C   UNL     1      -2.143   1.238   0.000  0.00  0.00    +0.000 A 
ATOM     23  C   UNL     1      -1.429   0.825   0.000  0.00  0.00    +0.000 A 
ATOM     24  C   UNL     1      -1.429   0.000   0.000  0.00  0.00    +0.000 A 
ATOM     25  C   UNL     1      -2.143  -0.412   0.000  0.00  0.00    +0.000 A 
ATOM     26 CL   UNL     1      -0.715   1.238   0.000  0.00  0.00    +0.000 Cl
ENDBRANCH  18  24
ENDBRANCH  12  18
ENDBRANCH   1  17
BRANCH   3  27
ATOM     27  C   UNL     1       1.612  -3.175   0.000  0.00  0.00    +0.000 C 
BRANCH  27  28
ATOM     28  C   UNL     1       1.276  -3.928   0.000  0.00  0.00    +0.000 A 
ATOM     29  C   UNL     1       1.761  -4.596   0.000  0.00  0.00    +0.000 A 
ATOM     30  C   UNL     1       1.426  -5.349   0.000  0.00  0.00    +0.000 A 
ATOM     31  C   UNL     1       0.605  -5.436   0.000  0.00  0.00    +0.000 A 
ATOM     32  C   UNL     1       0.120  -4.768   0.000  0.00  0.00    +0.000 A 
ATOM     33  C   UNL     1       0.456  -4.014   0.000  0.00  0.00    +0.000 A 
BRANCH  32  34
ATOM     34  C   UNL     1      -0.700  -4.854   0.000  0.00  0.00    +0.000 C 
ATOM     35  F   UNL     1      -1.521  -4.941   0.000  0.00  0.00    +0.000 F 
ATOM     36  F   UNL     1      -0.786  -4.034   0.000  0.00  0.00    +0.000 F 
ATOM     37  F   UNL     1      -0.614  -5.675   0.000  0.00  0.00    +0.000 F 
ENDBRANCH  32  34
BRANCH  30  38
ATOM     38  C   UNL     1       1.911  -6.017   0.000  0.00  0.00    +0.000 C 
ATOM     39  F   UNL     1       2.396  -6.684   0.000  0.00  0.00    +0.000 F 
ATOM     40  F   UNL     1       1.243  -6.502   0.000  0.00  0.00    +0.000 F 
ATOM     41  F   UNL     1       2.578  -5.532   0.000  0.00  0.00    +0.000 F 
ENDBRANCH  30  38
ENDBRANCH  27  28
ENDBRANCH   3  27
TORSDOF 8
