REMARK  Name = 
REMARK  14 active torsions:
REMARK  status: ('A' for Active; 'I' for Inactive)
REMARK    1  A    between atoms: C_1  and  C_4
REMARK    2  A    between atoms: C_4  and  O_7
REMARK    3  A    between atoms: C_5  and  O_10
REMARK    4  A    between atoms: O_7  and  C_11
REMARK    5  A    between atoms: C_9  and  O_12
REMARK    6  A    between atoms: C_11  and  C_14
REMARK    7  A    between atoms: C_14  and  C_16
REMARK    8  A    between atoms: C_16  and  C_17
REMARK    9  A    between atoms: C_17  and  N_18
REMARK   10  A    between atoms: N_18  and  C_19
REMARK   11  A    between atoms: N_18  and  C_20
REMARK   12  A    between atoms: C_19  and  C_21
REMARK   13  A    between atoms: C_21  and  C_24
REMARK   14  A    between atoms: C_29  and  O_30
REMARK                            x       y       z     vdW  Elec       q    Type
REMARK                         _______ _______ _______ _____ _____    ______ ____
ROOT
ATOM      1  C   UNL     1       0.002  -0.107   0.000  0.00  0.00    +0.000 C 
ENDROOT
BRANCH   1   2
ATOM      2  C   UNL     1       0.708   0.308   0.000  0.00  0.00    +0.000 C 
BRANCH   2   3
ATOM      3  N   UNL     1       1.422  -0.092   0.000  0.00  0.00    +0.000 NA
BRANCH   3   4
ATOM      4  C   UNL     1       1.422  -0.919   0.000  0.00  0.00    +0.000 C 
ATOM      5  C   UNL     1       0.708  -1.335   0.000  0.00  0.00    +0.000 C 
ENDBRANCH   3   4
BRANCH   3   6
ATOM      6  C   UNL     1       2.144   0.308   0.000  0.00  0.00    +0.000 C 
ATOM      7  C   UNL     1       2.144   1.128   0.000  0.00  0.00    +0.000 C 
BRANCH   6   8
ATOM      8  C   UNL     1       2.861  -0.092   0.000  0.00  0.00    +0.000 C 
BRANCH   8   9
ATOM      9  C   UNL     1       3.571   0.308   0.000  0.00  0.00    +0.000 A 
ATOM     10  C   UNL     1       4.281  -0.107   0.000  0.00  0.00    +0.000 A 
ATOM     11  C   UNL     1       3.571   1.140   0.000  0.00  0.00    +0.000 A 
ATOM     12  C   UNL     1       4.991   0.316   0.000  0.00  0.00    +0.000 A 
ATOM     13  C   UNL     1       4.281   1.540   0.000  0.00  0.00    +0.000 A 
ATOM     14  C   UNL     1       5.007   1.140   0.000  0.00  0.00    +0.000 A 
BRANCH  14  15
ATOM     15  O   UNL     1       5.729   1.540   0.000  0.00  0.00    +0.000 OA
ATOM     16  C   UNL     1       5.729   2.364   0.000  0.00  0.00    +0.000 C 
ENDBRANCH  14  15
ENDBRANCH   8   9
ENDBRANCH   6   8
ENDBRANCH   3   6
ENDBRANCH   2   3
ENDBRANCH   1   2
BRANCH   1  17
ATOM     17  C   UNL     1      -0.716   0.316   0.000  0.00  0.00    +0.000 C 
BRANCH  17  18
ATOM     18  C   UNL     1      -1.433  -0.107   0.000  0.00  0.00    +0.000 C 
BRANCH  18  19
ATOM     19  O   UNL     1      -2.144   0.316   0.000  0.00  0.00    +0.000 OA
BRANCH  19  20
ATOM     20  C   UNL     1      -2.861  -0.092   0.000  0.00  0.00    +0.000 C 
ATOM     21  O   UNL     1      -2.861  -0.919   0.000  0.00  0.00    +0.000 OA
BRANCH  20  22
ATOM     22  C   UNL     1      -3.583   0.308   0.000  0.00  0.00    +0.000 A 
ATOM     23  C   UNL     1      -4.297  -0.092   0.000  0.00  0.00    +0.000 A 
ATOM     24  C   UNL     1      -3.583   1.140   0.000  0.00  0.00    +0.000 A 
ATOM     25  C   UNL     1      -5.019   0.308   0.000  0.00  0.00    +0.000 A 
ATOM     26  C   UNL     1      -4.297   1.544   0.000  0.00  0.00    +0.000 A 
ATOM     27  C   UNL     1      -5.019   1.128   0.000  0.00  0.00    +0.000 A 
BRANCH  25  28
ATOM     28  O   UNL     1      -5.729  -0.092   0.000  0.00  0.00    +0.000 OA
ATOM     29  C   UNL     1      -5.729  -0.919   0.000  0.00  0.00    +0.000 C 
ENDBRANCH  25  28
BRANCH  27  30
ATOM     30  O   UNL     1      -5.729   1.544   0.000  0.00  0.00    +0.000 OA
ATOM     31  C   UNL     1      -5.729   2.364   0.000  0.00  0.00    +0.000 C 
ENDBRANCH  27  30
ENDBRANCH  20  22
ENDBRANCH  19  20
ENDBRANCH  18  19
ENDBRANCH  17  18
ENDBRANCH   1  17
TORSDOF 14
