REMARK  Name = 
REMARK  5 active torsions:
REMARK  status: ('A' for Active; 'I' for Inactive)
REMARK    1  A    between atoms: C_5  and  C_6
REMARK    2  A    between atoms: C_6  and  C_7
REMARK    3  A    between atoms: C_7  and  C_8
REMARK    4  A    between atoms: C_8  and  C_9
REMARK    5  A    between atoms: C_9  and  C_10
REMARK                            x       y       z     vdW  Elec       q    Type
REMARK                         _______ _______ _______ _____ _____    ______ ____
ROOT
ATOM      1  C   UNL     1      -0.761   0.186   0.000  0.00  0.00    +0.000 C 
ENDROOT
BRANCH   1   6
ATOM      2  C   UNL     1      -2.143   0.258   0.000  0.00  0.00    +0.000 C 
ATOM      3  S   UNL     1      -1.731  -1.011   0.000  0.00  0.00    +0.000 S 
ATOM      4  C   UNL     1      -2.811  -0.226   0.000  0.00  0.00    +0.000 C 
ATOM      5  S   UNL     1      -2.556  -1.011   0.000  0.00  0.00    +0.000 S 
ATOM      6  C   UNL     1      -1.476  -0.226   0.000  0.00  0.00    +0.000 C 
ENDBRANCH   1   6
BRANCH   1   7
ATOM      7  C   UNL     1      -0.047  -0.226   0.000  0.00  0.00    +0.000 C 
BRANCH   7   8
ATOM      8  C   UNL     1       0.667   0.186   0.000  0.00  0.00    +0.000 C 
BRANCH   8   9
ATOM      9  C   UNL     1       1.382  -0.226   0.000  0.00  0.00    +0.000 C 
BRANCH   9  10
ATOM     10  C   UNL     1       2.096   0.186   0.000  0.00  0.00    +0.000 C 
ATOM     11  O   UNL     1       2.096   1.011   0.000  0.00  0.00    +0.000 OA
ATOM     12  O   UNL     1       2.811  -0.226   0.000  0.00  0.00    +0.000 OA
ENDBRANCH   9  10
ENDBRANCH   8   9
ENDBRANCH   7   8
ENDBRANCH   1   7
TORSDOF 5
