REMARK  Name = 
REMARK  4 active torsions:
REMARK  status: ('A' for Active; 'I' for Inactive)
REMARK    1  A    between atoms: O_2  and  C_3
REMARK    2  A    between atoms: C_4  and  O_5
REMARK    3  A    between atoms: O_5  and  C_6
REMARK    4  A    between atoms: N_19  and  C_20
REMARK                            x       y       z     vdW  Elec       q    Type
REMARK                         _______ _______ _______ _____ _____    ______ ____
ROOT
ATOM      1  C   UNL     1       0.715  -1.238   0.000  0.00  0.00    +0.000 A 
ATOM      2  C   UNL     1       0.715  -0.412   0.000  0.00  0.00    +0.000 A 
ATOM      3  C   UNL     1       1.429   0.000   0.000  0.00  0.00    +0.000 A 
ATOM      4  C   UNL     1       2.143  -0.412   0.000  0.00  0.00    +0.000 A 
ATOM      5  C   UNL     1       2.858   0.000   0.000  0.00  0.00    +0.000 A 
ATOM      6  N   UNL     1       2.858   0.825   0.000  0.00  0.00    +0.000 NA
ATOM      7  N   UNL     1       3.572  -0.412   0.000  0.00  0.00    +0.000 NA
ATOM      8  C   UNL     1       3.572  -1.238   0.000  0.00  0.00    +0.000 A 
ATOM      9  N   UNL     1       2.858  -1.650   0.000  0.00  0.00    +0.000 NA
ATOM     10  C   UNL     1       2.143  -1.238   0.000  0.00  0.00    +0.000 A 
ATOM     11  C   UNL     1       1.429  -1.650   0.000  0.00  0.00    +0.000 A 
ENDROOT
BRANCH   6  12
ATOM     12  C   UNL     1       3.572   1.238   0.000  0.00  0.00    +0.000 A 
ATOM     13  C   UNL     1       3.572   2.062   0.000  0.00  0.00    +0.000 A 
ATOM     14  F   UNL     1       2.858   2.475   0.000  0.00  0.00    +0.000 F 
ATOM     15  C   UNL     1       4.287   2.475   0.000  0.00  0.00    +0.000 A 
ATOM     16 CL   UNL     1       4.287   3.300   0.000  0.00  0.00    +0.000 Cl
ATOM     17  C   UNL     1       5.001   2.062   0.000  0.00  0.00    +0.000 A 
ATOM     18  C   UNL     1       5.001   1.238   0.000  0.00  0.00    +0.000 A 
ATOM     19  C   UNL     1       4.287   0.825   0.000  0.00  0.00    +0.000 A 
ENDBRANCH   6  12
BRANCH   1  21
ATOM     20  C   UNL     1       0.000  -2.475   0.000  0.00  0.00    +0.000 C 
ATOM     21  O   UNL     1       0.000  -1.650   0.000  0.00  0.00    +0.000 OA
ENDBRANCH   1  21
BRANCH   2  22
ATOM     22  O   UNL     1       0.000   0.000   0.000  0.00  0.00    +0.000 OA
BRANCH  22  23
ATOM     23  C   UNL     1      -0.715  -0.412   0.000  0.00  0.00    +0.000 C 
ATOM     24  O   UNL     1      -0.715  -1.238   0.000  0.00  0.00    +0.000 OA
ATOM     25  N   UNL     1      -1.429   0.000   0.000  0.00  0.00    +0.000 N 
ATOM     26  C   UNL     1      -2.143  -0.412   0.000  0.00  0.00    +0.000 C 
ATOM     27  C   UNL     1      -2.858   0.000   0.000  0.00  0.00    +0.000 C 
ATOM     28  N   UNL     1      -2.858   0.825   0.000  0.00  0.00    +0.000 NA
ATOM     29  C   UNL     1      -3.572   1.238   0.000  0.00  0.00    +0.000 C 
ATOM     30  C   UNL     1      -2.143   1.238   0.000  0.00  0.00    +0.000 C 
ATOM     31  C   UNL     1      -1.429   0.825   0.000  0.00  0.00    +0.000 C 
ATOM     32  C   UNL     1      -0.715   1.238   0.000  0.00  0.00    +0.000 C 
ENDBRANCH  22  23
ENDBRANCH   2  22
TORSDOF 4
