REMARK  Name = 
REMARK  5 active torsions:
REMARK  status: ('A' for Active; 'I' for Inactive)
REMARK    1  A    between atoms: O_1  and  C_2
REMARK    2  A    between atoms: O_1  and  C_19
REMARK    3  A    between atoms: C_2  and  C_3
REMARK    4  A    between atoms: C_3  and  C_5
REMARK    5  A    between atoms: C_3  and  C_7
REMARK                            x       y       z     vdW  Elec       q    Type
REMARK                         _______ _______ _______ _____ _____    ______ ____
ROOT
ATOM      1  C   UNL     1       0.000   0.000   0.000  0.00  0.00    +0.000 C 
ATOM      2  O   UNL     1       0.000  -0.825   0.000  0.00  0.00    +0.000 OA
ENDROOT
BRANCH   1   3
ATOM      3  O   UNL     1      -0.715   0.412   0.000  0.00  0.00    +0.000 OA
BRANCH   3  10
ATOM      4  C   UNL     1      -2.074  -1.339   0.000  0.00  0.00    +0.000 C 
ATOM      5  C   UNL     1      -1.429  -0.825   0.000  0.00  0.00    +0.000 C 
ATOM      6  C   UNL     1      -2.878  -1.156   0.000  0.00  0.00    +0.000 C 
ATOM      7  C   UNL     1      -3.236  -0.413   0.000  0.00  0.00    +0.000 C 
ATOM      8  C   UNL     1      -2.878   0.331   0.000  0.00  0.00    +0.000 C 
ATOM      9  C   UNL     1      -2.074   0.514   0.000  0.00  0.00    +0.000 C 
ATOM     10  C   UNL     1      -1.429   0.000   0.000  0.00  0.00    +0.000 C 
ATOM     11  N   UNL     1      -2.735  -0.629   0.000  0.00  0.00    +0.000 NA
ATOM     12  C   UNL     1      -2.021  -0.217   0.000  0.00  0.00    +0.000 C 
ENDBRANCH   3  10
ENDBRANCH   1   3
BRANCH   1  13
ATOM     13  C   UNL     1       0.715   0.412   0.000  0.00  0.00    +0.000 C 
BRANCH  13  14
ATOM     14  C   UNL     1       1.429   0.000   0.000  0.00  0.00    +0.000 A 
ATOM     15  C   UNL     1       1.429  -0.825   0.000  0.00  0.00    +0.000 A 
ATOM     16  C   UNL     1       2.143   0.412   0.000  0.00  0.00    +0.000 A 
ATOM     17  C   UNL     1       2.858   0.000   0.000  0.00  0.00    +0.000 A 
ATOM     18  C   UNL     1       2.858  -0.825   0.000  0.00  0.00    +0.000 A 
ATOM     19  C   UNL     1       2.143  -1.238   0.000  0.00  0.00    +0.000 A 
ENDBRANCH  13  14
BRANCH  13  20
ATOM     20  C   UNL     1       0.715   1.238   0.000  0.00  0.00    +0.000 C 
ATOM     21  O   UNL     1       1.429   1.650   0.000  0.00  0.00    +0.000 OA
ENDBRANCH  13  20
ENDBRANCH   1  13
TORSDOF 5
