REMARK  Name = 
REMARK  3 active torsions:
REMARK  status: ('A' for Active; 'I' for Inactive)
REMARK    1  A    between atoms: C_5  and  C_6
REMARK    2  A    between atoms: C_5  and  C_11
REMARK    3  A    between atoms: C_6  and  C_7
REMARK                            x       y       z     vdW  Elec       q    Type
REMARK                         _______ _______ _______ _____ _____    ______ ____
ROOT
ATOM      1  C   UNL     1       0.743  -0.715   0.000  0.00  0.00    +0.000 C 
ATOM      2  C   UNL     1       0.330   0.000   0.000  0.00  0.00    +0.000 C 
ATOM      3  O   UNL     1       0.743   0.715   0.000  0.00  0.00    +0.000 OA
ATOM      4  O   UNL     1      -0.495   0.000   0.000  0.00  0.00    +0.000 OA
ENDROOT
TORSDOF 0
REMARK  Name = 
REMARK  3 active torsions:
REMARK  status: ('A' for Active; 'I' for Inactive)
REMARK    1  A    between atoms: C_5  and  C_6
REMARK    2  A    between atoms: C_5  and  C_11
REMARK    3  A    between atoms: C_6  and  C_7
REMARK                            x       y       z     vdW  Elec       q    Type
REMARK                         _______ _______ _______ _____ _____    ______ ____
ROOT
ATOM      1  C   UNL     1       4.654   0.206   0.000  0.00  0.00    +0.000 C 
ATOM      2  O   UNL     1       4.654   1.031   0.000  0.00  0.00    +0.000 OA
ENDROOT
BRANCH   1   3
ATOM      3  C   UNL     1       5.368  -0.206   0.000  0.00  0.00    +0.000 C 
ATOM      4  O   UNL     1       6.083   0.206   0.000  0.00  0.00    +0.000 OA
ATOM      5  O   UNL     1       5.368  -1.031   0.000  0.00  0.00    +0.000 OA
ENDBRANCH   1   3
BRANCH   1   6
ATOM      6  C   UNL     1       3.939  -0.206   0.000  0.00  0.00    +0.000 C 
ATOM      7  O   UNL     1       3.939  -1.031   0.000  0.00  0.00    +0.000 OA
BRANCH   6   8
ATOM      8  C   UNL     1       3.225   0.206   0.000  0.00  0.00    +0.000 C 
ATOM      9  O   UNL     1       2.510  -0.206   0.000  0.00  0.00    +0.000 OA
ATOM     10  O   UNL     1       3.225   1.031   0.000  0.00  0.00    +0.000 OA
ENDBRANCH   6   8
ENDBRANCH   1   6
TORSDOF 3
REMARK  Name = 
REMARK  3 active torsions:
REMARK  status: ('A' for Active; 'I' for Inactive)
REMARK    1  A    between atoms: C_5  and  C_6
REMARK    2  A    between atoms: C_5  and  C_11
REMARK    3  A    between atoms: C_6  and  C_7
REMARK                            x       y       z     vdW  Elec       q    Type
REMARK                         _______ _______ _______ _____ _____    ______ ____
ROOT
ATOM      1 AL   UNL     1      -1.320   0.000   0.000  0.00  0.00    +0.000 Al
ENDROOT
TORSDOF 0
