REMARK  Name = 
REMARK  4 active torsions:
REMARK  status: ('A' for Active; 'I' for Inactive)
REMARK    1  A    between atoms: C_3  and  C_4
REMARK    2  A    between atoms: C_3  and  C_7
REMARK    3  A    between atoms: C_4  and  C_10
REMARK    4  A    between atoms: C_12  and  N_16
REMARK                            x       y       z     vdW  Elec       q    Type
REMARK                         _______ _______ _______ _____ _____    ______ ____
ROOT
ATOM      1  C   UNL     1       1.786   1.238   0.000  0.00  0.00    +0.000 A 
ATOM      2  C   UNL     1       0.357   1.238   0.000  0.00  0.00    +0.000 A 
ATOM      3  C   UNL     1       1.072   1.650   0.000  0.00  0.00    +0.000 A 
ATOM      4  C   UNL     1       1.786   0.412   0.000  0.00  0.00    +0.000 A 
ATOM      5  C   UNL     1       0.357   0.412   0.000  0.00  0.00    +0.000 A 
ATOM      6  C   UNL     1       1.072   0.000   0.000  0.00  0.00    +0.000 A 
ATOM      7  I   UNL     1       1.072   2.475   0.000  0.00  0.00    +0.000 I 
ATOM      8  I   UNL     1       2.501   0.000   0.000  0.00  0.00    +0.000 I 
ATOM      9  I   UNL     1      -0.357   0.000   0.000  0.00  0.00    +0.000 I 
ENDROOT
BRANCH   6  13
ATOM     10  C   UNL     1       2.501  -2.475   0.000  0.00  0.00    +0.000 C 
ATOM     11  C   UNL     1       1.072  -2.475   0.000  0.00  0.00    +0.000 C 
ATOM     12  C   UNL     1       1.786  -1.238   0.000  0.00  0.00    +0.000 C 
ATOM     13  N   UNL     1       1.072  -0.825   0.000  0.00  0.00    +0.000 NA
ATOM     14  N   UNL     1       1.786  -2.062   0.000  0.00  0.00    +0.000 N 
ENDBRANCH   6  13
BRANCH   2  15
ATOM     15  C   UNL     1      -0.357   1.650   0.000  0.00  0.00    +0.000 C 
BRANCH  15  16
ATOM     16  C   UNL     1      -1.072   1.238   0.000  0.00  0.00    +0.000 C 
BRANCH  16  17
ATOM     17  C   UNL     1      -1.786   1.650   0.000  0.00  0.00    +0.000 C 
ATOM     18  O   UNL     1      -2.501   1.238   0.000  0.00  0.00    +0.000 OA
ATOM     19  O   UNL     1      -1.786   2.475   0.000  0.00  0.00    +0.000 OA
ENDBRANCH  16  17
ENDBRANCH  15  16
ENDBRANCH   2  15
TORSDOF 4
