REMARK  Name = 
REMARK  11 active torsions:
REMARK  status: ('A' for Active; 'I' for Inactive)
REMARK    1  A    between atoms: S_1  and  O_5
REMARK    2  A    between atoms: S_2  and  C_34
REMARK    3  A    between atoms: O_3  and  C_20
REMARK    4  A    between atoms: O_3  and  C_24
REMARK    5  A    between atoms: O_5  and  C_28
REMARK    6  A    between atoms: N_18  and  C_25
REMARK    7  A    between atoms: N_19  and  C_32
REMARK    8  A    between atoms: CA_21  and  C_26
REMARK    9  A    between atoms: C_22  and  C_30
REMARK   10  A    between atoms: C_29  and  C_31
REMARK   11  A    between atoms: C_32  and  C_34
REMARK                            x       y       z     vdW  Elec       q    Type
REMARK                         _______ _______ _______ _____ _____    ______ ____
ROOT
ATOM      1  O   UNL     1       0.460   1.846   0.000  0.00  0.00    +0.000 OA
ENDROOT
BRANCH   1   3
ATOM      2  N   UNL     1       2.480   1.156   0.000  0.00  0.00    +0.000 N 
ATOM      3  C   UNL     1       1.174   1.433   0.000  0.00  0.00    +0.000 C 
ATOM      4  CA  UNL     1       1.928   1.769   0.000  0.00  0.00    +0.000 C 
ATOM      5  C   UNL     1       2.067   0.441   0.000  0.00  0.00    +0.000 C 
ATOM      6  C   UNL     1       1.260   0.613   0.000  0.00  0.00    +0.000 C 
ATOM      7  H1  UNL     1       2.923   0.900   0.000  0.00  0.00    +0.000 HD
ATOM      8  H2  UNL     1       2.860   1.498   0.000  0.00  0.00    +0.000 HD
BRANCH   5  11
ATOM      9  O   UNL     1       3.223  -0.399   0.000  0.00  0.00    +0.000 OA
ATOM     10  N   UNL     1       1.918  -0.980   0.000  0.00  0.00    +0.000 N 
ATOM     11  C   UNL     1       2.403  -0.312   0.000  0.00  0.00    +0.000 C 
ATOM     12  H   UNL     1       1.409  -0.926   0.000  0.00  0.00    +0.000 HD
BRANCH  10  13
ATOM     13  C   UNL     1       2.253  -1.733   0.000  0.00  0.00    +0.000 C 
BRANCH  13  14
ATOM     14  C   UNL     1       1.768  -2.401   0.000  0.00  0.00    +0.000 C 
BRANCH  14  15
ATOM     15  S   UNL     1       2.104  -3.155   0.000  0.00  0.00    +0.000 S 
ATOM     16  O   UNL     1       2.440  -3.908   0.000  0.00  0.00    +0.000 OA
ATOM     17  O   UNL     1       1.350  -3.490   0.000  0.00  0.00    +0.000 OA
ATOM     18  O   UNL     1       2.858  -2.819   0.000  0.00  0.00    +0.000 OA
ENDBRANCH  14  15
ENDBRANCH  13  14
ENDBRANCH  10  13
ENDBRANCH   5  11
BRANCH   4  20
ATOM     19  O   UNL     1       2.884   2.831   0.000  0.00  0.00    +0.000 OA
ATOM     20  C   UNL     1       2.099   2.576   0.000  0.00  0.00    +0.000 C 
ENDBRANCH   4  20
ENDBRANCH   1   3
BRANCH   1  23
ATOM     21  O   UNL     1      -0.255   0.608   0.000  0.00  0.00    +0.000 OA
ATOM     22  O   UNL     1      -2.398   1.846   0.000  0.00  0.00    +0.000 OA
ATOM     23  C   UNL     1      -0.255   1.433   0.000  0.00  0.00    +0.000 C 
ATOM     24  C   UNL     1      -0.969   1.846   0.000  0.00  0.00    +0.000 C 
ATOM     25  C   UNL     1      -1.684   1.433   0.000  0.00  0.00    +0.000 C 
ATOM     26  C   UNL     1      -1.684   0.608   0.000  0.00  0.00    +0.000 C 
ATOM     27  C   UNL     1      -0.969   0.196   0.000  0.00  0.00    +0.000 C 
BRANCH  24  29
ATOM     28  O   UNL     1      -2.398   2.671   0.000  0.00  0.00    +0.000 OA
ATOM     29  N   UNL     1      -0.969   2.671   0.000  0.00  0.00    +0.000 N 
ATOM     30  C   UNL     1      -1.684   3.083   0.000  0.00  0.00    +0.000 C 
ATOM     31  C   UNL     1      -1.684   3.908   0.000  0.00  0.00    +0.000 C 
ATOM     32  H   UNL     1      -0.526   2.926   0.000  0.00  0.00    +0.000 HD
ENDBRANCH  24  29
BRANCH  27  34
ATOM     33  O   UNL     1      -0.255  -1.042   0.000  0.00  0.00    +0.000 OA
ATOM     34  C   UNL     1      -0.969  -0.629   0.000  0.00  0.00    +0.000 C 
ENDBRANCH  27  34
BRANCH  26  35
ATOM     35  O   UNL     1      -2.398   0.196   0.000  0.00  0.00    +0.000 OA
BRANCH  35  36
ATOM     36  S   UNL     1      -2.398  -0.629   0.000  0.00  0.00    +0.000 S 
ATOM     37  O   UNL     1      -2.398  -1.454   0.000  0.00  0.00    +0.000 OA
ATOM     38  O   UNL     1      -3.223  -0.629   0.000  0.00  0.00    +0.000 OA
ATOM     39  O   UNL     1      -1.573  -0.629   0.000  0.00  0.00    +0.000 OA
ENDBRANCH  35  36
ENDBRANCH  26  35
ENDBRANCH   1  23
TORSDOF 11
