REMARK  Name = 
REMARK  17 active torsions:
REMARK  status: ('A' for Active; 'I' for Inactive)
REMARK    1  A    between atoms: C_2  and  C_3
REMARK    2  A    between atoms: C_3  and  C_4
REMARK    3  A    between atoms: C_4  and  O_5
REMARK    4  A    between atoms: O_5  and  C_6
REMARK    5  A    between atoms: N_13  and  C_14
REMARK    6  A    between atoms: C_14  and  C_15
REMARK    7  A    between atoms: C_15  and  C_16
REMARK    8  A    between atoms: C_16  and  N_17
REMARK    9  A    between atoms: N_17  and  C_18
REMARK   10  A    between atoms: N_17  and  C_27
REMARK   11  A    between atoms: C_18  and  C_19
REMARK   12  A    between atoms: C_19  and  C_20
REMARK   13  A    between atoms: C_20  and  N_21
REMARK   14  A    between atoms: C_27  and  C_28
REMARK   15  A    between atoms: C_32  and  C_33
REMARK   16  A    between atoms: C_33  and  C_34
REMARK   17  A    between atoms: C_34  and  O_36
REMARK                            x       y       z     vdW  Elec       q    Type
REMARK                         _______ _______ _______ _____ _____    ______ ____
ROOT
ATOM      1  N   UNL     1       0.200   1.517   0.000  0.00  0.00    +0.000 NA
ENDROOT
BRANCH   1   2
ATOM      2  C   UNL     1      -0.340   2.141   0.000  0.00  0.00    +0.000 C 
BRANCH   2   3
ATOM      3  C   UNL     1      -1.150   1.985   0.000  0.00  0.00    +0.000 C 
BRANCH   3   4
ATOM      4  C   UNL     1      -1.420   1.206   0.000  0.00  0.00    +0.000 C 
BRANCH   4  12
ATOM      5  C   UNL     1      -3.523   2.864   0.000  0.00  0.00    +0.000 A 
ATOM      6  N   UNL     1      -2.817   2.438   0.000  0.00  0.00    +0.000 NA
ATOM      7  C   UNL     1      -2.833   1.613   0.000  0.00  0.00    +0.000 A 
ATOM      8  C   UNL     1      -3.555   1.215   0.000  0.00  0.00    +0.000 A 
ATOM      9  N   UNL     1      -3.399   0.405   0.000  0.00  0.00    +0.000 NA
ATOM     10  C   UNL     1      -2.580   0.302   0.000  0.00  0.00    +0.000 A 
ATOM     11  O   UNL     1      -2.182  -0.420   0.000  0.00  0.00    +0.000 OA
ATOM     12  N   UNL     1      -2.230   1.050   0.000  0.00  0.00    +0.000 N 
ATOM     13  C   UNL     1      -4.261   1.641   0.000  0.00  0.00    +0.000 A 
ATOM     14  N   UNL     1      -4.984   1.242   0.000  0.00  0.00    +0.000 NA
ATOM     15  N   UNL     1      -4.245   2.466   0.000  0.00  0.00    +0.000 NA
BRANCH   5  16
ATOM     16  O   UNL     1      -3.507   3.689   0.000  0.00  0.00    +0.000 OA
BRANCH  16  17
ATOM     17  C   UNL     1      -4.213   4.115   0.000  0.00  0.00    +0.000 C 
BRANCH  17  18
ATOM     18  C   UNL     1      -4.197   4.940   0.000  0.00  0.00    +0.000 C 
BRANCH  18  20
ATOM     19  C   UNL     1      -4.888   6.191   0.000  0.00  0.00    +0.000 C 
ATOM     20  C   UNL     1      -4.904   5.367   0.000  0.00  0.00    +0.000 C 
ENDBRANCH  18  20
ENDBRANCH  17  18
ENDBRANCH  16  17
ENDBRANCH   5  16
ENDBRANCH   4  12
ENDBRANCH   3   4
ENDBRANCH   2   3
ENDBRANCH   1   2
BRANCH   1  21
ATOM     21  C   UNL     1      -0.070   0.738   0.000  0.00  0.00    +0.000 C 
BRANCH  21  22
ATOM     22  C   UNL     1       0.470   0.114   0.000  0.00  0.00    +0.000 A 
ATOM     23  C   UNL     1       1.280   0.270   0.000  0.00  0.00    +0.000 A 
ATOM     24  C   UNL     1       1.821  -0.354   0.000  0.00  0.00    +0.000 A 
ATOM     25  C   UNL     1       1.550  -1.133   0.000  0.00  0.00    +0.000 A 
ATOM     26  C   UNL     1       0.740  -1.289   0.000  0.00  0.00    +0.000 A 
ATOM     27  C   UNL     1       0.200  -0.665   0.000  0.00  0.00    +0.000 A 
BRANCH  26  28
ATOM     28  C   UNL     1       0.470  -2.069   0.000  0.00  0.00    +0.000 C 
BRANCH  28  29
ATOM     29  C   UNL     1       1.010  -2.692   0.000  0.00  0.00    +0.000 C 
ATOM     30  O   UNL     1       1.821  -2.536   0.000  0.00  0.00    +0.000 OA
BRANCH  29  31
ATOM     31  O   UNL     1       0.740  -3.472   0.000  0.00  0.00    +0.000 OA
ATOM     32  C   UNL     1       1.280  -4.095   0.000  0.00  0.00    +0.000 C 
ENDBRANCH  29  31
ENDBRANCH  28  29
ENDBRANCH  26  28
ENDBRANCH  21  22
ENDBRANCH   1  21
BRANCH   1  33
ATOM     33  C   UNL     1       1.010   1.673   0.000  0.00  0.00    +0.000 C 
BRANCH  33  34
ATOM     34  C   UNL     1       1.550   1.050   0.000  0.00  0.00    +0.000 C 
BRANCH  34  35
ATOM     35  C   UNL     1       2.361   1.206   0.000  0.00  0.00    +0.000 C 
BRANCH  35  36
ATOM     36  N   UNL     1       2.901   0.582   0.000  0.00  0.00    +0.000 NA
ATOM     37  C   UNL     1       3.711   0.738   0.000  0.00  0.00    +0.000 C 
ATOM     38  C   UNL     1       4.251   0.114   0.000  0.00  0.00    +0.000 C 
ATOM     39  O   UNL     1       3.981  -0.665   0.000  0.00  0.00    +0.000 OA
ATOM     40  C   UNL     1       3.171  -0.821   0.000  0.00  0.00    +0.000 C 
ATOM     41  C   UNL     1       2.631  -0.198   0.000  0.00  0.00    +0.000 C 
ENDBRANCH  35  36
ENDBRANCH  34  35
ENDBRANCH  33  34
ENDBRANCH   1  33
TORSDOF 17
