REMARK  Name = 
REMARK  4 active torsions:
REMARK  status: ('A' for Active; 'I' for Inactive)
REMARK    1  A    between atoms: C_16  and  C_23
REMARK    2  A    between atoms: C_17  and  C_21
REMARK    3  A    between atoms: C_18  and  O_35
REMARK    4  A    between atoms: C_21  and  C_24
REMARK                            x       y       z     vdW  Elec       q    Type
REMARK                         _______ _______ _______ _____ _____    ______ ____
ROOT
ATOM      1  C   UNL     1       0.009   0.141   0.000  0.00  0.00    +0.000 C 
ATOM      2  O   UNL     1      -0.543  -0.472   0.000  0.00  0.00    +0.000 OA
ENDROOT
BRANCH   1   8
ATOM      3  C   UNL     1      -2.643   5.180   0.000  0.00  0.00    +0.000 C 
ATOM      4  C   UNL     1       0.239   1.593   0.000  0.00  0.00    +0.000 A 
ATOM      5  C   UNL     1      -2.460   1.180   0.000  0.00  0.00    +0.000 A 
ATOM      6  C   UNL     1      -1.078   3.728   0.000  0.00  0.00    +0.000 A 
ATOM      7  C   UNL     1      -2.158   4.512   0.000  0.00  0.00    +0.000 A 
ATOM      8  C   UNL     1      -0.246   0.925   0.000  0.00  0.00    +0.000 A 
ATOM      9  C   UNL     1      -1.745   0.768   0.000  0.00  0.00    +0.000 A 
ATOM     10  C   UNL     1      -1.031   1.180   0.000  0.00  0.00    +0.000 A 
ATOM     11  C   UNL     1      -1.031   2.005   0.000  0.00  0.00    +0.000 A 
ATOM     12  C   UNL     1      -1.745   2.418   0.000  0.00  0.00    +0.000 A 
ATOM     13  N   UNL     1      -0.246   2.260   0.000  0.00  0.00    +0.000 NA
ATOM     14  N   UNL     1      -2.460   2.005   0.000  0.00  0.00    +0.000 NA
ATOM     15  N   UNL     1      -1.333   4.512   0.000  0.00  0.00    +0.000 NA
ATOM     16  N   UNL     1      -2.413   3.728   0.000  0.00  0.00    +0.000 NA
ATOM     17  N   UNL     1      -1.745   3.243   0.000  0.00  0.00    +0.000 N 
BRANCH   9  19
ATOM     18  C   UNL     1      -2.370  -0.737   0.000  0.00  0.00    +0.000 C 
ATOM     19  O   UNL     1      -1.745  -0.057   0.000  0.00  0.00    +0.000 OA
ENDBRANCH   9  19
ENDBRANCH   1   8
BRANCH   1  25
ATOM     20  C   UNL     1       2.133  -1.771   0.000  0.00  0.00    +0.000 C 
ATOM     21  C   UNL     1       0.774  -2.213   0.000  0.00  0.00    +0.000 C 
ATOM     22  C   UNL     1       1.878  -0.987   0.000  0.00  0.00    +0.000 C 
ATOM     23  C   UNL     1       0.519  -1.428   0.000  0.00  0.00    +0.000 C 
ATOM     24  C   UNL     1       1.916  -3.196   0.000  0.00  0.00    +0.000 C 
ATOM     25  C   UNL     1       0.816  -0.031   0.000  0.00  0.00    +0.000 C 
ATOM     26  N   UNL     1       1.581  -2.385   0.000  0.00  0.00    +0.000 N 
ATOM     27  N   UNL     1       1.071  -0.815   0.000  0.00  0.00    +0.000 N 
ATOM     28  O   UNL     1       2.643  -3.341   0.000  0.00  0.00    +0.000 OA
ATOM     29  O   UNL     1       1.368   0.582   0.000  0.00  0.00    +0.000 OA
BRANCH  24  35
ATOM     30  C   UNL     1       0.179  -5.008   0.000  0.00  0.00    +0.000 A 
ATOM     31  C   UNL     1       0.986  -5.180   0.000  0.00  0.00    +0.000 A 
ATOM     32  C   UNL     1      -0.075  -4.224   0.000  0.00  0.00    +0.000 A 
ATOM     33  C   UNL     1       1.538  -4.567   0.000  0.00  0.00    +0.000 A 
ATOM     34  C   UNL     1       0.477  -3.611   0.000  0.00  0.00    +0.000 A 
ATOM     35  C   UNL     1       1.364  -3.836   0.000  0.00  0.00    +0.000 A 
ENDBRANCH  24  35
ENDBRANCH   1  25
TORSDOF 4
