REMARK  Name = 
REMARK  7 active torsions:
REMARK  status: ('A' for Active; 'I' for Inactive)
REMARK    1  A    between atoms: C_7  and  C_14
REMARK    2  A    between atoms: C_7  and  O_28
REMARK    3  A    between atoms: C_14  and  C_19
REMARK    4  A    between atoms: C_19  and  O_33
REMARK    5  A    between atoms: O_28  and  C_29
REMARK    6  A    between atoms: C_29  and  C_31
REMARK    7  A    between atoms: O_33  and  C_34
REMARK                            x       y       z     vdW  Elec       q    Type
REMARK                         _______ _______ _______ _____ _____    ______ ____
ROOT
ATOM      1  C   UNL     1       0.320  -1.464   0.000  0.00  0.00    +0.000 C 
ATOM      2  C   UNL     1      -0.391  -1.882   0.000  0.00  0.00    +0.000 C 
ATOM      3  C   UNL     1       0.320  -0.669   0.000  0.00  0.00    +0.000 C 
ATOM      4  C   UNL     1       1.700  -1.464   0.000  0.00  0.00    +0.000 C 
ATOM      5  C   UNL     1      -1.102  -1.464   0.000  0.00  0.00    +0.000 C 
ATOM      6  C   UNL     1      -0.391  -2.677   0.000  0.00  0.00    +0.000 C 
ATOM      7  C   UNL     1       1.031  -0.251   0.000  0.00  0.00    +0.000 C 
ATOM      8  C   UNL     1      -0.391  -0.251   0.000  0.00  0.00    +0.000 C 
ATOM      9  C   UNL     1       0.320   0.167   0.000  0.00  0.00    +0.000 C 
ATOM     10  C   UNL     1       1.700  -0.669   0.000  0.00  0.00    +0.000 C 
ATOM     11  C   UNL     1      -1.813  -1.882   0.000  0.00  0.00    +0.000 C 
ATOM     12  C   UNL     1      -1.102  -0.669   0.000  0.00  0.00    +0.000 C 
ATOM     13  C   UNL     1      -1.102  -3.095   0.000  0.00  0.00    +0.000 C 
ATOM     14  C   UNL     1      -1.813  -2.677   0.000  0.00  0.00    +0.000 C 
ATOM     15  C   UNL     1      -2.525  -1.464   0.000  0.00  0.00    +0.000 C 
ATOM     16  C   UNL     1      -1.813  -1.046   0.000  0.00  0.00    +0.000 C 
ATOM     17  O   UNL     1      -1.813  -0.251   0.000  0.00  0.00    +0.000 OA
ATOM     18  C   UNL     1      -2.525  -3.095   0.000  0.00  0.00    +0.000 C 
ATOM     19  C   UNL     1      -3.236  -1.882   0.000  0.00  0.00    +0.000 C 
ATOM     20  C   UNL     1      -3.236  -2.677   0.000  0.00  0.00    +0.000 C 
ATOM     21  O   UNL     1      -3.947  -3.095   0.000  0.00  0.00    +0.000 OA
ENDROOT
BRANCH   7  22
ATOM     22  C   UNL     1       1.031   0.586   0.000  0.00  0.00    +0.000 C 
ATOM     23  O   UNL     1       0.320   1.004   0.000  0.00  0.00    +0.000 OA
BRANCH  22  24
ATOM     24  C   UNL     1       1.742   1.004   0.000  0.00  0.00    +0.000 C 
BRANCH  24  25
ATOM     25  O   UNL     1       1.735   1.840   0.000  0.00  0.00    +0.000 OA
BRANCH  25  26
ATOM     26  C   UNL     1       2.461   2.268   0.000  0.00  0.00    +0.000 C 
ATOM     27  C   UNL     1       3.187   1.857   0.000  0.00  0.00    +0.000 C 
ATOM     28  O   UNL     1       2.454   3.095   0.000  0.00  0.00    +0.000 OA
ENDBRANCH  25  26
ENDBRANCH  24  25
ENDBRANCH  22  24
ENDBRANCH   7  22
BRANCH   7  29
ATOM     29  O   UNL     1       1.825  -0.042   0.000  0.00  0.00    +0.000 OA
BRANCH  29  30
ATOM     30  C   UNL     1       2.499  -0.537   0.000  0.00  0.00    +0.000 C 
ATOM     31  O   UNL     1       2.498  -1.380   0.000  0.00  0.00    +0.000 OA
BRANCH  30  32
ATOM     32  C   UNL     1       3.240  -0.164   0.000  0.00  0.00    +0.000 C 
ATOM     33  C   UNL     1       3.947  -0.627   0.000  0.00  0.00    +0.000 C 
ENDBRANCH  30  32
ENDBRANCH  29  30
ENDBRANCH   7  29
TORSDOF 7
