REMARK  Name = 
REMARK  9 active torsions:
REMARK  status: ('A' for Active; 'I' for Inactive)
REMARK    1  A    between atoms: C_2  and  C_3
REMARK    2  A    between atoms: C_3  and  C_4
REMARK    3  A    between atoms: C_5  and  O_14
REMARK    4  A    between atoms: C_8  and  C_11
REMARK    5  A    between atoms: O_14  and  C_15
REMARK    6  A    between atoms: C_15  and  C_16
REMARK    7  A    between atoms: C_19  and  C_22
REMARK    8  A    between atoms: C_22  and  C_23
REMARK    9  A    between atoms: C_27  and  C_29
REMARK                            x       y       z     vdW  Elec       q    Type
REMARK                         _______ _______ _______ _____ _____    ______ ____
ROOT
ATOM      1  C   UNL     1      -1.429  -2.475   0.000  0.00  0.00    +0.000 A 
ATOM      2  C   UNL     1      -1.429  -1.650   0.000  0.00  0.00    +0.000 A 
ATOM      3  C   UNL     1      -0.715  -1.238   0.000  0.00  0.00    +0.000 A 
ATOM      4  C   UNL     1       0.000  -1.650   0.000  0.00  0.00    +0.000 A 
ATOM      5  C   UNL     1       0.000  -2.475   0.000  0.00  0.00    +0.000 A 
ATOM      6  C   UNL     1      -0.715  -2.888   0.000  0.00  0.00    +0.000 A 
ENDROOT
BRANCH   4   7
ATOM      7  C   UNL     1       0.715  -1.238   0.000  0.00  0.00    +0.000 C 
ATOM      8  O   UNL     1       1.429  -1.650   0.000  0.00  0.00    +0.000 OA
BRANCH   7   9
ATOM      9  C   UNL     1       0.715  -0.412   0.000  0.00  0.00    +0.000 A 
ATOM     10  C   UNL     1       0.000   0.000   0.000  0.00  0.00    +0.000 A 
ATOM     11  C   UNL     1       0.000   0.825   0.000  0.00  0.00    +0.000 A 
ATOM     12  C   UNL     1       0.715   1.238   0.000  0.00  0.00    +0.000 A 
ATOM     13  C   UNL     1       1.429   0.825   0.000  0.00  0.00    +0.000 A 
ATOM     14  C   UNL     1       1.429   0.000   0.000  0.00  0.00    +0.000 A 
BRANCH  13  15
ATOM     15  C   UNL     1       2.143   1.238   0.000  0.00  0.00    +0.000 C 
ATOM     16  O   UNL     1       2.143   2.062   0.000  0.00  0.00    +0.000 OA
ATOM     17  O   UNL     1       2.858   0.825   0.000  0.00  0.00    +0.000 OA
ENDBRANCH  13  15
ENDBRANCH   7   9
ENDBRANCH   4   7
BRANCH   1  18
ATOM     18  C   UNL     1      -2.143  -2.888   0.000  0.00  0.00    +0.000 C 
BRANCH  18  19
ATOM     19  O   UNL     1      -2.143  -3.712   0.000  0.00  0.00    +0.000 OA
BRANCH  19  21
ATOM     20  C   UNL     1      -3.572  -3.712   0.000  0.00  0.00    +0.000 A 
ATOM     21  C   UNL     1      -2.858  -4.125   0.000  0.00  0.00    +0.000 A 
ATOM     22  C   UNL     1      -2.858  -4.950   0.000  0.00  0.00    +0.000 A 
ATOM     23  C   UNL     1      -3.572  -5.362   0.000  0.00  0.00    +0.000 A 
ATOM     24  C   UNL     1      -4.287  -4.950   0.000  0.00  0.00    +0.000 A 
ATOM     25  C   UNL     1      -4.287  -4.125   0.000  0.00  0.00    +0.000 A 
ATOM     26  O   UNL     1      -5.001  -3.712   0.000  0.00  0.00    +0.000 OA
BRANCH  24  27
ATOM     27  C   UNL     1      -5.001  -5.362   0.000  0.00  0.00    +0.000 C 
ATOM     28  O   UNL     1      -5.716  -4.950   0.000  0.00  0.00    +0.000 OA
ATOM     29  C   UNL     1      -5.001  -6.188   0.000  0.00  0.00    +0.000 C 
ENDBRANCH  24  27
BRANCH  20  30
ATOM     30  C   UNL     1      -3.572  -2.888   0.000  0.00  0.00    +0.000 C 
BRANCH  30  32
ATOM     31  C   UNL     1      -4.287  -1.650   0.000  0.00  0.00    +0.000 C 
ATOM     32  C   UNL     1      -4.287  -2.475   0.000  0.00  0.00    +0.000 C 
ENDBRANCH  30  32
ENDBRANCH  20  30
ENDBRANCH  19  21
ENDBRANCH  18  19
ENDBRANCH   1  18
TORSDOF 9
