REMARK  Name = 
REMARK  4 active torsions:
REMARK  status: ('A' for Active; 'I' for Inactive)
REMARK    1  A    between atoms: O_2  and  C_3
REMARK    2  A    between atoms: C_8  and  C_10
REMARK    3  A    between atoms: C_20  and  C_21
REMARK    4  A    between atoms: C_21  and  C_22
REMARK                            x       y       z     vdW  Elec       q    Type
REMARK                         _______ _______ _______ _____ _____    ______ ____
ROOT
ATOM      1  C   UNL     1       0.715  -1.238   0.000  0.00  0.00    +0.000 A 
ATOM      2  C   UNL     1       0.715  -0.412   0.000  0.00  0.00    +0.000 A 
ATOM      3  C   UNL     1       1.429   0.000   0.000  0.00  0.00    +0.000 A 
ATOM      4  O   UNL     1       1.429   0.825   0.000  0.00  0.00    +0.000 OA
ATOM      5  C   UNL     1       2.143  -0.412   0.000  0.00  0.00    +0.000 A 
ATOM      6  C   UNL     1       2.858   0.000   0.000  0.00  0.00    +0.000 A 
ATOM      7  O   UNL     1       2.858   0.825   0.000  0.00  0.00    +0.000 OA
ATOM      8  C   UNL     1       3.572  -0.412   0.000  0.00  0.00    +0.000 A 
ATOM      9  C   UNL     1       3.572  -1.238   0.000  0.00  0.00    +0.000 A 
ATOM     10  O   UNL     1       4.287  -1.650   0.000  0.00  0.00    +0.000 OA
ATOM     11  C   UNL     1       2.858  -1.650   0.000  0.00  0.00    +0.000 A 
ATOM     12  C   UNL     1       2.143  -1.238   0.000  0.00  0.00    +0.000 A 
ATOM     13  O   UNL     1       1.429  -1.650   0.000  0.00  0.00    +0.000 OA
ENDROOT
BRANCH   1  19
ATOM     14  C   UNL     1      -0.715  -2.888   0.000  0.00  0.00    +0.000 A 
ATOM     15  C   UNL     1      -1.429  -2.475   0.000  0.00  0.00    +0.000 A 
ATOM     16  O   UNL     1      -2.143  -2.888   0.000  0.00  0.00    +0.000 OA
ATOM     17  C   UNL     1      -1.429  -1.650   0.000  0.00  0.00    +0.000 A 
ATOM     18  C   UNL     1      -0.715  -1.238   0.000  0.00  0.00    +0.000 A 
ATOM     19  C   UNL     1       0.000  -1.650   0.000  0.00  0.00    +0.000 A 
ATOM     20  C   UNL     1       0.000  -2.475   0.000  0.00  0.00    +0.000 A 
BRANCH  14  22
ATOM     21  C   UNL     1      -1.429  -4.125   0.000  0.00  0.00    +0.000 C 
ATOM     22  O   UNL     1      -0.715  -3.712   0.000  0.00  0.00    +0.000 OA
ENDBRANCH  14  22
ENDBRANCH   1  19
BRANCH  11  23
ATOM     23  C   UNL     1       2.858  -2.475   0.000  0.00  0.00    +0.000 C 
BRANCH  23  24
ATOM     24  C   UNL     1       3.572  -2.888   0.000  0.00  0.00    +0.000 C 
ATOM     25  C   UNL     1       3.572  -3.712   0.000  0.00  0.00    +0.000 C 
ATOM     26  C   UNL     1       4.287  -4.125   0.000  0.00  0.00    +0.000 C 
ATOM     27  C   UNL     1       2.858  -4.125   0.000  0.00  0.00    +0.000 C 
ENDBRANCH  23  24
ENDBRANCH  11  23
TORSDOF 4
