REMARK  Name = 
REMARK  6 active torsions:
REMARK  status: ('A' for Active; 'I' for Inactive)
REMARK    1  A    between atoms: P_1  and  O_2
REMARK    2  A    between atoms: O_2  and  C_16
REMARK    3  A    between atoms: N_9  and  C_13
REMARK    4  A    between atoms: N_9  and  C_19
REMARK    5  A    between atoms: C_12  and  C_13
REMARK    6  A    between atoms: C_14  and  C_16
REMARK                            x       y       z     vdW  Elec       q    Type
REMARK                         _______ _______ _______ _____ _____    ______ ____
ROOT
ATOM      1  O   UNL     1      -2.501  -1.048   0.000  0.00  0.00    +0.000 OA
ATOM      2  N   UNL     1      -1.072  -2.698   0.000  0.00  0.00    +0.000 NA
ATOM      3  C   UNL     1      -1.072  -1.048   0.000  0.00  0.00    +0.000 A 
ATOM      4  C   UNL     1      -0.357  -1.460   0.000  0.00  0.00    +0.000 A 
ATOM      5  C   UNL     1      -1.786  -1.460   0.000  0.00  0.00    +0.000 A 
ATOM      6  C   UNL     1      -1.786  -2.285   0.000  0.00  0.00    +0.000 A 
ATOM      7  C   UNL     1      -0.357  -2.285   0.000  0.00  0.00    +0.000 A 
ATOM      8  C   UNL     1      -2.501  -2.698   0.000  0.00  0.00    +0.000 C 
ENDROOT
BRANCH   3   9
ATOM      9  C   UNL     1      -1.072  -0.223   0.000  0.00  0.00    +0.000 C 
BRANCH   9  10
ATOM     10  N   UNL     1      -0.357   0.190   0.000  0.00  0.00    +0.000 N 
ATOM     11  H   UNL     1       0.086  -0.066   0.000  0.00  0.00    +0.000 HD
BRANCH  10  15
ATOM     12  O   UNL     1       0.055   2.284   0.000  0.00  0.00    +0.000 OA
ATOM     13  O   UNL     1      -1.809   1.245   0.000  0.00  0.00    +0.000 OA
ATOM     14  N   UNL     1      -0.770   2.284   0.000  0.00  0.00    +0.000 N 
ATOM     15  C   UNL     1      -0.357   1.015   0.000  0.00  0.00    +0.000 A 
ATOM     16  C   UNL     1      -1.025   1.500   0.000  0.00  0.00    +0.000 A 
ATOM     17  C   UNL     1       0.310   1.500   0.000  0.00  0.00    +0.000 A 
ATOM     18  H   UNL     1      -1.070   2.698   0.000  0.00  0.00    +0.000 HD
ENDBRANCH  10  15
ENDBRANCH   9  10
ENDBRANCH   3   9
BRANCH   4  19
ATOM     19  C   UNL     1       0.357  -1.048   0.000  0.00  0.00    +0.000 C 
BRANCH  19  20
ATOM     20  O   UNL     1       1.072  -1.460   0.000  0.00  0.00    +0.000 OA
BRANCH  20  21
ATOM     21  P   UNL     1       1.786  -1.048   0.000  0.00  0.00    +0.000 P 
ATOM     22  O   UNL     1       2.199  -1.762   0.000  0.00  0.00    +0.000 OA
ATOM     23  O   UNL     1       2.501  -0.635   0.000  0.00  0.00    +0.000 OA
ATOM     24  O   UNL     1       1.374  -0.333   0.000  0.00  0.00    +0.000 OA
ENDBRANCH  20  21
ENDBRANCH  19  20
ENDBRANCH   4  19
TORSDOF 6
