REMARK  Name = 
REMARK  8 active torsions:
REMARK  status: ('A' for Active; 'I' for Inactive)
REMARK    1  A    between atoms: C_2  and  C_3
REMARK    2  A    between atoms: C_3  and  C_5
REMARK    3  A    between atoms: C_5  and  O_6
REMARK    4  A    between atoms: O_6  and  C_7
REMARK    5  A    between atoms: C_7  and  C_9
REMARK    6  A    between atoms: C_14  and  N_15
REMARK    7  A    between atoms: N_15  and  C_16
REMARK    8  A    between atoms: C_21  and  C_26
REMARK                            x       y       z     vdW  Elec       q    Type
REMARK                         _______ _______ _______ _____ _____    ______ ____
ROOT
ATOM      1  N   UNL     1       1.072   0.563   0.000  0.00  0.00    +0.000 NA
ENDROOT
BRANCH   1   2
ATOM      2  C   UNL     1       1.786   0.151   0.000  0.00  0.00    +0.000 A 
ATOM      3  C   UNL     1       2.501   0.563   0.000  0.00  0.00    +0.000 A 
ATOM      4  C   UNL     1       3.215   0.151   0.000  0.00  0.00    +0.000 A 
ATOM      5  N   UNL     1       3.215  -0.674   0.000  0.00  0.00    +0.000 NA
ATOM      6  C   UNL     1       2.501  -1.087   0.000  0.00  0.00    +0.000 A 
ATOM      7  C   UNL     1       2.501  -1.911   0.000  0.00  0.00    +0.000 A 
ATOM      8  C   UNL     1       1.786  -2.324   0.000  0.00  0.00    +0.000 A 
ATOM      9  C   UNL     1       1.072  -1.911   0.000  0.00  0.00    +0.000 A 
ATOM     10  C   UNL     1       1.072  -1.087   0.000  0.00  0.00    +0.000 A 
ATOM     11  C   UNL     1       1.786  -0.674   0.000  0.00  0.00    +0.000 A 
BRANCH   7  12
ATOM     12  C   UNL     1       3.215  -2.324   0.000  0.00  0.00    +0.000 C 
ATOM     13  F   UNL     1       3.929  -2.736   0.000  0.00  0.00    +0.000 F 
ATOM     14  F   UNL     1       2.803  -3.038   0.000  0.00  0.00    +0.000 F 
ATOM     15  F   UNL     1       3.628  -1.609   0.000  0.00  0.00    +0.000 F 
ENDBRANCH   7  12
ENDBRANCH   1   2
BRANCH   1  21
ATOM     16  C   UNL     1       0.357   1.801   0.000  0.00  0.00    +0.000 A 
ATOM     17  C   UNL     1       0.357   2.626   0.000  0.00  0.00    +0.000 A 
ATOM     18  C   UNL     1       1.072   3.038   0.000  0.00  0.00    +0.000 A 
ATOM     19  C   UNL     1       1.786   2.626   0.000  0.00  0.00    +0.000 A 
ATOM     20  C   UNL     1       1.786   1.801   0.000  0.00  0.00    +0.000 A 
ATOM     21  C   UNL     1       1.072   1.388   0.000  0.00  0.00    +0.000 A 
BRANCH  16  22
ATOM     22  C   UNL     1      -0.357   1.388   0.000  0.00  0.00    +0.000 C 
ATOM     23  O   UNL     1      -0.357   0.563   0.000  0.00  0.00    +0.000 OA
BRANCH  22  24
ATOM     24  O   UNL     1      -1.072   1.801   0.000  0.00  0.00    +0.000 OA
BRANCH  24  25
ATOM     25  C   UNL     1      -1.786   1.388   0.000  0.00  0.00    +0.000 C 
BRANCH  25  26
ATOM     26  C   UNL     1      -2.501   1.801   0.000  0.00  0.00    +0.000 C 
ATOM     27  O   UNL     1      -2.501   2.626   0.000  0.00  0.00    +0.000 OA
BRANCH  26  29
ATOM     28  O   UNL     1      -3.929   1.801   0.000  0.00  0.00    +0.000 OA
ATOM     29  C   UNL     1      -3.215   1.388   0.000  0.00  0.00    +0.000 C 
ENDBRANCH  26  29
ENDBRANCH  25  26
ENDBRANCH  24  25
ENDBRANCH  22  24
ENDBRANCH  16  22
ENDBRANCH   1  21
TORSDOF 8
