REMARK  Name = 
REMARK  15 active torsions:
REMARK  status: ('A' for Active; 'I' for Inactive)
REMARK    1  A    between atoms: C_9  and  C_21
REMARK    2  A    between atoms: C_21  and  C_22
REMARK    3  A    between atoms: C_22  and  C_23
REMARK    4  A    between atoms: C_23  and  C_24
REMARK    5  A    between atoms: C_24  and  C_25
REMARK    6  A    between atoms: C_25  and  C_26
REMARK    7  A    between atoms: C_26  and  C_27
REMARK    8  A    between atoms: C_27  and  C_28
REMARK    9  A    between atoms: C_28  and  C_29
REMARK   10  A    between atoms: C_29  and  S_30
REMARK   11  A    between atoms: S_30  and  C_32
REMARK   12  A    between atoms: C_32  and  C_33
REMARK   13  A    between atoms: C_33  and  C_34
REMARK   14  A    between atoms: C_34  and  C_35
REMARK   15  A    between atoms: C_35  and  C_36
REMARK                            x       y       z     vdW  Elec       q    Type
REMARK                         _______ _______ _______ _____ _____    ______ ____
ROOT
ATOM      1  C   UNL     1       0.715  -0.148   0.000  0.00  0.00    +0.000 C 
ENDROOT
BRANCH   1  10
ATOM      2  C   UNL     1      -2.143   1.502   0.000  0.00  0.00    +0.000 A 
ATOM      3  C   UNL     1      -2.857   1.089   0.000  0.00  0.00    +0.000 A 
ATOM      4  C   UNL     1      -2.857   0.264   0.000  0.00  0.00    +0.000 A 
ATOM      5  C   UNL     1      -2.143  -0.148   0.000  0.00  0.00    +0.000 A 
ATOM      6  C   UNL     1      -1.428   0.264   0.000  0.00  0.00    +0.000 A 
ATOM      7  C   UNL     1      -1.428   1.089   0.000  0.00  0.00    +0.000 A 
ATOM      8  C   UNL     1      -0.714   1.502   0.000  0.00  0.00    +0.000 C 
ATOM      9  C   UNL     1      -0.714  -0.148   0.000  0.00  0.00    +0.000 C 
ATOM     10  C   UNL     1       0.001   0.264   0.000  0.00  0.00    +0.000 C 
ATOM     11  C   UNL     1       0.001   1.089   0.000  0.00  0.00    +0.000 C 
ATOM     12  C   UNL     1       0.001   2.739   0.000  0.00  0.00    +0.000 C 
ATOM     13  C   UNL     1      -0.714   2.327   0.000  0.00  0.00    +0.000 C 
ATOM     14  C   UNL     1       0.715   1.502   0.000  0.00  0.00    +0.000 C 
ATOM     15  C   UNL     1       0.715   2.327   0.000  0.00  0.00    +0.000 C 
ATOM     16  C   UNL     1       1.500   2.582   0.000  0.00  0.00    +0.000 C 
ATOM     17  C   UNL     1       1.500   1.247   0.000  0.00  0.00    +0.000 C 
ATOM     18  C   UNL     1       1.985   1.915   0.000  0.00  0.00    +0.000 C 
ATOM     19  O   UNL     1      -3.572  -0.148   0.000  0.00  0.00    +0.000 OA
ATOM     20  O   UNL     1       1.713   3.379   0.000  0.00  0.00    +0.000 OA
ATOM     21  C   UNL     1       0.715   3.152   0.000  0.00  0.00    +0.000 C 
ENDBRANCH   1  10
BRANCH   1  22
ATOM     22  C   UNL     1       1.430   0.264   0.000  0.00  0.00    +0.000 C 
BRANCH  22  23
ATOM     23  C   UNL     1       2.144  -0.148   0.000  0.00  0.00    +0.000 C 
BRANCH  23  24
ATOM     24  C   UNL     1       2.859   0.264   0.000  0.00  0.00    +0.000 C 
BRANCH  24  25
ATOM     25  C   UNL     1       3.572  -0.148   0.000  0.00  0.00    +0.000 C 
BRANCH  25  26
ATOM     26  C   UNL     1       3.564  -0.973   0.000  0.00  0.00    +0.000 C 
BRANCH  26  27
ATOM     27  C   UNL     1       2.846  -1.379   0.000  0.00  0.00    +0.000 C 
BRANCH  27  28
ATOM     28  C   UNL     1       2.838  -2.204   0.000  0.00  0.00    +0.000 C 
BRANCH  28  29
ATOM     29  C   UNL     1       2.120  -2.610   0.000  0.00  0.00    +0.000 C 
BRANCH  29  30
ATOM     30  S   UNL     1       1.411  -2.188   0.000  0.00  0.00    +0.000 S 
ATOM     31  O   UNL     1       1.422  -1.363   0.000  0.00  0.00    +0.000 OA
BRANCH  30  32
ATOM     32  C   UNL     1       0.691  -2.591   0.000  0.00  0.00    +0.000 C 
BRANCH  32  33
ATOM     33  C   UNL     1      -0.018  -2.169   0.000  0.00  0.00    +0.000 C 
BRANCH  33  34
ATOM     34  C   UNL     1      -0.738  -2.572   0.000  0.00  0.00    +0.000 C 
BRANCH  34  35
ATOM     35  C   UNL     1      -1.447  -2.151   0.000  0.00  0.00    +0.000 C 
ATOM     36  F   UNL     1      -1.025  -1.442   0.000  0.00  0.00    +0.000 F 
ATOM     37  F   UNL     1      -1.850  -1.431   0.000  0.00  0.00    +0.000 F 
BRANCH  35  38
ATOM     38  C   UNL     1      -2.167  -2.554   0.000  0.00  0.00    +0.000 C 
ATOM     39  F   UNL     1      -2.876  -2.132   0.000  0.00  0.00    +0.000 F 
ATOM     40  F   UNL     1      -2.177  -3.379   0.000  0.00  0.00    +0.000 F 
ATOM     41  F   UNL     1      -2.895  -2.943   0.000  0.00  0.00    +0.000 F 
ENDBRANCH  35  38
ENDBRANCH  34  35
ENDBRANCH  33  34
ENDBRANCH  32  33
ENDBRANCH  30  32
ENDBRANCH  29  30
ENDBRANCH  28  29
ENDBRANCH  27  28
ENDBRANCH  26  27
ENDBRANCH  25  26
ENDBRANCH  24  25
ENDBRANCH  23  24
ENDBRANCH  22  23
ENDBRANCH   1  22
TORSDOF 15
