REMARK  Name = 
REMARK  2 active torsions:
REMARK  status: ('A' for Active; 'I' for Inactive)
REMARK    1  A    between atoms: C_1  and  C_3
REMARK    2  A    between atoms: N_2  and  C_4
REMARK                            x       y       z     vdW  Elec       q    Type
REMARK                         _______ _______ _______ _____ _____    ______ ____
ROOT
ATOM      1  C   UNL     1       1.448  -0.001   0.000  0.00  0.00    +0.000 C 
ATOM      2  N   UNL     1       1.024   0.713   0.000  0.00  0.00    +0.000 N 
ATOM      3  O   UNL     1       2.274  -0.001   0.000  0.00  0.00    +0.000 OA
ATOM      4  C   UNL     1       1.438   1.429   0.000  0.00  0.00    +0.000 C 
ENDROOT
BRANCH   2   5
ATOM      5  C   UNL     1       0.205   0.713   0.000  0.00  0.00    +0.000 A 
ATOM      6  C   UNL     1      -0.205   1.429   0.000  0.00  0.00    +0.000 A 
ATOM      7  C   UNL     1      -0.205   0.013   0.000  0.00  0.00    +0.000 A 
ATOM      8  C   UNL     1      -1.448   0.713   0.000  0.00  0.00    +0.000 A 
ATOM      9  C   UNL     1      -1.038   0.013   0.000  0.00  0.00    +0.000 A 
ATOM     10  C   UNL     1      -1.038   1.429   0.000  0.00  0.00    +0.000 A 
ATOM     11  O   UNL     1      -2.274   0.713   0.000  0.00  0.00    +0.000 OA
ENDBRANCH   2   5
BRANCH   1  12
ATOM     12  C   UNL     1       1.036  -0.713   0.000  0.00  0.00    +0.000 C 
ATOM     13 CL   UNL     1       1.448  -1.429   0.000  0.00  0.00    +0.000 Cl
ATOM     14 CL   UNL     1       0.217  -0.713   0.000  0.00  0.00    +0.000 Cl
ENDBRANCH   1  12
TORSDOF 2
