REMARK  Name = 
REMARK  15 active torsions:
REMARK  status: ('A' for Active; 'I' for Inactive)
REMARK    1  A    between atoms: C_4  and  C_7
REMARK    2  A    between atoms: C_5  and  O_28
REMARK    3  A    between atoms: C_6  and  O_29
REMARK    4  A    between atoms: C_7  and  C_8
REMARK    5  A    between atoms: C_8  and  C_9
REMARK    6  A    between atoms: C_9  and  C_10
REMARK    7  A    between atoms: C_10  and  C_11
REMARK    8  A    between atoms: C_11  and  C_12
REMARK    9  A    between atoms: C_12  and  C_13
REMARK   10  A    between atoms: C_13  and  C_14
REMARK   11  A    between atoms: C_14  and  O_30
REMARK   12  A    between atoms: C_19  and  C_24
REMARK   13  A    between atoms: C_21  and  O_30
REMARK   14  A    between atoms: C_22  and  O_28
REMARK   15  A    between atoms: C_24  and  O_29
REMARK                            x       y       z     vdW  Elec       q    Type
REMARK                         _______ _______ _______ _____ _____    ______ ____
ROOT
ATOM      1  C   UNL     1      12.861   7.425   0.000  0.00  0.00    +0.000 A 
ATOM      2  C   UNL     1      12.861   5.775   0.000  0.00  0.00    +0.000 A 
ATOM      3  C   UNL     1      15.004   6.188   0.000  0.00  0.00    +0.000 A 
ATOM      4  C   UNL     1      13.575   7.013   0.000  0.00  0.00    +0.000 A 
ATOM      5  C   UNL     1      15.004   7.013   0.000  0.00  0.00    +0.000 A 
ATOM      6  C   UNL     1      13.575   6.188   0.000  0.00  0.00    +0.000 A 
ATOM      7  C   UNL     1      12.146   7.013   0.000  0.00  0.00    +0.000 A 
ATOM      8  C   UNL     1      12.146   6.188   0.000  0.00  0.00    +0.000 A 
ATOM      9  C   UNL     1      14.289   7.425   0.000  0.00  0.00    +0.000 A 
ATOM     10  N   UNL     1      14.289   5.775   0.000  0.00  0.00    +0.000 NA
ATOM     11  O   UNL     1      14.289   8.250   0.000  0.00  0.00    +0.000 OA
ENDROOT
BRANCH   5  12
ATOM     12  C   UNL     1      15.718   7.425   0.000  0.00  0.00    +0.000 C 
ATOM     13  O   UNL     1      16.433   7.013   0.000  0.00  0.00    +0.000 OA
BRANCH  12  14
ATOM     14  O   UNL     1      15.718   8.250   0.000  0.00  0.00    +0.000 OA
BRANCH  14  16
ATOM     15  C   UNL     1      16.433   9.488   0.000  0.00  0.00    +0.000 C 
ATOM     16  C   UNL     1      16.433   8.662   0.000  0.00  0.00    +0.000 C 
ENDBRANCH  14  16
ENDBRANCH  12  14
ENDBRANCH   5  12
BRANCH   8  17
ATOM     17  O   UNL     1      11.431   5.775   0.000  0.00  0.00    +0.000 OA
BRANCH  17  19
ATOM     18  C   UNL     1      10.717   4.537   0.000  0.00  0.00    +0.000 C 
ATOM     19  C   UNL     1      11.431   4.950   0.000  0.00  0.00    +0.000 C 
ENDBRANCH  17  19
ENDBRANCH   8  17
BRANCH   7  20
ATOM     20  O   UNL     1      11.431   7.425   0.000  0.00  0.00    +0.000 OA
BRANCH  20  21
ATOM     21  C   UNL     1      10.717   7.013   0.000  0.00  0.00    +0.000 C 
BRANCH  21  22
ATOM     22  C   UNL     1      10.003   7.425   0.000  0.00  0.00    +0.000 C 
BRANCH  22  23
ATOM     23  C   UNL     1       9.288   7.013   0.000  0.00  0.00    +0.000 C 
BRANCH  23  24
ATOM     24  C   UNL     1       8.574   7.425   0.000  0.00  0.00    +0.000 C 
BRANCH  24  25
ATOM     25  C   UNL     1       7.859   7.013   0.000  0.00  0.00    +0.000 C 
BRANCH  25  26
ATOM     26  C   UNL     1       7.145   7.425   0.000  0.00  0.00    +0.000 C 
BRANCH  26  27
ATOM     27  C   UNL     1       6.430   7.013   0.000  0.00  0.00    +0.000 C 
BRANCH  27  28
ATOM     28  C   UNL     1       5.716   7.425   0.000  0.00  0.00    +0.000 C 
BRANCH  28  30
ATOM     29  C   UNL     1       4.287   7.425   0.000  0.00  0.00    +0.000 C 
ATOM     30  C   UNL     1       5.001   7.013   0.000  0.00  0.00    +0.000 C 
ENDBRANCH  28  30
ENDBRANCH  27  28
ENDBRANCH  26  27
ENDBRANCH  25  26
ENDBRANCH  24  25
ENDBRANCH  23  24
ENDBRANCH  22  23
ENDBRANCH  21  22
ENDBRANCH  20  21
ENDBRANCH   7  20
TORSDOF 15
