REMARK  Name = 
REMARK  2 active torsions:
REMARK  status: ('A' for Active; 'I' for Inactive)
REMARK    1  A    between atoms: N_1  and  C_2
REMARK    2  A    between atoms: C_3  and  C_4
REMARK                            x       y       z     vdW  Elec       q    Type
REMARK                         _______ _______ _______ _____ _____    ______ ____
ROOT
ATOM      1  C   UNL     1       0.627  -0.540   0.000  0.00  0.00    +0.000 C 
ATOM      2  C   UNL     1       0.714   0.281   0.000  0.00  0.00    +0.000 C 
ATOM      3 BR   UNL     1      -0.126  -0.876   0.000  0.00  0.00    +0.000 Br
ENDROOT
BRANCH   2   4
ATOM      4  C   UNL     1       0.046   0.765   0.000  0.00  0.00    +0.000 A 
ATOM      5  O   UNL     1      -0.739   0.510   0.000  0.00  0.00    +0.000 OA
ATOM      6  C   UNL     1      -1.223   1.178   0.000  0.00  0.00    +0.000 A 
ATOM      7 BR   UNL     1      -2.049   1.178   0.000  0.00  0.00    +0.000 Br
ATOM      8  C   UNL     1      -0.739   1.845   0.000  0.00  0.00    +0.000 A 
ATOM      9  C   UNL     1       0.046   1.590   0.000  0.00  0.00    +0.000 A 
ENDBRANCH   2   4
BRANCH   1  10
ATOM     10  N   UNL     1       1.295  -1.025   0.000  0.00  0.00    +0.000 N 
ATOM     11  O   UNL     1       1.208  -1.845   0.000  0.00  0.00    +0.000 OA
ATOM     12  O   UNL     1       2.049  -0.689   0.000  0.00  0.00    +0.000 OA
ENDBRANCH   1  10
TORSDOF 2
