REMARK  Name = 
REMARK  12 active torsions:
REMARK  status: ('A' for Active; 'I' for Inactive)
REMARK    1  A    between atoms: C_2  and  C_3
REMARK    2  A    between atoms: C_3  and  C_4
REMARK    3  A    between atoms: C_4  and  C_5
REMARK    4  A    between atoms: C_5  and  C_6
REMARK    5  A    between atoms: C_6  and  C_7
REMARK    6  A    between atoms: C_16  and  C_17
REMARK    7  A    between atoms: C_17  and  C_18
REMARK    8  A    between atoms: C_17  and  C_20
REMARK    9  A    between atoms: C_24  and  N_25
REMARK   10  A    between atoms: N_25  and  S_26
REMARK   11  A    between atoms: S_26  and  C_29
REMARK   12  A    between atoms: C_32  and  C_35
REMARK                            x       y       z     vdW  Elec       q    Type
REMARK                         _______ _______ _______ _____ _____    ______ ____
ROOT
ATOM      1  C   UNL     1       5.001  -4.537   0.000  0.00  0.00    +0.000 C 
ENDROOT
BRANCH   1   6
ATOM      2  C   UNL     1       5.001  -2.062   0.000  0.00  0.00    +0.000 C 
ATOM      3  C   UNL     1       5.716  -2.475   0.000  0.00  0.00    +0.000 C 
ATOM      4  C   UNL     1       5.716  -3.300   0.000  0.00  0.00    +0.000 C 
ATOM      5  O   UNL     1       6.430  -3.712   0.000  0.00  0.00    +0.000 OA
ATOM      6  C   UNL     1       5.001  -3.712   0.000  0.00  0.00    +0.000 C 
ATOM      7  C   UNL     1       4.287  -3.300   0.000  0.00  0.00    +0.000 C 
ATOM      8  O   UNL     1       3.572  -3.712   0.000  0.00  0.00    +0.000 OA
ATOM      9  O   UNL     1       4.287  -2.475   0.000  0.00  0.00    +0.000 OA
BRANCH   2  10
ATOM     10  C   UNL     1       4.471  -1.431   0.000  0.00  0.00    +0.000 C 
BRANCH  10  11
ATOM     11  C   UNL     1       4.753  -0.655   0.000  0.00  0.00    +0.000 C 
BRANCH  11  12
ATOM     12  C   UNL     1       5.566  -0.512   0.000  0.00  0.00    +0.000 A 
ATOM     13  C   UNL     1       5.848   0.263   0.000  0.00  0.00    +0.000 A 
ATOM     14  C   UNL     1       6.660   0.406   0.000  0.00  0.00    +0.000 A 
ATOM     15  C   UNL     1       7.191  -0.226   0.000  0.00  0.00    +0.000 A 
ATOM     16  C   UNL     1       6.908  -1.001   0.000  0.00  0.00    +0.000 A 
ATOM     17  C   UNL     1       6.096  -1.144   0.000  0.00  0.00    +0.000 A 
ENDBRANCH  11  12
ENDBRANCH  10  11
ENDBRANCH   2  10
BRANCH   2  18
ATOM     18  C   UNL     1       5.532  -1.431   0.000  0.00  0.00    +0.000 C 
BRANCH  18  20
ATOM     19  C   UNL     1       6.626  -2.349   0.000  0.00  0.00    +0.000 C 
ATOM     20  C   UNL     1       6.344  -1.574   0.000  0.00  0.00    +0.000 C 
ENDBRANCH  18  20
ENDBRANCH   2  18
ENDBRANCH   1   6
BRANCH   1  21
ATOM     21  C   UNL     1       5.716  -4.950   0.000  0.00  0.00    +0.000 A 
ATOM     22  C   UNL     1       6.430  -4.537   0.000  0.00  0.00    +0.000 A 
ATOM     23  C   UNL     1       7.145  -4.950   0.000  0.00  0.00    +0.000 A 
ATOM     24  C   UNL     1       7.145  -5.775   0.000  0.00  0.00    +0.000 A 
ATOM     25  C   UNL     1       6.430  -6.188   0.000  0.00  0.00    +0.000 A 
ATOM     26  C   UNL     1       5.716  -5.775   0.000  0.00  0.00    +0.000 A 
BRANCH  25  27
ATOM     27  N   UNL     1       6.430  -7.013   0.000  0.00  0.00    +0.000 NA
BRANCH  27  28
ATOM     28  S   UNL     1       5.716  -7.425   0.000  0.00  0.00    +0.000 S 
ATOM     29  O   UNL     1       5.303  -6.710   0.000  0.00  0.00    +0.000 OA
ATOM     30  O   UNL     1       6.128  -8.139   0.000  0.00  0.00    +0.000 OA
BRANCH  28  31
ATOM     31  C   UNL     1       5.001  -7.838   0.000  0.00  0.00    +0.000 A 
ATOM     32  N   UNL     1       5.001  -8.662   0.000  0.00  0.00    +0.000 NA
ATOM     33  C   UNL     1       4.287  -9.075   0.000  0.00  0.00    +0.000 A 
ATOM     34  C   UNL     1       3.572  -8.662   0.000  0.00  0.00    +0.000 A 
ATOM     35  C   UNL     1       3.572  -7.838   0.000  0.00  0.00    +0.000 A 
ATOM     36  C   UNL     1       4.287  -7.425   0.000  0.00  0.00    +0.000 A 
BRANCH  34  37
ATOM     37  C   UNL     1       2.858  -9.075   0.000  0.00  0.00    +0.000 C 
ATOM     38  F   UNL     1       2.143  -9.488   0.000  0.00  0.00    +0.000 F 
ATOM     39  F   UNL     1       2.445  -8.361   0.000  0.00  0.00    +0.000 F 
ATOM     40  F   UNL     1       3.270  -9.790   0.000  0.00  0.00    +0.000 F 
ENDBRANCH  34  37
ENDBRANCH  28  31
ENDBRANCH  27  28
ENDBRANCH  25  27
ENDBRANCH   1  21
BRANCH   1  41
ATOM     41  C   UNL     1       4.287  -4.950   0.000  0.00  0.00    +0.000 C 
ATOM     42  C   UNL     1       4.287  -5.775   0.000  0.00  0.00    +0.000 C 
ENDBRANCH   1  41
TORSDOF 12
