REMARK  Name = 
REMARK  13 active torsions:
REMARK  status: ('A' for Active; 'I' for Inactive)
REMARK    1  A    between atoms: C_2  and  C_3
REMARK    2  A    between atoms: C_3  and  C_4
REMARK    3  A    between atoms: C_4  and  C_5
REMARK    4  A    between atoms: C_5  and  C_6
REMARK    5  A    between atoms: C_6  and  C_8
REMARK    6  A    between atoms: N_10  and  C_11
REMARK    7  A    between atoms: C_14  and  C_17
REMARK    8  A    between atoms: C_17  and  C_19
REMARK    9  A    between atoms: C_19  and  N_20
REMARK   10  A    between atoms: C_21  and  C_29
REMARK   11  A    between atoms: N_34  and  C_35
REMARK   12  A    between atoms: C_35  and  C_36
REMARK   13  A    between atoms: C_36  and  C_37
REMARK                            x       y       z     vdW  Elec       q    Type
REMARK                         _______ _______ _______ _____ _____    ______ ____
ROOT
ATOM      1  C   UNL     1       0.990   8.996   0.000  0.00  0.00    +0.000 C 
ENDROOT
BRANCH   1   2
ATOM      2  N   UNL     1       0.990   9.821   0.000  0.00  0.00    +0.000 N 
ATOM      3  C   UNL     1       1.657  10.306   0.000  0.00  0.00    +0.000 A 
ATOM      4  N   UNL     1       1.402  11.090   0.000  0.00  0.00    +0.000 NA
ATOM      5  C   UNL     1       0.577  11.090   0.000  0.00  0.00    +0.000 A 
ATOM      6  C   UNL     1       0.322  10.306   0.000  0.00  0.00    +0.000 A 
ATOM      7  C   UNL     1      -0.485  10.134   0.000  0.00  0.00    +0.000 A 
ATOM      8  C   UNL     1      -1.037  10.747   0.000  0.00  0.00    +0.000 A 
ATOM      9  C   UNL     1      -0.782  11.532   0.000  0.00  0.00    +0.000 A 
ATOM     10  C   UNL     1       0.025  11.704   0.000  0.00  0.00    +0.000 A 
BRANCH   3  11
ATOM     11  C   UNL     1       2.442  10.051   0.000  0.00  0.00    +0.000 A 
ATOM     12  N   UNL     1       3.109  10.536   0.000  0.00  0.00    +0.000 NA
ATOM     13  O   UNL     1       3.777  10.051   0.000  0.00  0.00    +0.000 OA
ATOM     14  N   UNL     1       3.522   9.266   0.000  0.00  0.00    +0.000 NA
ATOM     15  C   UNL     1       2.697   9.266   0.000  0.00  0.00    +0.000 A 
ATOM     16  N   UNL     1       2.212   8.599   0.000  0.00  0.00    +0.000 NA
BRANCH  16  17
ATOM     17  C   UNL     1       2.547   7.845   0.000  0.00  0.00    +0.000 C 
BRANCH  17  18
ATOM     18  C   UNL     1       3.368   7.759   0.000  0.00  0.00    +0.000 C 
BRANCH  18  19
ATOM     19  C   UNL     1       3.853   8.426   0.000  0.00  0.00    +0.000 C 
ATOM     20  N   UNL     1       4.338   9.094   0.000  0.00  0.00    +0.000 NA
ENDBRANCH  18  19
ENDBRANCH  17  18
ENDBRANCH  16  17
ENDBRANCH   3  11
ENDBRANCH   1   2
BRANCH   1  21
ATOM     21  C   UNL     1       0.275   8.583   0.000  0.00  0.00    +0.000 C 
ATOM     22  O   UNL     1      -0.439   8.996   0.000  0.00  0.00    +0.000 OA
BRANCH  21  26
ATOM     23  C   UNL     1       0.275   6.108   0.000  0.00  0.00    +0.000 A 
ATOM     24  C   UNL     1      -0.439   6.521   0.000  0.00  0.00    +0.000 A 
ATOM     25  C   UNL     1      -0.439   7.346   0.000  0.00  0.00    +0.000 A 
ATOM     26  C   UNL     1       0.275   7.758   0.000  0.00  0.00    +0.000 A 
ATOM     27  C   UNL     1       0.990   7.346   0.000  0.00  0.00    +0.000 A 
ATOM     28  C   UNL     1       0.990   6.521   0.000  0.00  0.00    +0.000 A 
BRANCH  23  31
ATOM     29  C   UNL     1      -0.439   4.871   0.000  0.00  0.00    +0.000 C 
ATOM     30  O   UNL     1      -0.439   4.046   0.000  0.00  0.00    +0.000 OA
ATOM     31  N   UNL     1       0.275   5.283   0.000  0.00  0.00    +0.000 NA
BRANCH  29  32
ATOM     32  C   UNL     1      -1.154   5.283   0.000  0.00  0.00    +0.000 C 
ATOM     33  N   UNL     1      -1.154   6.108   0.000  0.00  0.00    +0.000 NA
BRANCH  32  34
ATOM     34  C   UNL     1      -1.868   4.871   0.000  0.00  0.00    +0.000 C 
BRANCH  34  35
ATOM     35  C   UNL     1      -2.583   5.283   0.000  0.00  0.00    +0.000 C 
BRANCH  35  36
ATOM     36  C   UNL     1      -3.297   4.871   0.000  0.00  0.00    +0.000 C 
BRANCH  36  38
ATOM     37  N   UNL     1      -4.726   4.871   0.000  0.00  0.00    +0.000 NA
ATOM     38  C   UNL     1      -4.012   5.283   0.000  0.00  0.00    +0.000 C 
ENDBRANCH  36  38
ENDBRANCH  35  36
ENDBRANCH  34  35
ENDBRANCH  32  34
ENDBRANCH  29  32
ENDBRANCH  23  31
ENDBRANCH  21  26
ENDBRANCH   1  21
TORSDOF 13
