REMARK  Name = 
REMARK  8 active torsions:
REMARK  status: ('A' for Active; 'I' for Inactive)
REMARK    1  A    between atoms: N_9  and  C_10
REMARK    2  A    between atoms: C_10  and  C_12
REMARK    3  A    between atoms: C_16  and  N_17
REMARK    4  A    between atoms: N_17  and  CA_21
REMARK    5  A    between atoms: C_19  and  CA_21
REMARK    6  A    between atoms: CA_21  and  C_22
REMARK    7  A    between atoms: C_22  and  C_23
REMARK    8  A    between atoms: C_23  and  C_24
REMARK                            x       y       z     vdW  Elec       q    Type
REMARK                         _______ _______ _______ _____ _____    ______ ____
ROOT
ATOM      1  C   UNL     1      -0.795   0.830   0.000  0.00  0.00    +0.000 C 
ATOM      2  C   UNL     1       0.028   0.830   0.000  0.00  0.00    +0.000 C 
ATOM      3  C   UNL     1      -1.132  -0.613   0.000  0.00  0.00    +0.000 A 
ATOM      4  C   UNL     1      -1.311   0.187   0.000  0.00  0.00    +0.000 A 
ATOM      5  C   UNL     1      -1.738  -1.179   0.000  0.00  0.00    +0.000 A 
ATOM      6  C   UNL     1      -2.521  -0.936   0.000  0.00  0.00    +0.000 A 
ATOM      7  C   UNL     1      -2.704  -0.131   0.000  0.00  0.00    +0.000 A 
ATOM      8  C   UNL     1      -2.102   0.431   0.000  0.00  0.00    +0.000 A 
ATOM      9  N   UNL     1      -0.386  -0.976   0.000  0.00  0.00    +0.000 N 
ATOM     10  C   UNL     1       0.356  -0.618   0.000  0.00  0.00    +0.000 C 
ATOM     11  O   UNL     1       0.999  -1.135   0.000  0.00  0.00    +0.000 OA
ATOM     12  C   UNL     1       0.538   0.188   0.000  0.00  0.00    +0.000 C 
ENDROOT
BRANCH   9  13
ATOM     13  C   UNL     1      -0.391  -1.803   0.000  0.00  0.00    +0.000 C 
BRANCH  13  15
ATOM     14  O   UNL     1       1.040  -1.806   0.000  0.00  0.00    +0.000 OA
ATOM     15  C   UNL     1       0.326  -2.218   0.000  0.00  0.00    +0.000 C 
ATOM     16  O   UNL     1       0.322  -3.044   0.000  0.00  0.00    +0.000 OA
ENDBRANCH  13  15
ENDBRANCH   9  13
BRANCH  12  17
ATOM     17  N   UNL     1       1.263   0.577   0.000  0.00  0.00    +0.000 NA
BRANCH  17  18
ATOM     18  CA  UNL     1       1.274   1.404   0.000  0.00  0.00    +0.000 C 
BRANCH  18  20
ATOM     19  O   UNL     1       1.986   2.650   0.000  0.00  0.00    +0.000 OA
ATOM     20  C   UNL     1       1.986   1.821   0.000  0.00  0.00    +0.000 C 
ATOM     21  OXT UNL     1       2.704   1.415   0.000  0.00  0.00    +0.000 OA
ENDBRANCH  18  20
BRANCH  18  22
ATOM     22  C   UNL     1       0.560   1.812   0.000  0.00  0.00    +0.000 C 
BRANCH  22  23
ATOM     23  C   UNL     1      -0.152   1.396   0.000  0.00  0.00    +0.000 C 
BRANCH  23  24
ATOM     24  C   UNL     1      -0.871   1.806   0.000  0.00  0.00    +0.000 A 
ATOM     25  C   UNL     1      -1.586   3.044   0.000  0.00  0.00    +0.000 A 
ATOM     26  C   UNL     1      -0.874   2.631   0.000  0.00  0.00    +0.000 A 
ATOM     27  C   UNL     1      -1.583   1.389   0.000  0.00  0.00    +0.000 A 
ATOM     28  C   UNL     1      -2.302   1.800   0.000  0.00  0.00    +0.000 A 
ATOM     29  C   UNL     1      -2.303   2.630   0.000  0.00  0.00    +0.000 A 
ENDBRANCH  23  24
ENDBRANCH  22  23
ENDBRANCH  18  22
ENDBRANCH  17  18
ENDBRANCH  12  17
TORSDOF 8
