REMARK  Name = 
REMARK  7 active torsions:
REMARK  status: ('A' for Active; 'I' for Inactive)
REMARK    1  A    between atoms: C_4  and  N_22
REMARK    2  A    between atoms: N_9  and  C_10
REMARK    3  A    between atoms: C_12  and  C_15
REMARK    4  A    between atoms: C_15  and  O_16
REMARK    5  A    between atoms: O_16  and  C_17
REMARK    6  A    between atoms: C_17  and  C_19
REMARK    7  A    between atoms: N_22  and  C_23
REMARK                            x       y       z     vdW  Elec       q    Type
REMARK                         _______ _______ _______ _____ _____    ______ ____
ROOT
ATOM      1  C   UNL     1       0.654  -0.698   0.000  0.00  0.00    +0.000 A 
ATOM      2  N   UNL     1       1.139  -0.030   0.000  0.00  0.00    +0.000 NA
ATOM      3  C   UNL     1       1.923  -0.285   0.000  0.00  0.00    +0.000 A 
ATOM      4  C   UNL     1       2.638   0.127   0.000  0.00  0.00    +0.000 A 
ATOM      5  N   UNL     1       3.352  -0.285   0.000  0.00  0.00    +0.000 NA
ATOM      6  C   UNL     1       3.352  -1.110   0.000  0.00  0.00    +0.000 A 
ATOM      7  N   UNL     1       2.638  -1.523   0.000  0.00  0.00    +0.000 NA
ATOM      8  C   UNL     1       1.923  -1.110   0.000  0.00  0.00    +0.000 A 
ATOM      9  N   UNL     1       1.139  -1.365   0.000  0.00  0.00    +0.000 N 
ATOM     10  N   UNL     1       4.067  -1.523   0.000  0.00  0.00    +0.000 NA
ENDROOT
BRANCH   9  11
ATOM     11  C   UNL     1       0.884  -2.150   0.000  0.00  0.00    +0.000 C 
ATOM     12  C   UNL     1       1.369  -2.817   0.000  0.00  0.00    +0.000 C 
ATOM     13  C   UNL     1       0.884  -3.485   0.000  0.00  0.00    +0.000 C 
ATOM     14  C   UNL     1       0.099  -3.230   0.000  0.00  0.00    +0.000 C 
ATOM     15  C   UNL     1       0.099  -2.405   0.000  0.00  0.00    +0.000 C 
BRANCH  13  16
ATOM     16  C   UNL     1       1.139  -4.269   0.000  0.00  0.00    +0.000 C 
BRANCH  16  17
ATOM     17  O   UNL     1       0.587  -4.883   0.000  0.00  0.00    +0.000 OA
BRANCH  17  18
ATOM     18  C   UNL     1       0.842  -5.667   0.000  0.00  0.00    +0.000 C 
ATOM     19  O   UNL     1       1.649  -5.839   0.000  0.00  0.00    +0.000 OA
BRANCH  18  20
ATOM     20  C   UNL     1       0.290  -6.280   0.000  0.00  0.00    +0.000 C 
ATOM     21  O   UNL     1       0.544  -7.065   0.000  0.00  0.00    +0.000 OA
ENDBRANCH  18  20
ENDBRANCH  17  18
ENDBRANCH  16  17
ENDBRANCH  13  16
ENDBRANCH   9  11
BRANCH   4  22
ATOM     22  N   UNL     1       2.638   0.952   0.000  0.00  0.00    +0.000 NA
BRANCH  22  23
ATOM     23  C   UNL     1       3.352   1.365   0.000  0.00  0.00    +0.000 C 
ATOM     24  C   UNL     1       3.765   2.079   0.000  0.00  0.00    +0.000 C 
ATOM     25  C   UNL     1       4.177   1.365   0.000  0.00  0.00    +0.000 C 
ENDBRANCH  22  23
ENDBRANCH   4  22
TORSDOF 7
