REMARK  Name = 
REMARK  4 active torsions:
REMARK  status: ('A' for Active; 'I' for Inactive)
REMARK    1  A    between atoms: O_2  and  C_3
REMARK    2  A    between atoms: C_8  and  O_9
REMARK    3  A    between atoms: C_17  and  O_25
REMARK    4  A    between atoms: C_18  and  O_23
REMARK                            x       y       z     vdW  Elec       q    Type
REMARK                         _______ _______ _______ _____ _____    ______ ____
ROOT
ATOM      1  C   UNL     1       3.477  -0.669   0.000  0.00  0.00    +0.000 A 
ATOM      2  C   UNL     1       3.747  -1.449   0.000  0.00  0.00    +0.000 A 
ATOM      3  C   UNL     1       4.557  -1.605   0.000  0.00  0.00    +0.000 A 
ATOM      4  C   UNL     1       5.097  -0.981   0.000  0.00  0.00    +0.000 A 
ATOM      5  C   UNL     1       4.827  -0.201   0.000  0.00  0.00    +0.000 A 
ATOM      6  C   UNL     1       4.017  -0.045   0.000  0.00  0.00    +0.000 A 
ATOM      7  C   UNL     1       5.367   0.422   0.000  0.00  0.00    +0.000 C 
ATOM      8  N   UNL     1       6.177   0.266   0.000  0.00  0.00    +0.000 NA
ATOM      9  C   UNL     1       6.717   0.890   0.000  0.00  0.00    +0.000 C 
ATOM     10  C   UNL     1       7.527   0.734   0.000  0.00  0.00    +0.000 C 
ATOM     11  C   UNL     1       7.797  -0.045   0.000  0.00  0.00    +0.000 A 
ATOM     12  C   UNL     1       8.607  -0.201   0.000  0.00  0.00    +0.000 A 
ATOM     13  C   UNL     1       8.878  -0.981   0.000  0.00  0.00    +0.000 A 
ATOM     14  C   UNL     1       8.338  -1.605   0.000  0.00  0.00    +0.000 A 
ATOM     15  C   UNL     1       7.527  -1.449   0.000  0.00  0.00    +0.000 A 
ATOM     16  C   UNL     1       7.257  -0.669   0.000  0.00  0.00    +0.000 A 
ATOM     17  C   UNL     1       6.447  -0.513   0.000  0.00  0.00    +0.000 C 
ATOM     18  C   UNL     1       5.907  -1.137   0.000  0.00  0.00    +0.000 C 
ENDROOT
BRANCH   1  20
ATOM     19  C   UNL     1       2.127  -1.137   0.000  0.00  0.00    +0.000 C 
ATOM     20  O   UNL     1       2.667  -0.513   0.000  0.00  0.00    +0.000 OA
ENDBRANCH   1  20
BRANCH   6  21
ATOM     21  O   UNL     1       3.747   0.734   0.000  0.00  0.00    +0.000 OA
ATOM     22  C   UNL     1       2.937   0.890   0.000  0.00  0.00    +0.000 C 
ENDBRANCH   6  21
BRANCH  14  23
ATOM     23  O   UNL     1       8.607  -2.384   0.000  0.00  0.00    +0.000 OA
ATOM     24  C   UNL     1       8.068  -3.008   0.000  0.00  0.00    +0.000 C 
ENDBRANCH  14  23
BRANCH  13  25
ATOM     25  O   UNL     1       9.688  -1.137   0.000  0.00  0.00    +0.000 OA
ATOM     26  C   UNL     1      10.228  -0.513   0.000  0.00  0.00    +0.000 C 
ENDBRANCH  13  25
TORSDOF 4
