REMARK  Name = 
REMARK  7 active torsions:
REMARK  status: ('A' for Active; 'I' for Inactive)
REMARK    1  A    between atoms: C_6  and  C_43
REMARK    2  A    between atoms: C_14  and  O_19
REMARK    3  A    between atoms: O_19  and  C_20
REMARK    4  A    between atoms: C_21  and  O_30
REMARK    5  A    between atoms: C_24  and  C_26
REMARK    6  A    between atoms: O_30  and  C_31
REMARK    7  A    between atoms: C_35  and  C_37
REMARK                            x       y       z     vdW  Elec       q    Type
REMARK                         _______ _______ _______ _____ _____    ______ ____
ROOT
ATOM      1  O   UNL     1       0.550  -1.370   0.000  0.00  0.00    +0.000 OA
ENDROOT
BRANCH   1  15
ATOM      2  C   UNL     1       3.467  -1.160   0.000  0.00  0.00    +0.000 C 
ATOM      3  C   UNL     1       3.708  -0.371   0.000  0.00  0.00    +0.000 C 
ATOM      4  C   UNL     1       4.266  -0.978   0.000  0.00  0.00    +0.000 C 
ATOM      5  C   UNL     1       5.071  -0.799   0.000  0.00  0.00    +0.000 C 
ATOM      6  C   UNL     1       5.318  -0.012   0.000  0.00  0.00    +0.000 C 
ATOM      7  C   UNL     1       4.760   0.596   0.000  0.00  0.00    +0.000 C 
ATOM      8  C   UNL     1       3.955   0.416   0.000  0.00  0.00    +0.000 C 
ATOM      9  C   UNL     1       3.401   1.041   0.000  0.00  0.00    +0.000 C 
ATOM     10  C   UNL     1       2.592   0.872   0.000  0.00  0.00    +0.000 C 
ATOM     11  C   UNL     1       2.289   0.085   0.000  0.00  0.00    +0.000 C 
ATOM     12  C   UNL     1       2.889  -0.568   0.000  0.00  0.00    +0.000 C 
ATOM     13  C   UNL     1       2.646  -1.413   0.000  0.00  0.00    +0.000 C 
ATOM     14  C   UNL     1       1.800  -1.574   0.000  0.00  0.00    +0.000 C 
ATOM     15  C   UNL     1       1.239  -0.916   0.000  0.00  0.00    +0.000 C 
ATOM     16  C   UNL     1       1.815  -0.449   0.000  0.00  0.00    +0.000 C 
ATOM     17  C   UNL     1       0.857  -0.142   0.000  0.00  0.00    +0.000 C 
ATOM     18  C   UNL     1       0.043  -0.004   0.000  0.00  0.00    +0.000 C 
ATOM     19  C   UNL     1       1.478   0.466   0.000  0.00  0.00    +0.000 C 
ATOM     20  C   UNL     1       5.348   1.175   0.000  0.00  0.00    +0.000 C 
BRANCH   7  21
ATOM     21  C   UNL     1       4.609   1.407   0.000  0.00  0.00    +0.000 C 
ATOM     22  O   UNL     1       3.831   1.681   0.000  0.00  0.00    +0.000 OA
ATOM     23  O   UNL     1       5.235   1.944   0.000  0.00  0.00    +0.000 OA
ENDBRANCH   7  21
ENDBRANCH   1  15
BRANCH   1  24
ATOM     24  C   UNL     1       0.599  -2.193   0.000  0.00  0.00    +0.000 C 
ATOM     25  C   UNL     1      -0.089  -2.647   0.000  0.00  0.00    +0.000 C 
ATOM     26  C   UNL     1      -0.041  -3.471   0.000  0.00  0.00    +0.000 C 
ATOM     27  C   UNL     1       0.697  -3.841   0.000  0.00  0.00    +0.000 C 
ATOM     28  C   UNL     1       1.386  -3.386   0.000  0.00  0.00    +0.000 C 
ATOM     29  O   UNL     1       1.337  -2.563   0.000  0.00  0.00    +0.000 OA
ATOM     30  O   UNL     1       0.746  -4.664   0.000  0.00  0.00    +0.000 OA
ATOM     31  O   UNL     1      -0.729  -3.925   0.000  0.00  0.00    +0.000 OA
BRANCH  28  32
ATOM     32  C   UNL     1       2.123  -3.756   0.000  0.00  0.00    +0.000 C 
ATOM     33  O   UNL     1       2.172  -4.580   0.000  0.00  0.00    +0.000 OA
ENDBRANCH  28  32
BRANCH  25  34
ATOM     34  O   UNL     1      -0.827  -2.278   0.000  0.00  0.00    +0.000 OA
BRANCH  34  35
ATOM     35  C   UNL     1      -1.516  -2.732   0.000  0.00  0.00    +0.000 C 
ATOM     36  C   UNL     1      -2.254  -2.363   0.000  0.00  0.00    +0.000 C 
ATOM     37  C   UNL     1      -2.942  -2.817   0.000  0.00  0.00    +0.000 C 
ATOM     38  C   UNL     1      -2.893  -3.640   0.000  0.00  0.00    +0.000 C 
ATOM     39  C   UNL     1      -2.156  -4.010   0.000  0.00  0.00    +0.000 C 
ATOM     40  O   UNL     1      -1.467  -3.556   0.000  0.00  0.00    +0.000 OA
ATOM     41  O   UNL     1      -3.582  -4.094   0.000  0.00  0.00    +0.000 OA
ATOM     42  O   UNL     1      -3.680  -2.447   0.000  0.00  0.00    +0.000 OA
ATOM     43  O   UNL     1      -2.302  -1.539   0.000  0.00  0.00    +0.000 OA
BRANCH  39  44
ATOM     44  C   UNL     1      -2.107  -4.833   0.000  0.00  0.00    +0.000 C 
ATOM     45  O   UNL     1      -2.796  -5.287   0.000  0.00  0.00    +0.000 OA
ENDBRANCH  39  44
ENDBRANCH  34  35
ENDBRANCH  25  34
ENDBRANCH   1  24
TORSDOF 7
