REMARK  Name = 
REMARK  5 active torsions:
REMARK  status: ('A' for Active; 'I' for Inactive)
REMARK    1  A    between atoms: O_1  and  C_7
REMARK    2  A    between atoms: O_1  and  C_17
REMARK    3  A    between atoms: C_13  and  C_14
REMARK    4  A    between atoms: C_14  and  C_17
REMARK    5  A    between atoms: C_14  and  C_21
REMARK                            x       y       z     vdW  Elec       q    Type
REMARK                         _______ _______ _______ _____ _____    ______ ____
ROOT
ATOM      1  O   UNL     1       1.121   0.796   0.000  0.00  0.00    +0.000 OA
ATOM      2  C   UNL     1       0.406   1.209   0.000  0.00  0.00    +0.000 C 
ENDROOT
BRANCH   2   3
ATOM      3  C   UNL     1      -0.308   1.621   0.000  0.00  0.00    +0.000 A 
ATOM      4  C   UNL     1      -1.023   1.209   0.000  0.00  0.00    +0.000 A 
ATOM      5  C   UNL     1      -0.308   2.446   0.000  0.00  0.00    +0.000 A 
ATOM      6  C   UNL     1      -1.737   1.621   0.000  0.00  0.00    +0.000 A 
ATOM      7  C   UNL     1      -1.023   2.859   0.000  0.00  0.00    +0.000 A 
ATOM      8  C   UNL     1      -1.737   2.446   0.000  0.00  0.00    +0.000 A 
ENDBRANCH   2   3
BRANCH   2   9
ATOM      9  C   UNL     1       0.819   1.923   0.000  0.00  0.00    +0.000 C 
ATOM     10  C   UNL     1       0.483   2.677   0.000  0.00  0.00    +0.000 C 
ATOM     11  C   UNL     1       1.639   2.010   0.000  0.00  0.00    +0.000 C 
ATOM     12  C   UNL     1       1.096   3.229   0.000  0.00  0.00    +0.000 C 
ATOM     13  C   UNL     1       1.811   2.817   0.000  0.00  0.00    +0.000 C 
ENDBRANCH   2   9
BRANCH   2  15
ATOM     14  O   UNL     1      -0.831   0.494   0.000  0.00  0.00    +0.000 OA
ATOM     15  C   UNL     1      -0.006   0.494   0.000  0.00  0.00    +0.000 C 
BRANCH  15  16
ATOM     16  O   UNL     1       0.406  -0.220   0.000  0.00  0.00    +0.000 OA
BRANCH  16  20
ATOM     17  N   UNL     1       1.291  -2.795   0.000  0.00  0.00    +0.000 NA
ATOM     18  C   UNL     1      -0.401  -2.542   0.000  0.00  0.00    +0.000 C 
ATOM     19  C   UNL     1      -0.614  -1.745   0.000  0.00  0.00    +0.000 C 
ATOM     20  C   UNL     1      -0.006  -0.934   0.000  0.00  0.00    +0.000 C 
ATOM     21  C   UNL     1      -1.450  -3.198   0.000  0.00  0.00    +0.000 C 
ATOM     22  C   UNL     1      -1.795  -1.908   0.000  0.00  0.00    +0.000 C 
ATOM     23  C   UNL     1       0.607  -3.256   0.000  0.00  0.00    +0.000 C 
ATOM     24  C   UNL     1       1.063  -2.002   0.000  0.00  0.00    +0.000 C 
ATOM     25  C   UNL     1      -2.091  -2.679   0.000  0.00  0.00    +0.000 C 
ATOM     26  C   UNL     1       2.066  -3.077   0.000  0.00  0.00    +0.000 C 
ENDBRANCH  16  20
ENDBRANCH  15  16
ENDBRANCH   2  15
TORSDOF 5
