REMARK  Name = 
REMARK  7 active torsions:
REMARK  status: ('A' for Active; 'I' for Inactive)
REMARK    1  A    between atoms: C_2  and  C_3
REMARK    2  A    between atoms: C_3  and  N_4
REMARK    3  A    between atoms: N_4  and  C_5
REMARK    4  A    between atoms: C_8  and  C_9
REMARK    5  A    between atoms: C_9  and  C_10
REMARK    6  A    between atoms: N_12  and  C_13
REMARK    7  A    between atoms: C_19  and  C_20
REMARK                            x       y       z     vdW  Elec       q    Type
REMARK                         _______ _______ _______ _____ _____    ______ ____
ROOT
ATOM      1  C   UNL     1       0.000   0.825   0.000  0.00  0.00    +0.000 C 
ATOM      2  O   UNL     1      -0.715   1.238   0.000  0.00  0.00    +0.000 OA
ATOM      3  N   UNL     1       0.000   0.000   0.000  0.00  0.00    +0.000 NA
ENDROOT
BRANCH   3   4
ATOM      4  C   UNL     1       0.715  -0.412   0.000  0.00  0.00    +0.000 C 
ATOM      5  C   UNL     1       1.429   0.000   0.000  0.00  0.00    +0.000 C 
ATOM      6  C   UNL     1       2.143  -0.412   0.000  0.00  0.00    +0.000 A 
ATOM      7  C   UNL     1       2.858   0.000   0.000  0.00  0.00    +0.000 A 
ATOM      8  C   UNL     1       3.572  -0.412   0.000  0.00  0.00    +0.000 A 
ATOM      9  C   UNL     1       3.572  -1.238   0.000  0.00  0.00    +0.000 A 
ATOM     10  C   UNL     1       2.858  -1.650   0.000  0.00  0.00    +0.000 A 
ATOM     11  C   UNL     1       2.143  -1.238   0.000  0.00  0.00    +0.000 A 
ATOM     12  O   UNL     1       1.429  -1.650   0.000  0.00  0.00    +0.000 OA
ATOM     13  B   UNL     1       0.715  -1.238   0.000  0.00  0.00    +0.000 B 
ATOM     14  O   UNL     1       0.000  -1.650   0.000  0.00  0.00    +0.000 OA
BRANCH  10  15
ATOM     15  C   UNL     1       2.858  -2.475   0.000  0.00  0.00    +0.000 C 
ATOM     16  O   UNL     1       3.572  -2.888   0.000  0.00  0.00    +0.000 OA
ATOM     17  O   UNL     1       2.143  -2.888   0.000  0.00  0.00    +0.000 OA
ENDBRANCH  10  15
ENDBRANCH   3   4
BRANCH   1  18
ATOM     18  C   UNL     1       0.715   1.238   0.000  0.00  0.00    +0.000 C 
BRANCH  18  22
ATOM     19  C   UNL     1       0.715   3.712   0.000  0.00  0.00    +0.000 C 
ATOM     20  C   UNL     1       1.429   3.300   0.000  0.00  0.00    +0.000 C 
ATOM     21  C   UNL     1       1.429   2.475   0.000  0.00  0.00    +0.000 C 
ATOM     22  C   UNL     1       0.715   2.062   0.000  0.00  0.00    +0.000 C 
ATOM     23  C   UNL     1       0.000   2.475   0.000  0.00  0.00    +0.000 C 
ATOM     24  C   UNL     1       0.000   3.300   0.000  0.00  0.00    +0.000 C 
BRANCH  19  25
ATOM     25  N   UNL     1       0.715   4.537   0.000  0.00  0.00    +0.000 NA
BRANCH  25  26
ATOM     26  C   UNL     1       0.000   4.950   0.000  0.00  0.00    +0.000 C 
BRANCH  26  28
ATOM     27  N   UNL     1      -0.715   6.188   0.000  0.00  0.00    +0.000 NA
ATOM     28  C   UNL     1       0.000   5.775   0.000  0.00  0.00    +0.000 C 
ENDBRANCH  26  28
ENDBRANCH  25  26
ENDBRANCH  19  25
ENDBRANCH  18  22
ENDBRANCH   1  18
TORSDOF 7
