REMARK  Name = 
REMARK  5 active torsions:
REMARK  status: ('A' for Active; 'I' for Inactive)
REMARK    1  A    between atoms: C_4  and  C_7
REMARK    2  A    between atoms: C_10  and  S_12
REMARK    3  A    between atoms: S_12  and  C_13
REMARK    4  A    between atoms: C_14  and  C_25
REMARK    5  A    between atoms: C_19  and  C_22
REMARK                            x       y       z     vdW  Elec       q    Type
REMARK                         _______ _______ _______ _____ _____    ______ ____
ROOT
ATOM      1  C   UNL     1       1.947   1.345   0.000  0.00  0.00    +0.000 C 
ATOM      2  C   UNL     1       1.462   0.677   0.000  0.00  0.00    +0.000 C 
ATOM      3  N   UNL     1       0.677   0.932   0.000  0.00  0.00    +0.000 N 
ATOM      4  C   UNL     1       0.677   1.757   0.000  0.00  0.00    +0.000 C 
ATOM      5  C   UNL     1       1.462   2.012   0.000  0.00  0.00    +0.000 C 
ATOM      6  C   UNL     1       1.717   2.797   0.000  0.00  0.00    +0.000 C 
ATOM      7  C   UNL     1      -0.148   1.757   0.000  0.00  0.00    +0.000 C 
ATOM      8  C   UNL     1      -0.148   0.932   0.000  0.00  0.00    +0.000 C 
ATOM      9  O   UNL     1      -0.731   0.349   0.000  0.00  0.00    +0.000 OA
ENDROOT
BRANCH   7  10
ATOM     10  C   UNL     1      -0.731   2.341   0.000  0.00  0.00    +0.000 C 
ATOM     11  C   UNL     1      -1.528   2.127   0.000  0.00  0.00    +0.000 C 
ATOM     12  O   UNL     1      -0.517   3.138   0.000  0.00  0.00    +0.000 OA
ENDBRANCH   7  10
BRANCH   2  13
ATOM     13  C   UNL     1       1.717  -0.107   0.000  0.00  0.00    +0.000 C 
ATOM     14  O   UNL     1       1.165  -0.720   0.000  0.00  0.00    +0.000 OA
ATOM     15  O   UNL     1       2.524  -0.279   0.000  0.00  0.00    +0.000 OA
ENDBRANCH   2  13
BRANCH   1  16
ATOM     16  S   UNL     1       2.772   1.345   0.000  0.00  0.00    +0.000 S 
BRANCH  16  20
ATOM     17  C   UNL     1       4.176   2.953   0.000  0.00  0.00    +0.000 A 
ATOM     18  C   UNL     1       3.462   3.365   0.000  0.00  0.00    +0.000 A 
ATOM     19  S   UNL     1       2.849   2.813   0.000  0.00  0.00    +0.000 S 
ATOM     20  C   UNL     1       3.184   2.059   0.000  0.00  0.00    +0.000 A 
ATOM     21  N   UNL     1       4.005   2.146   0.000  0.00  0.00    +0.000 NA
BRANCH  17  25
ATOM     22  C   UNL     1       7.065   3.256   0.000  0.00  0.00    +0.000 C 
ATOM     23  C   UNL     1       6.258   3.428   0.000  0.00  0.00    +0.000 C 
ATOM     24  C   UNL     1       5.644   2.876   0.000  0.00  0.00    +0.000 C 
ATOM     25  C   UNL     1       4.930   3.288   0.000  0.00  0.00    +0.000 C 
ATOM     26  C   UNL     1       5.102   4.095   0.000  0.00  0.00    +0.000 C 
ATOM     27  N   UNL     1       5.922   4.181   0.000  0.00  0.00    +0.000 NA
ENDBRANCH  17  25
ENDBRANCH  16  20
ENDBRANCH   1  16
TORSDOF 5
