REMARK  Name = 
REMARK  0 active torsions:
REMARK  status: ('A' for Active; 'I' for Inactive)
REMARK                            x       y       z     vdW  Elec       q    Type
REMARK                         _______ _______ _______ _____ _____    ______ ____
ROOT
ATOM      1  C   UNL     1       4.059   1.303   0.000  0.00  0.00    +0.000 C 
ATOM      2  N   UNL     1       3.804   2.087   0.000  0.00  0.00    +0.000 NA
ATOM      3  C   UNL     1       4.731   2.319   0.000  0.00  0.00    +0.000 C 
ATOM      4  C   UNL     1       4.216   2.964   0.000  0.00  0.00    +0.000 C 
ATOM      5  C   UNL     1       3.391   2.964   0.000  0.00  0.00    +0.000 C 
ATOM      6  C   UNL     1       2.877   2.319   0.000  0.00  0.00    +0.000 C 
ATOM      7  C   UNL     1       3.060   1.515   0.000  0.00  0.00    +0.000 C 
ATOM      8  C   UNL     1       3.804   1.157   0.000  0.00  0.00    +0.000 C 
ATOM      9  C   UNL     1       3.804   0.332   0.000  0.00  0.00    +0.000 C 
ATOM     10  C   UNL     1       4.547  -0.026   0.000  0.00  0.00    +0.000 A 
ATOM     11  C   UNL     1       5.152   0.535   0.000  0.00  0.00    +0.000 A 
ATOM     12  C   UNL     1       5.940   0.292   0.000  0.00  0.00    +0.000 A 
ATOM     13  C   UNL     1       6.124  -0.512   0.000  0.00  0.00    +0.000 A 
ATOM     14  C   UNL     1       5.519  -1.073   0.000  0.00  0.00    +0.000 A 
ATOM     15  C   UNL     1       4.731  -0.830   0.000  0.00  0.00    +0.000 A 
ATOM     16  C   UNL     1       4.216  -1.475   0.000  0.00  0.00    +0.000 C 
ATOM     17  S   UNL     1       3.391  -1.475   0.000  0.00  0.00    +0.000 S 
ATOM     18  C   UNL     1       2.877  -0.830   0.000  0.00  0.00    +0.000 A 
ATOM     19  C   UNL     1       3.060  -0.026   0.000  0.00  0.00    +0.000 A 
ATOM     20  C   UNL     1       2.456   0.535   0.000  0.00  0.00    +0.000 A 
ATOM     21  C   UNL     1       1.667   0.292   0.000  0.00  0.00    +0.000 A 
ATOM     22  C   UNL     1       1.484  -0.512   0.000  0.00  0.00    +0.000 A 
ATOM     23  C   UNL     1       2.088  -1.073   0.000  0.00  0.00    +0.000 A 
ATOM     24  C   UNL     1       4.547   1.515   0.000  0.00  0.00    +0.000 C 
ENDROOT
TORSDOF 0
