REMARK  Name = 
REMARK  7 active torsions:
REMARK  status: ('A' for Active; 'I' for Inactive)
REMARK    1  A    between atoms: C_1  and  C_13
REMARK    2  A    between atoms: C_4  and  C_7
REMARK    3  A    between atoms: C_8  and  C_9
REMARK    4  A    between atoms: C_13  and  N_14
REMARK    5  A    between atoms: N_14  and  C_15
REMARK    6  A    between atoms: C_15  and  C_16
REMARK    7  A    between atoms: C_16  and  C_17
REMARK                            x       y       z     vdW  Elec       q    Type
REMARK                         _______ _______ _______ _____ _____    ______ ____
ROOT
ATOM      1  C   UNL     1      -0.227  -0.598   0.000  0.00  0.00    +0.000 C 
ENDROOT
BRANCH   1   2
ATOM      2  C   UNL     1       0.516  -0.185   0.000  0.00  0.00    +0.000 A 
ATOM      3  C   UNL     1       0.516   0.639   0.000  0.00  0.00    +0.000 A 
ATOM      4  C   UNL     1       1.217   1.052   0.000  0.00  0.00    +0.000 A 
ATOM      5  C   UNL     1       1.960   0.639   0.000  0.00  0.00    +0.000 A 
ATOM      6  C   UNL     1       1.960  -0.185   0.000  0.00  0.00    +0.000 A 
ATOM      7  C   UNL     1       1.217  -0.598   0.000  0.00  0.00    +0.000 A 
BRANCH   5   8
ATOM      8  C   UNL     1       2.661   1.052   0.000  0.00  0.00    +0.000 C 
ATOM      9  C   UNL     1       3.363   0.639   0.000  0.00  0.00    +0.000 C 
BRANCH   9  10
ATOM     10  C   UNL     1       4.064   1.052   0.000  0.00  0.00    +0.000 C 
ATOM     11  N   UNL     1       4.765   0.639   0.000  0.00  0.00    +0.000 NA
ATOM     12  O   UNL     1       4.064   1.919   0.000  0.00  0.00    +0.000 OA
ATOM     13  O   UNL     1       5.467   1.052   0.000  0.00  0.00    +0.000 OA
ENDBRANCH   9  10
ENDBRANCH   5   8
ENDBRANCH   1   2
BRANCH   1  14
ATOM     14  N   UNL     1      -0.928  -0.185   0.000  0.00  0.00    +0.000 NA
BRANCH  14  15
ATOM     15  C   UNL     1      -1.630  -0.598   0.000  0.00  0.00    +0.000 C 
BRANCH  15  16
ATOM     16  C   UNL     1      -2.331  -0.185   0.000  0.00  0.00    +0.000 C 
BRANCH  16  17
ATOM     17  C   UNL     1      -3.032  -0.598   0.000  0.00  0.00    +0.000 A 
ATOM     18  C   UNL     1      -3.032  -1.423   0.000  0.00  0.00    +0.000 A 
ATOM     19  N   UNL     1      -3.816  -1.671   0.000  0.00  0.00    +0.000 NA
ATOM     20  C   UNL     1      -4.311  -1.011   0.000  0.00  0.00    +0.000 A 
ATOM     21  C   UNL     1      -3.816  -0.350   0.000  0.00  0.00    +0.000 A 
ATOM     22  C   UNL     1      -5.137  -0.928   0.000  0.00  0.00    +0.000 A 
ATOM     23  C   UNL     1      -5.467  -0.144   0.000  0.00  0.00    +0.000 A 
ATOM     24  C   UNL     1      -4.972   0.516   0.000  0.00  0.00    +0.000 A 
ATOM     25  C   UNL     1      -4.146   0.433   0.000  0.00  0.00    +0.000 A 
ATOM     26  C   UNL     1      -2.372  -1.919   0.000  0.00  0.00    +0.000 C 
ENDBRANCH  16  17
ENDBRANCH  15  16
ENDBRANCH  14  15
ENDBRANCH   1  14
TORSDOF 7
