REMARK  Name = 
REMARK  19 active torsions:
REMARK  status: ('A' for Active; 'I' for Inactive)
REMARK    1  A    between atoms: C_2  and  C_3
REMARK    2  A    between atoms: C_3  and  N_4
REMARK    3  A    between atoms: C_5  and  C_6
REMARK    4  A    between atoms: C_6  and  N_7
REMARK    5  A    between atoms: C_6  and  C_12
REMARK    6  A    between atoms: C_8  and  C_16
REMARK    7  A    between atoms: C_12  and  C_13
REMARK    8  A    between atoms: C_13  and  C_14
REMARK    9  A    between atoms: C_14  and  N_15
REMARK   10  A    between atoms: C_21  and  C_22
REMARK   11  A    between atoms: C_25  and  C_32
REMARK   12  A    between atoms: C_32  and  C_33
REMARK   13  A    between atoms: C_37  and  C_39
REMARK   14  A    between atoms: C_39  and  C_40
REMARK   15  A    between atoms: C_40  and  C_41
REMARK   16  A    between atoms: C_45  and  C_47
REMARK   17  A    between atoms: C_47  and  C_48
REMARK   18  A    between atoms: C_60  and  C_63
REMARK   19  A    between atoms: C_63  and  C_65
REMARK                            x       y       z     vdW  Elec       q    Type
REMARK                         _______ _______ _______ _____ _____    ______ ____
ROOT
ATOM      1  C   UNL     1       0.315  -1.798   0.000  0.00  0.00    +0.000 C 
ATOM      2  N   UNL     1       1.034  -2.202   0.000  0.00  0.00    +0.000 NA
ATOM      3  C   UNL     1       1.708  -1.798   0.000  0.00  0.00    +0.000 C 
ATOM      4  C   UNL     1       2.427  -2.202   0.000  0.00  0.00    +0.000 C 
ATOM      5  N   UNL     1       3.146  -1.798   0.000  0.00  0.00    +0.000 NA
ATOM      6  C   UNL     1       0.315  -0.989   0.000  0.00  0.00    +0.000 C 
ATOM      7  S   UNL     1      -0.404  -0.584   0.000  0.00  0.00    +0.000 S 
ATOM      8  S   UNL     1      -0.404   0.225   0.000  0.00  0.00    +0.000 S 
ATOM      9  O   UNL     1       1.708  -0.989   0.000  0.00  0.00    +0.000 OA
ATOM     10  C   UNL     1       3.146  -0.989   0.000  0.00  0.00    +0.000 C 
ATOM     11  C   UNL     1       3.865  -0.584   0.000  0.00  0.00    +0.000 C 
ATOM     12  O   UNL     1       2.427  -0.584   0.000  0.00  0.00    +0.000 OA
ATOM     13  N   UNL     1       3.865   0.225   0.000  0.00  0.00    +0.000 NA
ATOM     14  C   UNL     1       3.146   1.483   0.000  0.00  0.00    +0.000 C 
ATOM     15  C   UNL     1       3.146   0.629   0.000  0.00  0.00    +0.000 C 
ATOM     16  N   UNL     1       0.315   1.483   0.000  0.00  0.00    +0.000 NA
ATOM     17  C   UNL     1      -0.404   1.887   0.000  0.00  0.00    +0.000 C 
ATOM     18  C   UNL     1      -1.123   1.483   0.000  0.00  0.00    +0.000 C 
ATOM     19  C   UNL     1      -1.123   0.629   0.000  0.00  0.00    +0.000 C 
ATOM     20  C   UNL     1       1.708   1.483   0.000  0.00  0.00    +0.000 C 
ATOM     21  O   UNL     1       1.708   0.629   0.000  0.00  0.00    +0.000 OA
ATOM     22  C   UNL     1       1.034   1.887   0.000  0.00  0.00    +0.000 C 
ATOM     23  N   UNL     1       2.427   1.887   0.000  0.00  0.00    +0.000 NA
ATOM     24  O   UNL     1       2.427   0.225   0.000  0.00  0.00    +0.000 OA
ATOM     25  O   UNL     1      -0.404   2.696   0.000  0.00  0.00    +0.000 OA
ENDROOT
BRANCH   1  31
ATOM     26  C   UNL     1      -1.798  -2.292   0.000  0.00  0.00    +0.000 C 
ATOM     27  C   UNL     1      -2.427  -1.798   0.000  0.00  0.00    +0.000 C 
ATOM     28  N   UNL     1      -1.123  -1.798   0.000  0.00  0.00    +0.000 N 
ATOM     29  C   UNL     1      -2.202  -1.034   0.000  0.00  0.00    +0.000 C 
ATOM     30  C   UNL     1      -1.393  -1.034   0.000  0.00  0.00    +0.000 C 
ATOM     31  C   UNL     1      -0.404  -2.202   0.000  0.00  0.00    +0.000 C 
ATOM     32  O   UNL     1      -0.404  -3.056   0.000  0.00  0.00    +0.000 OA
BRANCH  26  34
ATOM     33  N   UNL     1      -2.472  -3.505   0.000  0.00  0.00    +0.000 NA
ATOM     34  C   UNL     1      -1.798  -3.101   0.000  0.00  0.00    +0.000 C 
ATOM     35  O   UNL     1      -1.079  -3.505   0.000  0.00  0.00    +0.000 OA
BRANCH  33  36
ATOM     36  C   UNL     1      -3.191  -3.101   0.000  0.00  0.00    +0.000 C 
BRANCH  36  38
ATOM     37  N   UNL     1      -4.629  -3.101   0.000  0.00  0.00    +0.000 NA
ATOM     38  C   UNL     1      -3.910  -3.505   0.000  0.00  0.00    +0.000 C 
ATOM     39  O   UNL     1      -3.910  -4.359   0.000  0.00  0.00    +0.000 OA
BRANCH  37  40
ATOM     40  C   UNL     1      -5.348  -3.505   0.000  0.00  0.00    +0.000 C 
BRANCH  40  42
ATOM     41  N   UNL     1      -6.741  -3.505   0.000  0.00  0.00    +0.000 NA
ATOM     42  C   UNL     1      -6.067  -3.101   0.000  0.00  0.00    +0.000 C 
ATOM     43  O   UNL     1      -6.067  -2.292   0.000  0.00  0.00    +0.000 OA
ENDBRANCH  40  42
ENDBRANCH  37  40
ENDBRANCH  36  38
BRANCH  36  44
ATOM     44  C   UNL     1      -3.191  -2.292   0.000  0.00  0.00    +0.000 C 
BRANCH  44  45
ATOM     45  C   UNL     1      -3.910  -1.887   0.000  0.00  0.00    +0.000 C 
BRANCH  45  46
ATOM     46  C   UNL     1      -3.910  -1.079   0.000  0.00  0.00    +0.000 C 
BRANCH  46  47
ATOM     47  N   UNL     1      -4.629  -0.674   0.000  0.00  0.00    +0.000 NA
ATOM     48  C   UNL     1      -5.348  -1.079   0.000  0.00  0.00    +0.000 C 
ATOM     49  N   UNL     1      -5.348  -1.887   0.000  0.00  0.00    +0.000 NA
ATOM     50  N   UNL     1      -6.067  -0.674   0.000  0.00  0.00    +0.000 NA
ENDBRANCH  46  47
ENDBRANCH  45  46
ENDBRANCH  44  45
ENDBRANCH  36  44
ENDBRANCH  33  36
ENDBRANCH  26  34
ENDBRANCH   1  31
BRANCH  11  51
ATOM     51  C   UNL     1       4.584  -0.989   0.000  0.00  0.00    +0.000 C 
BRANCH  51  52
ATOM     52  C   UNL     1       5.303  -0.584   0.000  0.00  0.00    +0.000 C 
BRANCH  52  53
ATOM     53  C   UNL     1       6.022  -0.989   0.000  0.00  0.00    +0.000 C 
ATOM     54  N   UNL     1       6.741  -0.584   0.000  0.00  0.00    +0.000 NA
ATOM     55  O   UNL     1       6.022  -1.843   0.000  0.00  0.00    +0.000 OA
ENDBRANCH  52  53
ENDBRANCH  51  52
ENDBRANCH  11  51
BRANCH  14  56
ATOM     56  C   UNL     1       3.865   1.887   0.000  0.00  0.00    +0.000 C 
BRANCH  56  57
ATOM     57  C   UNL     1       4.584   1.483   0.000  0.00  0.00    +0.000 A 
ATOM     58  C   UNL     1       4.584   0.629   0.000  0.00  0.00    +0.000 A 
ATOM     59  C   UNL     1       6.022   1.483   0.000  0.00  0.00    +0.000 A 
ATOM     60  C   UNL     1       6.022   0.629   0.000  0.00  0.00    +0.000 A 
ATOM     61  C   UNL     1       5.303   1.887   0.000  0.00  0.00    +0.000 A 
ATOM     62  C   UNL     1       5.303   0.225   0.000  0.00  0.00    +0.000 A 
ENDBRANCH  56  57
ENDBRANCH  14  56
BRANCH  22  63
ATOM     63  C   UNL     1       1.034   2.696   0.000  0.00  0.00    +0.000 C 
BRANCH  63  65
ATOM     64  C   UNL     1       2.427   2.696   0.000  0.00  0.00    +0.000 A 
ATOM     65  C   UNL     1       1.708   3.101   0.000  0.00  0.00    +0.000 A 
ATOM     66  C   UNL     1       3.146   3.101   0.000  0.00  0.00    +0.000 A 
ATOM     67  C   UNL     1       3.146   3.955   0.000  0.00  0.00    +0.000 A 
ATOM     68  C   UNL     1       1.708   3.955   0.000  0.00  0.00    +0.000 A 
ATOM     69  C   UNL     1       2.427   4.359   0.000  0.00  0.00    +0.000 A 
ATOM     70  O   UNL     1       3.865   4.359   0.000  0.00  0.00    +0.000 OA
ENDBRANCH  63  65
ENDBRANCH  22  63
BRANCH   4  71
ATOM     71  C   UNL     1       2.427  -3.056   0.000  0.00  0.00    +0.000 C 
BRANCH  71  72
ATOM     72  C   UNL     1       3.146  -3.461   0.000  0.00  0.00    +0.000 C 
ATOM     73  O   UNL     1       3.146  -4.269   0.000  0.00  0.00    +0.000 OA
ATOM     74  N   UNL     1       3.865  -3.056   0.000  0.00  0.00    +0.000 NA
ENDBRANCH  71  72
ENDBRANCH   4  71
TORSDOF 19
