REMARK  Name = 
REMARK  5 active torsions:
REMARK  status: ('A' for Active; 'I' for Inactive)
REMARK    1  A    between atoms: C_6  and  C_9
REMARK    2  A    between atoms: C_9  and  C_10
REMARK    3  A    between atoms: C_9  and  C_11
REMARK    4  A    between atoms: C_10  and  N_12
REMARK    5  A    between atoms: C_11  and  N_14
REMARK                            x       y       z     vdW  Elec       q    Type
REMARK                         _______ _______ _______ _____ _____    ______ ____
ROOT
ATOM      1  C   UNL     1      17.271 -33.886   0.000  0.00  0.00    +0.000 C 
ATOM      2  O   UNL     1      17.986 -34.216   0.000  0.00  0.00    +0.000 OA
ENDROOT
BRANCH   1   8
ATOM      3  C   UNL     1      16.557 -35.124   0.000  0.00  0.00    +0.000 A 
ATOM      4  C   UNL     1      16.557 -35.949   0.000  0.00  0.00    +0.000 A 
ATOM      5  C   UNL     1      17.271 -36.361   0.000  0.00  0.00    +0.000 A 
ATOM      6  C   UNL     1      17.986 -35.949   0.000  0.00  0.00    +0.000 A 
ATOM      7  C   UNL     1      17.986 -35.124   0.000  0.00  0.00    +0.000 A 
ATOM      8  C   UNL     1      17.271 -34.711   0.000  0.00  0.00    +0.000 A 
ATOM      9  F   UNL     1      17.271 -37.186   0.000  0.00  0.00    +0.000 F 
ATOM     10  F   UNL     1      18.712 -34.705   0.000  0.00  0.00    +0.000 F 
ENDBRANCH   1   8
BRANCH   1  11
ATOM     11  C   UNL     1      16.547 -33.468   0.000  0.00  0.00    +0.000 C 
ATOM     12  C   UNL     1      16.547 -32.649   0.000  0.00  0.00    +0.000 C 
BRANCH  11  13
ATOM     13  N   UNL     1      15.838 -33.877   0.000  0.00  0.00    +0.000 NA
ATOM     14  C   UNL     1      15.140 -33.475   0.000  0.00  0.00    +0.000 C 
ATOM     15  C   UNL     1      14.426 -33.887   0.000  0.00  0.00    +0.000 C 
ATOM     16  C   UNL     1      14.426 -34.712   0.000  0.00  0.00    +0.000 C 
ATOM     17  C   UNL     1      15.123 -35.115   0.000  0.00  0.00    +0.000 C 
ATOM     18  C   UNL     1      15.837 -34.703   0.000  0.00  0.00    +0.000 C 
ATOM     19  C   UNL     1      13.701 -35.131   0.000  0.00  0.00    +0.000 C 
ENDBRANCH  11  13
ENDBRANCH   1  11
BRANCH   1  20
ATOM     20  C   UNL     1      17.976 -33.479   0.000  0.00  0.00    +0.000 C 
BRANCH  20  21
ATOM     21  N   UNL     1      17.976 -32.654   0.000  0.00  0.00    +0.000 N 
ATOM     22  C   UNL     1      18.635 -32.175   0.000  0.00  0.00    +0.000 A 
ATOM     23  N   UNL     1      18.383 -31.400   0.000  0.00  0.00    +0.000 NA
ATOM     24  C   UNL     1      17.568 -31.400   0.000  0.00  0.00    +0.000 A 
ATOM     25  N   UNL     1      17.317 -32.175   0.000  0.00  0.00    +0.000 NA
ENDBRANCH  20  21
ENDBRANCH   1  20
TORSDOF 5
