REMARK  Name = 
REMARK  9 active torsions:
REMARK  status: ('A' for Active; 'I' for Inactive)
REMARK    1  A    between atoms: C_2  and  O_4
REMARK    2  A    between atoms: O_4  and  C_5
REMARK    3  A    between atoms: C_16  and  C_34
REMARK    4  A    between atoms: C_21  and  N_22
REMARK    5  A    between atoms: N_22  and  C_23
REMARK    6  A    between atoms: N_22  and  C_26
REMARK    7  A    between atoms: C_23  and  C_24
REMARK    8  A    between atoms: C_26  and  C_27
REMARK    9  A    between atoms: C_34  and  O_35
REMARK                            x       y       z     vdW  Elec       q    Type
REMARK                         _______ _______ _______ _____ _____    ______ ____
ROOT
ATOM      1  C   UNL     1       8.574  -1.650   0.000  0.00  0.00    +0.000 C 
ATOM      2  C   UNL     1       9.288  -1.238   0.000  0.00  0.00    +0.000 C 
ATOM      3  C   UNL     1       9.288  -0.412   0.000  0.00  0.00    +0.000 C 
ATOM      4  C   UNL     1       8.574   0.000   0.000  0.00  0.00    +0.000 C 
ATOM      5  C   UNL     1       8.745   0.807   0.000  0.00  0.00    +0.000 C 
ATOM      6  C   UNL     1       9.566   0.893   0.000  0.00  0.00    +0.000 C 
ATOM      7  C   UNL     1       9.901   0.140   0.000  0.00  0.00    +0.000 C 
ATOM      8  O   UNL     1      10.708  -0.032   0.000  0.00  0.00    +0.000 OA
ATOM      9  C   UNL     1       7.859  -0.412   0.000  0.00  0.00    +0.000 C 
ATOM     10  C   UNL     1       7.859  -1.238   0.000  0.00  0.00    +0.000 C 
ATOM     11  C   UNL     1       7.145  -1.650   0.000  0.00  0.00    +0.000 C 
ATOM     12  C   UNL     1       7.145  -2.475   0.000  0.00  0.00    +0.000 C 
ATOM     13  O   UNL     1       6.430  -2.888   0.000  0.00  0.00    +0.000 OA
ATOM     14  C   UNL     1       5.716  -2.475   0.000  0.00  0.00    +0.000 C 
ATOM     15  O   UNL     1       5.001  -2.888   0.000  0.00  0.00    +0.000 OA
ATOM     16  C   UNL     1       5.716  -1.650   0.000  0.00  0.00    +0.000 C 
ATOM     17  C   UNL     1       5.001  -1.238   0.000  0.00  0.00    +0.000 C 
ATOM     18  C   UNL     1       6.430  -1.238   0.000  0.00  0.00    +0.000 C 
ATOM     19  C   UNL     1       6.430  -0.412   0.000  0.00  0.00    +0.000 C 
ATOM     20  C   UNL     1       7.145   0.000   0.000  0.00  0.00    +0.000 C 
ATOM     21  O   UNL     1       7.145   0.825   0.000  0.00  0.00    +0.000 OA
ATOM     22  O   UNL     1       6.095   0.341   0.000  0.00  0.00    +0.000 OA
ATOM     23  C   UNL     1       7.859  -2.062   0.000  0.00  0.00    +0.000 C 
ATOM     24  C   UNL     1      10.042  -0.748   0.000  0.00  0.00    +0.000 C 
ENDROOT
BRANCH   1  25
ATOM     25  O   UNL     1       8.574  -2.475   0.000  0.00  0.00    +0.000 OA
BRANCH  25  27
ATOM     26  C   UNL     1      10.003  -2.475   0.000  0.00  0.00    +0.000 C 
ATOM     27  C   UNL     1       9.288  -2.888   0.000  0.00  0.00    +0.000 C 
ATOM     28  O   UNL     1       9.288  -3.712   0.000  0.00  0.00    +0.000 OA
ENDBRANCH  25  27
ENDBRANCH   1  25
BRANCH  17  29
ATOM     29  N   UNL     1       5.001  -0.412   0.000  0.00  0.00    +0.000 N 
BRANCH  29  30
ATOM     30  C   UNL     1       4.287   0.000   0.000  0.00  0.00    +0.000 C 
BRANCH  30  31
ATOM     31  C   UNL     1       4.287   0.825   0.000  0.00  0.00    +0.000 C 
ATOM     32  C   UNL     1       3.572   1.238   0.000  0.00  0.00    +0.000 C 
ENDBRANCH  30  31
ENDBRANCH  29  30
BRANCH  29  33
ATOM     33  C   UNL     1       5.716   0.000   0.000  0.00  0.00    +0.000 C 
BRANCH  33  34
ATOM     34  C   UNL     1       5.716   0.825   0.000  0.00  0.00    +0.000 C 
ATOM     35  C   UNL     1       5.001   1.238   0.000  0.00  0.00    +0.000 C 
ENDBRANCH  33  34
ENDBRANCH  29  33
ENDBRANCH  17  29
BRANCH  12  36
ATOM     36  C   UNL     1       7.859  -2.888   0.000  0.00  0.00    +0.000 C 
BRANCH  36  37
ATOM     37  O   UNL     1       7.859  -3.712   0.000  0.00  0.00    +0.000 OA
ATOM     38  C   UNL     1       7.145  -4.125   0.000  0.00  0.00    +0.000 C 
ENDBRANCH  36  37
ENDBRANCH  12  36
TORSDOF 9
