REMARK  Name = 
REMARK  8 active torsions:
REMARK  status: ('A' for Active; 'I' for Inactive)
REMARK    1  A    between atoms: C_1  and  C_2
REMARK    2  A    between atoms: C_2  and  O_7
REMARK    3  A    between atoms: C_3  and  C_5
REMARK    4  A    between atoms: C_6  and  O_12
REMARK    5  A    between atoms: O_7  and  C_14
REMARK    6  A    between atoms: O_13  and  C_15
REMARK    7  A    between atoms: O_13  and  C_16
REMARK    8  A    between atoms: C_14  and  C_15
REMARK                            x       y       z     vdW  Elec       q    Type
REMARK                         _______ _______ _______ _____ _____    ______ ____
ROOT
ATOM      1  C   UNL     1      -0.694   0.444   0.000  0.00  0.00    +0.000 C 
ATOM      2  C   UNL     1      -1.413   0.848   0.000  0.00  0.00    +0.000 C 
ENDROOT
BRANCH   2   3
ATOM      3  C   UNL     1      -2.158   0.423   0.000  0.00  0.00    +0.000 A 
ATOM      4  C   UNL     1      -3.596  -0.423   0.000  0.00  0.00    +0.000 A 
ATOM      5  C   UNL     1      -2.158  -0.423   0.000  0.00  0.00    +0.000 A 
ATOM      6  C   UNL     1      -2.877   0.827   0.000  0.00  0.00    +0.000 A 
ATOM      7  C   UNL     1      -3.596   0.423   0.000  0.00  0.00    +0.000 A 
ATOM      8  C   UNL     1      -2.877  -0.831   0.000  0.00  0.00    +0.000 A 
BRANCH   4   9
ATOM      9  O   UNL     1      -4.341  -0.852   0.000  0.00  0.00    +0.000 OA
ATOM     10  C   UNL     1      -4.341  -1.697   0.000  0.00  0.00    +0.000 C 
ENDBRANCH   4   9
ENDBRANCH   2   3
BRANCH   1  11
ATOM     11  C   UNL     1       0.017   0.848   0.000  0.00  0.00    +0.000 C 
ATOM     12  O   UNL     1       0.017   1.697   0.000  0.00  0.00    +0.000 OA
BRANCH  11  13
ATOM     13  O   UNL     1       0.745   0.444   0.000  0.00  0.00    +0.000 OA
BRANCH  13  14
ATOM     14  C   UNL     1       1.464   0.848   0.000  0.00  0.00    +0.000 C 
BRANCH  14  15
ATOM     15  C   UNL     1       2.183   0.444   0.000  0.00  0.00    +0.000 C 
BRANCH  15  16
ATOM     16  O   UNL     1       2.902   0.848   0.000  0.00  0.00    +0.000 OA
BRANCH  16  17
ATOM     17  C   UNL     1       3.622   0.444   0.000  0.00  0.00    +0.000 C 
ATOM     18  C   UNL     1       4.341   0.848   0.000  0.00  0.00    +0.000 C 
ENDBRANCH  16  17
ENDBRANCH  15  16
ENDBRANCH  14  15
ENDBRANCH  13  14
ENDBRANCH  11  13
ENDBRANCH   1  11
TORSDOF 8
