REMARK  Name = 
REMARK  3 active torsions:
REMARK  status: ('A' for Active; 'I' for Inactive)
REMARK    1  A    between atoms: C_2  and  C_11
REMARK    2  A    between atoms: C_11  and  N_12
REMARK    3  A    between atoms: C_14  and  C_18
REMARK                            x       y       z     vdW  Elec       q    Type
REMARK                         _______ _______ _______ _____ _____    ______ ____
ROOT
ATOM      1  C   UNL     1      -0.628  -0.698   0.000  0.00  0.00    +0.000 A 
ATOM      2  C   UNL     1      -0.143  -1.365   0.000  0.00  0.00    +0.000 A 
ATOM      3  C   UNL     1       0.641  -1.110   0.000  0.00  0.00    +0.000 A 
ATOM      4  C   UNL     1       0.641  -0.285   0.000  0.00  0.00    +0.000 A 
ATOM      5  N   UNL     1      -0.143  -0.030   0.000  0.00  0.00    +0.000 NA
ATOM      6  C   UNL     1       1.356   0.127   0.000  0.00  0.00    +0.000 A 
ATOM      7  O   UNL     1       1.356   0.952   0.000  0.00  0.00    +0.000 OA
ATOM      8  N   UNL     1       2.070  -0.285   0.000  0.00  0.00    +0.000 NA
ATOM      9  C   UNL     1       2.070  -1.110   0.000  0.00  0.00    +0.000 A 
ATOM     10  N   UNL     1       1.356  -1.523   0.000  0.00  0.00    +0.000 NA
ENDROOT
BRANCH   2  11
ATOM     11  C   UNL     1      -0.398  -2.150   0.000  0.00  0.00    +0.000 C 
BRANCH  11  12
ATOM     12  N   UNL     1      -1.205  -2.321   0.000  0.00  0.00    +0.000 NA
ATOM     13  C   UNL     1      -1.541  -3.075   0.000  0.00  0.00    +0.000 C 
ATOM     14  C   UNL     1      -2.361  -2.989   0.000  0.00  0.00    +0.000 C 
ATOM     15  C   UNL     1      -2.533  -2.182   0.000  0.00  0.00    +0.000 C 
ATOM     16  C   UNL     1      -1.819  -1.770   0.000  0.00  0.00    +0.000 C 
ATOM     17  O   UNL     1      -3.287  -1.846   0.000  0.00  0.00    +0.000 OA
BRANCH  14  18
ATOM     18  C   UNL     1      -2.913  -3.602   0.000  0.00  0.00    +0.000 C 
ATOM     19  O   UNL     1      -2.659  -4.387   0.000  0.00  0.00    +0.000 OA
ENDBRANCH  14  18
ENDBRANCH  11  12
ENDBRANCH   2  11
TORSDOF 3
