REMARK  Name = 
REMARK  2 active torsions:
REMARK  status: ('A' for Active; 'I' for Inactive)
REMARK    1  A    between atoms: C_5  and  N_10
REMARK    2  A    between atoms: C_6  and  N_7
REMARK                            x       y       z     vdW  Elec       q    Type
REMARK                         _______ _______ _______ _____ _____    ______ ____
ROOT
ATOM      1  C   UNL     1      -0.357  -0.825   0.000  0.00  0.00    +0.000 A 
ATOM      2  C   UNL     1       0.357  -0.412   0.000  0.00  0.00    +0.000 A 
ATOM      3  C   UNL     1       0.357   0.412   0.000  0.00  0.00    +0.000 A 
ATOM      4  C   UNL     1      -0.357   0.825   0.000  0.00  0.00    +0.000 A 
ATOM      5  C   UNL     1      -1.072   0.412   0.000  0.00  0.00    +0.000 A 
ATOM      6  C   UNL     1      -1.072  -0.412   0.000  0.00  0.00    +0.000 A 
ATOM      7  N   UNL     1       1.072   0.825   0.000  0.00  0.00    +0.000 NA
ATOM      8  C   UNL     1       1.786   0.412   0.000  0.00  0.00    +0.000 A 
ATOM      9  O   UNL     1       2.501   0.825   0.000  0.00  0.00    +0.000 OA
ATOM     10  C   UNL     1       1.786  -0.412   0.000  0.00  0.00    +0.000 A 
ATOM     11  O   UNL     1       2.501  -0.825   0.000  0.00  0.00    +0.000 OA
ATOM     12  N   UNL     1       1.072  -0.825   0.000  0.00  0.00    +0.000 NA
ENDROOT
BRANCH   6  13
ATOM     13  N   UNL     1      -1.786  -0.825   0.000  0.00  0.00    +0.000 N 
ATOM     14  O   UNL     1      -2.501  -0.412   0.000  0.00  0.00    +0.000 OA
ATOM     15  O   UNL     1      -1.786  -1.650   0.000  0.00  0.00    +0.000 OA
ENDBRANCH   6  13
BRANCH   5  16
ATOM     16  N   UNL     1      -1.786   0.825   0.000  0.00  0.00    +0.000 N 
ATOM     17  O   UNL     1      -2.501   0.412   0.000  0.00  0.00    +0.000 OA
ATOM     18  O   UNL     1      -1.786   1.650   0.000  0.00  0.00    +0.000 OA
ENDBRANCH   5  16
TORSDOF 2
