REMARK  Name = 
REMARK  3 active torsions:
REMARK  status: ('A' for Active; 'I' for Inactive)
REMARK    1  A    between atoms: N_5  and  C_10
REMARK    2  A    between atoms: C_6  and  C_7
REMARK    3  A    between atoms: C_10  and  C_14
REMARK                            x       y       z     vdW  Elec       q    Type
REMARK                         _______ _______ _______ _____ _____    ______ ____
ROOT
ATOM      1  O   UNL     1      -2.858   0.388   0.000  0.00  0.00    +0.000 OA
ATOM      2  C   UNL     1      -0.709   0.000   0.000  0.00  0.00    +0.000 A 
ATOM      3  C   UNL     1      -1.429   0.404   0.000  0.00  0.00    +0.000 A 
ATOM      4  C   UNL     1      -0.700  -0.825   0.000  0.00  0.00    +0.000 A 
ATOM      5  C   UNL     1      -2.138  -0.016   0.000  0.00  0.00    +0.000 A 
ATOM      6  C   UNL     1      -1.410  -1.246   0.000  0.00  0.00    +0.000 A 
ATOM      7  C   UNL     1      -2.129  -0.841   0.000  0.00  0.00    +0.000 A 
ENDROOT
BRANCH   2  10
ATOM      8  O   UNL     1      -0.009   1.246   0.000  0.00  0.00    +0.000 OA
ATOM      9  N   UNL     1       0.719   0.016   0.000  0.00  0.00    +0.000 NA
ATOM     10  C   UNL     1       0.000   0.421   0.000  0.00  0.00    +0.000 C 
BRANCH   9  11
ATOM     11  C   UNL     1       1.429   0.437   0.000  0.00  0.00    +0.000 C 
BRANCH  11  14
ATOM     12  O   UNL     1       2.858   0.454   0.000  0.00  0.00    +0.000 OA
ATOM     13  O   UNL     1       2.158  -0.792   0.000  0.00  0.00    +0.000 OA
ATOM     14  C   UNL     1       2.148   0.033   0.000  0.00  0.00    +0.000 C 
ENDBRANCH  11  14
ENDBRANCH   9  11
ENDBRANCH   2  10
TORSDOF 3
