REMARK  Name = 
REMARK  4 active torsions:
REMARK  status: ('A' for Active; 'I' for Inactive)
REMARK    1  A    between atoms: C_2  and  CA_4
REMARK    2  A    between atoms: CA_4  and  CB_6
REMARK    3  A    between atoms: CB_6  and  CG_7
REMARK    4  A    between atoms: CG_7  and  SD_8
REMARK                            x       y       z     vdW  Elec       q    Type
REMARK                         _______ _______ _______ _____ _____    ______ ____
ROOT
ATOM      1  CA  MET A   1       0.714  -0.206   0.000  0.00  0.00    +0.000 C 
ATOM      2  N   MET A   1       0.714  -1.031   0.000  0.00  0.00    +0.000 NA
ENDROOT
BRANCH   1   4
ATOM      3  O   MET A   1       1.429   1.031   0.000  0.00  0.00    +0.000 OA
ATOM      4  C   MET A   1       1.429   0.206   0.000  0.00  0.00    +0.000 C 
ATOM      5  OXT MET A   1       2.143  -0.206   0.000  0.00  0.00    +0.000 OA
ENDBRANCH   1   4
BRANCH   1   6
ATOM      6  CB  MET A   1       0.000   0.206   0.000  0.00  0.00    +0.000 C 
BRANCH   6   7
ATOM      7  CG  MET A   1      -0.714  -0.206   0.000  0.00  0.00    +0.000 C 
BRANCH   7   8
ATOM      8  SD  MET A   1      -1.429   0.206   0.000  0.00  0.00    +0.000 S 
ATOM      9  CE  MET A   1      -2.143  -0.206   0.000  0.00  0.00    +0.000 C 
ENDBRANCH   7   8
ENDBRANCH   6   7
ENDBRANCH   1   6
TORSDOF 4
