REMARK  Name = 
REMARK  38 active torsions:
REMARK  status: ('A' for Active; 'I' for Inactive)
REMARK    1  A    between atoms: C_1  and  N_2
REMARK    2  A    between atoms: C_1  and  C_37
REMARK    3  A    between atoms: C_22  and  C_23
REMARK    4  A    between atoms: C_25  and  C_26
REMARK    5  A    between atoms: C_37  and  O_38
REMARK    6  A    between atoms: O_38  and  C_39
REMARK    7  A    between atoms: C_39  and  O_41
REMARK    8  A    between atoms: O_41  and  C_42
REMARK    9  A    between atoms: C_42  and  C_43
REMARK   10  A    between atoms: C_43  and  S_44
REMARK   11  A    between atoms: S_44  and  S_45
REMARK   12  A    between atoms: S_45  and  C_46
REMARK   13  A    between atoms: C_46  and  C_47
REMARK   14  A    between atoms: C_47  and  C_48
REMARK   15  A    between atoms: C_47  and  N_51
REMARK   16  A    between atoms: C_52  and  C_54
REMARK   17  A    between atoms: C_54  and  C_55
REMARK   18  A    between atoms: C_54  and  N_59
REMARK   19  A    between atoms: C_55  and  C_56
REMARK   20  A    between atoms: C_60  and  C_62
REMARK   21  A    between atoms: C_62  and  C_63
REMARK   22  A    between atoms: C_62  and  N_70
REMARK   23  A    between atoms: C_63  and  C_64
REMARK   24  A    between atoms: C_64  and  C_65
REMARK   25  A    between atoms: C_65  and  N_66
REMARK   26  A    between atoms: C_71  and  C_73
REMARK   27  A    between atoms: C_73  and  C_74
REMARK   28  A    between atoms: C_73  and  N_78
REMARK   29  A    between atoms: C_74  and  C_75
REMARK   30  A    between atoms: C_79  and  C_81
REMARK   31  A    between atoms: C_81  and  C_82
REMARK   32  A    between atoms: C_82  and  C_83
REMARK   33  A    between atoms: C_83  and  C_84
REMARK   34  A    between atoms: C_83  and  N_87
REMARK   35  A    between atoms: C_88  and  C_89
REMARK   36  A    between atoms: C_92  and  N_93
REMARK   37  A    between atoms: N_93  and  C_94
REMARK   38  A    between atoms: C_94  and  C_95
REMARK                            x       y       z     vdW  Elec       q    Type
REMARK                         _______ _______ _______ _____ _____    ______ ____
ROOT
ATOM      1  C   UNK A   1       0.855   0.698   0.000  0.00  0.00    +0.000 C 
ENDROOT
BRANCH   1   2
ATOM      2  N   UNK A   1       0.443   1.412   0.000  0.00  0.00    +0.000 NA
ATOM      3  C   UNK A   1      -0.382   1.412   0.000  0.00  0.00    +0.000 C 
ATOM      4  O   UNK A   1      -0.795   0.698   0.000  0.00  0.00    +0.000 OA
BRANCH   3   5
ATOM      5  C   UNK A   1      -0.795   2.127   0.000  0.00  0.00    +0.000 C 
BRANCH   5   6
ATOM      6  N   UNK A   1      -1.620   2.127   0.000  0.00  0.00    +0.000 NA
ATOM      7  C   UNK A   1      -2.032   2.841   0.000  0.00  0.00    +0.000 C 
ATOM      8  O   UNK A   1      -1.620   3.556   0.000  0.00  0.00    +0.000 OA
BRANCH   7   9
ATOM      9  C   UNK A   1      -2.857   2.841   0.000  0.00  0.00    +0.000 C 
BRANCH   9  10
ATOM     10  N   UNK A   1      -3.270   3.556   0.000  0.00  0.00    +0.000 NA
ATOM     11  C   UNK A   1      -4.095   3.556   0.000  0.00  0.00    +0.000 C 
ATOM     12  O   UNK A   1      -4.508   2.841   0.000  0.00  0.00    +0.000 OA
BRANCH  11  13
ATOM     13  C   UNK A   1      -4.508   4.270   0.000  0.00  0.00    +0.000 C 
BRANCH  13  14
ATOM     14  C   UNK A   1      -5.332   4.270   0.000  0.00  0.00    +0.000 C 
BRANCH  14  15
ATOM     15  C   UNK A   1      -5.745   4.984   0.000  0.00  0.00    +0.000 C 
BRANCH  15  16
ATOM     16  N   UNK A   1      -6.570   4.984   0.000  0.00  0.00    +0.000 NA
ATOM     17  C   UNK A   0      -6.982   5.699   0.000  0.00  0.00    +0.000 C 
ATOM     18  O   UNK A   0      -6.570   6.413   0.000  0.00  0.00    +0.000 OA
BRANCH  17  19
ATOM     19  C   UNK A   0      -7.808   5.699   0.000  0.00  0.00    +0.000 A 
ATOM     20  C   UNK A   0      -8.220   6.413   0.000  0.00  0.00    +0.000 A 
ATOM     21  C   UNK A   0      -9.045   6.413   0.000  0.00  0.00    +0.000 A 
ATOM     22  C   UNK A   0      -9.458   5.699   0.000  0.00  0.00    +0.000 A 
ATOM     23  C   UNK A   0      -9.045   4.984   0.000  0.00  0.00    +0.000 A 
ATOM     24  C   UNK A   0      -8.220   4.984   0.000  0.00  0.00    +0.000 A 
BRANCH  22  25
ATOM     25  N   UNK A   0     -10.283   5.699   0.000  0.00  0.00    +0.000 NA
BRANCH  25  26
ATOM     26  C   UNK A   0     -10.695   6.413   0.000  0.00  0.00    +0.000 C 
BRANCH  26  27
ATOM     27  C   UNK A   0     -11.520   6.413   0.000  0.00  0.00    +0.000 A 
ATOM     28  C   UNK A   0     -11.933   5.699   0.000  0.00  0.00    +0.000 A 
ATOM     29  N   UNK A   0     -12.758   5.699   0.000  0.00  0.00    +0.000 NA
ATOM     30  C   UNK A   0     -13.170   6.413   0.000  0.00  0.00    +0.000 A 
ATOM     31  N   UNK A   0     -13.995   6.413   0.000  0.00  0.00    +0.000 NA
ATOM     32  C   UNK A   0     -14.408   7.128   0.000  0.00  0.00    +0.000 A 
ATOM     33  N   UNK A   0     -15.233   7.128   0.000  0.00  0.00    +0.000 NA
ATOM     34  N   UNK A   0     -13.995   7.842   0.000  0.00  0.00    +0.000 NA
ATOM     35  C   UNK A   0     -13.170   7.842   0.000  0.00  0.00    +0.000 A 
ATOM     36  O   UNK A   0     -12.758   8.557   0.000  0.00  0.00    +0.000 OA
ATOM     37  C   UNK A   0     -12.758   7.128   0.000  0.00  0.00    +0.000 A 
ATOM     38  N   UNK A   0     -11.933   7.128   0.000  0.00  0.00    +0.000 NA
ENDBRANCH  26  27
ENDBRANCH  25  26
ENDBRANCH  22  25
ENDBRANCH  17  19
ENDBRANCH  15  16
BRANCH  15  39
ATOM     39  C   UNK A   1      -5.332   5.699   0.000  0.00  0.00    +0.000 C 
ATOM     40  O   UNK A   1      -4.508   5.699   0.000  0.00  0.00    +0.000 OA
ATOM     41  O   UNK A   1      -5.745   6.413   0.000  0.00  0.00    +0.000 OA
ENDBRANCH  15  39
ENDBRANCH  14  15
ENDBRANCH  13  14
ENDBRANCH  11  13
ENDBRANCH   9  10
BRANCH   9  42
ATOM     42  C   UNK A   1      -3.270   2.127   0.000  0.00  0.00    +0.000 C 
BRANCH  42  43
ATOM     43  C   UNK A   1      -2.857   1.412   0.000  0.00  0.00    +0.000 C 
ATOM     44  O   UNK A   1      -3.270   0.698   0.000  0.00  0.00    +0.000 OA
ATOM     45  O   UNK A   1      -2.032   1.412   0.000  0.00  0.00    +0.000 OA
ENDBRANCH  42  43
ENDBRANCH   9  42
ENDBRANCH   7   9
ENDBRANCH   5   6
BRANCH   5  46
ATOM     46  C   UNK A   1      -0.382   2.841   0.000  0.00  0.00    +0.000 C 
BRANCH  46  47
ATOM     47  C   UNK A   1      -0.913   3.473   0.000  0.00  0.00    +0.000 C 
BRANCH  47  48
ATOM     48  C   UNK A   1      -0.630   4.248   0.000  0.00  0.00    +0.000 C 
BRANCH  48  49
ATOM     49  N   UNK A   1      -1.263   4.779   0.000  0.00  0.00    +0.000 NA
ATOM     50  C   UNK A   1      -2.038   4.497   0.000  0.00  0.00    +0.000 C 
ATOM     51  N   UNK A   1      -2.670   5.027   0.000  0.00  0.00    +0.000 NA
ATOM     52  N   UNK A   1      -2.181   3.684   0.000  0.00  0.00    +0.000 NA
ENDBRANCH  48  49
ENDBRANCH  47  48
ENDBRANCH  46  47
ENDBRANCH   5  46
ENDBRANCH   3   5
ENDBRANCH   1   2
BRANCH   1  54
ATOM     53  N   UNK A   1       2.092  -0.017   0.000  0.00  0.00    +0.000 NA
ATOM     54  C   UNK A   1       1.680   0.698   0.000  0.00  0.00    +0.000 C 
ATOM     55  O   UNK A   1       2.092   1.412   0.000  0.00  0.00    +0.000 OA
BRANCH  53  56
ATOM     56  C   UNK A   1       2.917  -0.017   0.000  0.00  0.00    +0.000 C 
BRANCH  56  57
ATOM     57  C   UNK A   1       3.330   0.698   0.000  0.00  0.00    +0.000 C 
ATOM     58  O   UNK A   1       4.155   0.698   0.000  0.00  0.00    +0.000 OA
ATOM     59  O   UNK A   1       2.917   1.412   0.000  0.00  0.00    +0.000 OA
ENDBRANCH  56  57
BRANCH  56  60
ATOM     60  C   UNK A   1       3.330  -0.731   0.000  0.00  0.00    +0.000 C 
BRANCH  60  61
ATOM     61  S   UNK A   1       4.155  -0.731   0.000  0.00  0.00    +0.000 S 
BRANCH  61  62
ATOM     62  S   UNK A   1       4.568  -1.446   0.000  0.00  0.00    +0.000 S 
BRANCH  62  63
ATOM     63  C   UNK A   1       5.393  -1.446   0.000  0.00  0.00    +0.000 C 
BRANCH  63  64
ATOM     64  C   UNK A   1       5.805  -2.160   0.000  0.00  0.00    +0.000 C 
BRANCH  64  65
ATOM     65  O   UNK A   1       6.630  -2.160   0.000  0.00  0.00    +0.000 OA
BRANCH  65  66
ATOM     66  C   UNK A   1       7.043  -2.875   0.000  0.00  0.00    +0.000 C 
ATOM     67  O   UNK A   1       6.630  -3.589   0.000  0.00  0.00    +0.000 OA
BRANCH  66  68
ATOM     68  O   UNK A   1       7.868  -2.875   0.000  0.00  0.00    +0.000 OA
BRANCH  68  69
ATOM     69  C   UNK A   1       8.280  -3.589   0.000  0.00  0.00    +0.000 C 
BRANCH  69  70
ATOM     70  C   UNK A   1       9.105  -3.589   0.000  0.00  0.00    +0.000 C 
BRANCH  70  71
ATOM     71  N   UNK A   1       9.518  -4.303   0.000  0.00  0.00    +0.000 NA
ATOM     72  C   UNK A   1       9.518  -5.129   0.000  0.00  0.00    +0.000 C 
ATOM     73  C   UNK A   1       9.689  -5.936   0.000  0.00  0.00    +0.000 C 
ATOM     74  C   UNK A   1      10.510  -6.022   0.000  0.00  0.00    +0.000 C 
ATOM     75  C   UNK A   1      10.995  -6.689   0.000  0.00  0.00    +0.000 C 
ATOM     76  C   UNK A   1      11.815  -6.603   0.000  0.00  0.00    +0.000 C 
ATOM     77  C   UNK A   1      12.300  -7.271   0.000  0.00  0.00    +0.000 C 
ATOM     78  C   UNK A   1      13.120  -7.184   0.000  0.00  0.00    +0.000 C 
ATOM     79  C   UNK A   1      13.733  -7.736   0.000  0.00  0.00    +0.000 C 
ATOM     80  O   UNK A   1      13.647  -8.557   0.000  0.00  0.00    +0.000 OA
ATOM     81  C   UNK A   1      14.448  -7.324   0.000  0.00  0.00    +0.000 C 
ATOM     82  C   UNK A   1      15.233  -7.069   0.000  0.00  0.00    +0.000 C 
ATOM     83  C   UNK A   1      14.784  -8.077   0.000  0.00  0.00    +0.000 C 
ATOM     84  C   UNK A   1      14.277  -6.517   0.000  0.00  0.00    +0.000 C 
ATOM     85  O   UNK A   1      14.829  -5.904   0.000  0.00  0.00    +0.000 OA
ATOM     86  C   UNK A   1      13.456  -6.431   0.000  0.00  0.00    +0.000 C 
ATOM     87  C   UNK A   1      12.971  -5.763   0.000  0.00  0.00    +0.000 C 
ATOM     88  O   UNK A   1      13.307  -5.009   0.000  0.00  0.00    +0.000 OA
ATOM     89  O   UNK A   1      12.151  -5.849   0.000  0.00  0.00    +0.000 OA
ATOM     90  C   UNK A   1      11.666  -5.182   0.000  0.00  0.00    +0.000 C 
ATOM     91  C   UNK A   1      10.845  -5.268   0.000  0.00  0.00    +0.000 C 
ATOM     92  C   UNK A   1      10.232  -4.716   0.000  0.00  0.00    +0.000 C 
ATOM     93  C   UNK A   1      13.376  -6.400   0.000  0.00  0.00    +0.000 C 
ATOM     94  O   UNK A   1      11.964  -8.024   0.000  0.00  0.00    +0.000 OA
ATOM     95  C   UNK A   1      11.479  -7.357   0.000  0.00  0.00    +0.000 C 
BRANCH  90  96
ATOM     96  C   UNK A   1      12.001  -4.428   0.000  0.00  0.00    +0.000 C 
ATOM     97  C   UNK A   1      12.822  -4.342   0.000  0.00  0.00    +0.000 C 
ATOM     98  C   UNK A   1      11.516  -3.761   0.000  0.00  0.00    +0.000 C 
BRANCH  98  99
ATOM     99  C   UNK A   1      11.852  -3.007   0.000  0.00  0.00    +0.000 A 
ATOM    100  C   UNK A   1      11.439  -2.293   0.000  0.00  0.00    +0.000 A 
ATOM    101  S   UNK A   1      11.992  -1.679   0.000  0.00  0.00    +0.000 S 
ATOM    102  C   UNK A   1      12.745  -2.015   0.000  0.00  0.00    +0.000 A 
ATOM    103  C   UNK A   1      13.460  -1.603   0.000  0.00  0.00    +0.000 C 
ATOM    104  N   UNK A   1      12.659  -2.836   0.000  0.00  0.00    +0.000 NA
ENDBRANCH  98  99
ENDBRANCH  90  96
ENDBRANCH  70  71
ENDBRANCH  69  70
ENDBRANCH  68  69
ENDBRANCH  66  68
ENDBRANCH  65  66
ENDBRANCH  64  65
ENDBRANCH  63  64
ENDBRANCH  62  63
ENDBRANCH  61  62
ENDBRANCH  60  61
ENDBRANCH  56  60
ENDBRANCH  53  56
ENDBRANCH   1  54
BRANCH   1 105
ATOM    105  C   UNK A   1       0.443  -0.017   0.000  0.00  0.00    +0.000 C 
BRANCH 105 106
ATOM    106  C   UNK A   1       0.855  -0.731   0.000  0.00  0.00    +0.000 C 
ATOM    107  O   UNK A   1       0.443  -1.446   0.000  0.00  0.00    +0.000 OA
ATOM    108  O   UNK A   1       1.680  -0.731   0.000  0.00  0.00    +0.000 OA
ENDBRANCH 105 106
ENDBRANCH   1 105
TORSDOF 38
