REMARK  Name = 
REMARK  26 active torsions:
REMARK  status: ('A' for Active; 'I' for Inactive)
REMARK    1  A    between atoms: C_2  and  C_3
REMARK    2  A    between atoms: C_3  and  C_4
REMARK    3  A    between atoms: C_4  and  C_5
REMARK    4  A    between atoms: C_5  and  C_6
REMARK    5  A    between atoms: C_6  and  C_7
REMARK    6  A    between atoms: C_7  and  C_8
REMARK    7  A    between atoms: C_8  and  C_9
REMARK    8  A    between atoms: C_9  and  C_10
REMARK    9  A    between atoms: C_10  and  C_11
REMARK   10  A    between atoms: C_11  and  C_12
REMARK   11  A    between atoms: C_12  and  C_13
REMARK   12  A    between atoms: C_13  and  C_14
REMARK   13  A    between atoms: C_14  and  C_15
REMARK   14  A    between atoms: C_15  and  C_16
REMARK   15  A    between atoms: N_18  and  C_19
REMARK   16  A    between atoms: C_19  and  C_20
REMARK   17  A    between atoms: N_22  and  CA_23
REMARK   18  A    between atoms: CA_23  and  CB_24
REMARK   19  A    between atoms: CA_23  and  C_30
REMARK   20  A    between atoms: CB_24  and  CG_25
REMARK   21  A    between atoms: N_32  and  CA_33
REMARK   22  A    between atoms: CA_33  and  CB_34
REMARK   23  A    between atoms: CA_33  and  C_39
REMARK   24  A    between atoms: CB_34  and  CG_35
REMARK   25  A    between atoms: CG_35  and  CD_36
REMARK   26  A    between atoms: CD_36  and  CE_37
REMARK                            x       y       z     vdW  Elec       q    Type
REMARK                         _______ _______ _______ _____ _____    ______ ____
ROOT
ATOM      1  C   UNK A   0       2.858  -0.290   0.000  0.00  0.00    +0.000 C 
ATOM      2  O   UNK A   0       2.858   0.535   0.000  0.00  0.00    +0.000 OA
ATOM      3  N   HIS A   1       3.572  -0.702   0.000  0.00  0.00    +0.000 NA
ENDROOT
BRANCH   1   4
ATOM      4  C   UNK A   0       2.143  -0.702   0.000  0.00  0.00    +0.000 C 
BRANCH   4   7
ATOM      5  C   UNK A   0       0.714  -0.702   0.000  0.00  0.00    +0.000 C 
ATOM      6  O   UNK A   0       0.714  -1.527   0.000  0.00  0.00    +0.000 OA
ATOM      7  N   UNK A   0       1.429  -0.290   0.000  0.00  0.00    +0.000 NA
BRANCH   5   8
ATOM      8  C   UNK A   0       0.000  -0.290   0.000  0.00  0.00    +0.000 C 
BRANCH   8   9
ATOM      9  C   UNK A   0      -0.714  -0.702   0.000  0.00  0.00    +0.000 C 
BRANCH   9  10
ATOM     10  C   UNK A   0      -1.429  -0.290   0.000  0.00  0.00    +0.000 C 
BRANCH  10  11
ATOM     11  C   UNK A   0      -2.143  -0.702   0.000  0.00  0.00    +0.000 C 
BRANCH  11  12
ATOM     12  C   UNK A   0      -2.858  -0.290   0.000  0.00  0.00    +0.000 C 
BRANCH  12  13
ATOM     13  C   UNK A   0      -3.572  -0.702   0.000  0.00  0.00    +0.000 C 
BRANCH  13  14
ATOM     14  C   UNK A   0      -4.287  -0.290   0.000  0.00  0.00    +0.000 C 
BRANCH  14  15
ATOM     15  C   UNK A   0      -5.001  -0.702   0.000  0.00  0.00    +0.000 C 
BRANCH  15  16
ATOM     16  C   UNK A   0      -5.716  -0.290   0.000  0.00  0.00    +0.000 C 
BRANCH  16  17
ATOM     17  C   UNK A   0      -6.430  -0.702   0.000  0.00  0.00    +0.000 C 
BRANCH  17  18
ATOM     18  C   UNK A   0      -7.145  -0.290   0.000  0.00  0.00    +0.000 C 
BRANCH  18  19
ATOM     19  C   UNK A   0      -7.859  -0.702   0.000  0.00  0.00    +0.000 C 
BRANCH  19  20
ATOM     20  C   UNK A   0      -8.574  -0.290   0.000  0.00  0.00    +0.000 C 
BRANCH  20  22
ATOM     21  C   UNK A   0     -10.002  -0.290   0.000  0.00  0.00    +0.000 C 
ATOM     22  C   UNK A   0      -9.288  -0.702   0.000  0.00  0.00    +0.000 C 
ENDBRANCH  20  22
ENDBRANCH  19  20
ENDBRANCH  18  19
ENDBRANCH  17  18
ENDBRANCH  16  17
ENDBRANCH  15  16
ENDBRANCH  14  15
ENDBRANCH  13  14
ENDBRANCH  12  13
ENDBRANCH  11  12
ENDBRANCH  10  11
ENDBRANCH   9  10
ENDBRANCH   8   9
ENDBRANCH   5   8
ENDBRANCH   4   7
ENDBRANCH   1   4
BRANCH   3  23
ATOM     23  CA  HIS A   1       4.287  -0.290   0.000  0.00  0.00    +0.000 C 
BRANCH  23  24
ATOM     24  C   HIS A   1       5.001  -0.702   0.000  0.00  0.00    +0.000 C 
ATOM     25  O   HIS A   1       5.001  -1.527   0.000  0.00  0.00    +0.000 OA
ATOM     26  N   LYS A   2       5.716  -0.290   0.000  0.00  0.00    +0.000 NA
BRANCH  26  27
ATOM     27  CA  LYS A   2       6.430  -0.702   0.000  0.00  0.00    +0.000 C 
BRANCH  27  28
ATOM     28  C   LYS A   2       6.430  -1.527   0.000  0.00  0.00    +0.000 C 
ATOM     29  O   LYS A   2       7.145  -1.940   0.000  0.00  0.00    +0.000 OA
ATOM     30  OXT LYS A   2       5.716  -1.940   0.000  0.00  0.00    +0.000 OA
ENDBRANCH  27  28
BRANCH  27  31
ATOM     31  CB  LYS A   2       7.145  -0.290   0.000  0.00  0.00    +0.000 C 
BRANCH  31  32
ATOM     32  CG  LYS A   2       7.859  -0.702   0.000  0.00  0.00    +0.000 C 
BRANCH  32  33
ATOM     33  CD  LYS A   2       8.574  -0.290   0.000  0.00  0.00    +0.000 C 
BRANCH  33  34
ATOM     34  CE  LYS A   2       9.288  -0.702   0.000  0.00  0.00    +0.000 C 
ATOM     35  NZ  LYS A   2      10.002  -0.290   0.000  0.00  0.00    +0.000 NA
ENDBRANCH  33  34
ENDBRANCH  32  33
ENDBRANCH  31  32
ENDBRANCH  27  31
ENDBRANCH  26  27
ENDBRANCH  23  24
BRANCH  23  36
ATOM     36  CB  HIS A   1       4.287   0.535   0.000  0.00  0.00    +0.000 C 
BRANCH  36  37
ATOM     37  CG  HIS A   1       5.001   0.948   0.000  0.00  0.00    +0.000 A 
ATOM     38  CD2 HIS A   1       5.088   1.768   0.000  0.00  0.00    +0.000 A 
ATOM     39  NE2 HIS A   1       5.894   1.940   0.000  0.00  0.00    +0.000 NA
ATOM     40  CE1 HIS A   1       6.307   1.225   0.000  0.00  0.00    +0.000 A 
ATOM     41  ND1 HIS A   1       5.755   0.612   0.000  0.00  0.00    +0.000 NA
ENDBRANCH  36  37
ENDBRANCH  23  36
ENDBRANCH   3  23
TORSDOF 26
