REMARK  Name = 
REMARK  9 active torsions:
REMARK  status: ('A' for Active; 'I' for Inactive)
REMARK    1  A    between atoms: C_20  and  C_30
REMARK    2  A    between atoms: C_20  and  N_32
REMARK    3  A    between atoms: C_21  and  C_29
REMARK    4  A    between atoms: C_22  and  C_23
REMARK    5  A    between atoms: C_24  and  C_29
REMARK    6  A    between atoms: C_25  and  C_30
REMARK    7  A    between atoms: C_28  and  O_36
REMARK    8  A    between atoms: C_29  and  C_31
REMARK    9  A    between atoms: C_31  and  O_36
REMARK                            x       y       z     vdW  Elec       q    Type
REMARK                         _______ _______ _______ _____ _____    ______ ____
ROOT
ATOM      1  C   UNL     1       0.390  -0.391   0.000  0.00  0.00    +0.000 C 
ATOM      2  C   UNL     1      -0.841  -0.544   0.000  0.00  0.00    +0.000 C 
ATOM      3  C   UNL     1      -0.841   0.281   0.000  0.00  0.00    +0.000 C 
ATOM      4  C   UNL     1       0.608  -0.875   0.000  0.00  0.00    +0.000 C 
ATOM      5  C   UNL     1       0.608   0.612   0.000  0.00  0.00    +0.000 C 
ATOM      6  C   UNL     1      -0.196  -1.058   0.000  0.00  0.00    +0.000 C 
ATOM      7  C   UNL     1      -0.196   0.795   0.000  0.00  0.00    +0.000 C 
ATOM      8  C   UNL     1       0.966  -0.131   0.000  0.00  0.00    +0.000 C 
ATOM      9  N   UNL     1      -0.427  -0.131   0.000  0.00  0.00    +0.000 N 
ENDROOT
BRANCH   9  10
ATOM     10  C   UNL     1       0.187   0.482   0.000  0.00  0.00    +0.000 C 
BRANCH  10  11
ATOM     11  C   UNL     1      -0.024   1.411   0.000  0.00  0.00    +0.000 C 
ATOM     12  O   UNL     1       0.581   1.972   0.000  0.00  0.00    +0.000 OA
BRANCH  11  18
ATOM     13  C   UNL     1      -2.205   1.338   0.000  0.00  0.00    +0.000 A 
ATOM     14  C   UNL     1      -1.783   2.703   0.000  0.00  0.00    +0.000 A 
ATOM     15  C   UNL     1      -1.417   1.094   0.000  0.00  0.00    +0.000 A 
ATOM     16  C   UNL     1      -0.995   2.459   0.000  0.00  0.00    +0.000 A 
ATOM     17  C   UNL     1      -2.388   2.142   0.000  0.00  0.00    +0.000 A 
ATOM     18  C   UNL     1      -0.812   1.655   0.000  0.00  0.00    +0.000 A 
BRANCH  17  24
ATOM     19  C   UNL     1      -4.753   2.873   0.000  0.00  0.00    +0.000 A 
ATOM     20  C   UNL     1      -4.570   2.069   0.000  0.00  0.00    +0.000 A 
ATOM     21  C   UNL     1      -4.148   3.434   0.000  0.00  0.00    +0.000 A 
ATOM     22  C   UNL     1      -3.782   1.825   0.000  0.00  0.00    +0.000 A 
ATOM     23  C   UNL     1      -3.360   3.190   0.000  0.00  0.00    +0.000 A 
ATOM     24  C   UNL     1      -3.176   2.386   0.000  0.00  0.00    +0.000 A 
ENDBRANCH  17  24
ENDBRANCH  11  18
ENDBRANCH  10  11
ENDBRANCH   9  10
BRANCH   8  25
ATOM     25  O   UNL     1       1.880  -0.134   0.000  0.00  0.00    +0.000 OA
BRANCH  25  26
ATOM     26  C   UNL     1       2.608  -0.558   0.000  0.00  0.00    +0.000 C 
ATOM     27  O   UNL     1       2.605  -1.383   0.000  0.00  0.00    +0.000 OA
BRANCH  26  28
ATOM     28  C   UNL     1       3.379  -0.961   0.000  0.00  0.00    +0.000 C 
BRANCH  28  34
ATOM     29  C   UNL     1       3.482  -3.434   0.000  0.00  0.00    +0.000 A 
ATOM     30  C   UNL     1       4.178  -2.992   0.000  0.00  0.00    +0.000 A 
ATOM     31  C   UNL     1       2.751  -3.052   0.000  0.00  0.00    +0.000 A 
ATOM     32  C   UNL     1       4.144  -2.168   0.000  0.00  0.00    +0.000 A 
ATOM     33  C   UNL     1       2.716  -2.228   0.000  0.00  0.00    +0.000 A 
ATOM     34  C   UNL     1       3.413  -1.786   0.000  0.00  0.00    +0.000 A 
ENDBRANCH  28  34
BRANCH  28  35
ATOM     35  C   UNL     1       3.946  -0.333   0.000  0.00  0.00    +0.000 C 
ATOM     36  O   UNL     1       4.753  -0.506   0.000  0.00  0.00    +0.000 OA
ENDBRANCH  28  35
ENDBRANCH  26  28
ENDBRANCH  25  26
ENDBRANCH   8  25
TORSDOF 9
