REMARK  Name = 
REMARK  7 active torsions:
REMARK  status: ('A' for Active; 'I' for Inactive)
REMARK    1  A    between atoms: S_1  and  O_5
REMARK    2  A    between atoms: S_1  and  N_11
REMARK    3  A    between atoms: O_5  and  C_20
REMARK    4  A    between atoms: N_9  and  C_19
REMARK    5  A    between atoms: N_15  and  C_29
REMARK    6  A    between atoms: C_18  and  C_20
REMARK    7  A    between atoms: C_21  and  C_27
REMARK                            x       y       z     vdW  Elec       q    Type
REMARK                         _______ _______ _______ _____ _____    ______ ____
ROOT
ATOM      1  O   UNL     1      -1.100   0.221   0.000  0.00  0.00    +0.000 OA
ATOM      2  O   UNL     1      -2.136   2.088   0.000  0.00  0.00    +0.000 OA
ATOM      3  O   UNL     1      -3.194   0.637   0.000  0.00  0.00    +0.000 OA
ATOM      4  C   UNL     1      -1.883   1.302   0.000  0.00  0.00    +0.000 C 
ATOM      5  C   UNL     1      -2.369   0.636   0.000  0.00  0.00    +0.000 C 
ATOM      6  C   UNL     1      -1.099   1.046   0.000  0.00  0.00    +0.000 C 
ATOM      7  C   UNL     1      -1.885  -0.032   0.000  0.00  0.00    +0.000 C 
ENDROOT
BRANCH   7   8
ATOM      8  N   UNL     1      -2.141  -0.817   0.000  0.00  0.00    +0.000 N 
ATOM      9  N   UNL     1      -2.141  -2.144   0.000  0.00  0.00    +0.000 NA
ATOM     10  N   UNL     1      -3.636  -0.655   0.000  0.00  0.00    +0.000 NA
ATOM     11  N   UNL     1      -4.351  -1.893   0.000  0.00  0.00    +0.000 NA
ATOM     12  C   UNL     1      -2.922  -1.068   0.000  0.00  0.00    +0.000 A 
ATOM     13  C   UNL     1      -1.660  -1.480   0.000  0.00  0.00    +0.000 A 
ATOM     14  C   UNL     1      -2.922  -1.893   0.000  0.00  0.00    +0.000 A 
ATOM     15  C   UNL     1      -3.636  -2.305   0.000  0.00  0.00    +0.000 A 
ATOM     16  C   UNL     1      -4.351  -1.068   0.000  0.00  0.00    +0.000 A 
BRANCH  15  17
ATOM     17  N   UNL     1      -3.636  -3.130   0.000  0.00  0.00    +0.000 N 
ATOM     18  H   UNL     1      -4.080  -3.386   0.000  0.00  0.00    +0.000 HD
ATOM     19  H   UNL     1      -3.193  -3.386   0.000  0.00  0.00    +0.000 HD
ENDBRANCH  15  17
ENDBRANCH   7   8
BRANCH   6  20
ATOM     20  C   UNL     1      -0.430   1.530   0.000  0.00  0.00    +0.000 C 
BRANCH  20  21
ATOM     21  O   UNL     1       0.323   1.193   0.000  0.00  0.00    +0.000 OA
BRANCH  21  22
ATOM     22  S   UNL     1       0.991   1.677   0.000  0.00  0.00    +0.000 S 
ATOM     23  O   UNL     1       0.507   2.345   0.000  0.00  0.00    +0.000 OA
ATOM     24  O   UNL     1       1.475   1.009   0.000  0.00  0.00    +0.000 OA
BRANCH  22  26
ATOM     25  O   UNL     1       2.497   1.003   0.000  0.00  0.00    +0.000 OA
ATOM     26  N   UNL     1       1.659   2.161   0.000  0.00  0.00    +0.000 N 
ATOM     27  C   UNL     1       2.412   1.824   0.000  0.00  0.00    +0.000 C 
ATOM     28  H   UNL     1       1.607   2.669   0.000  0.00  0.00    +0.000 HD
BRANCH  27  30
ATOM     29  N   UNL     1       3.865   2.051   0.000  0.00  0.00    +0.000 NA
ATOM     30  C   UNL     1       3.081   2.308   0.000  0.00  0.00    +0.000 C 
ATOM     31  C   UNL     1       3.082   3.133   0.000  0.00  0.00    +0.000 C 
ATOM     32  C   UNL     1       3.867   3.386   0.000  0.00  0.00    +0.000 C 
ATOM     33  C   UNL     1       4.351   2.718   0.000  0.00  0.00    +0.000 C 
ATOM     34  H   UNL     1       4.022   1.565   0.000  0.00  0.00    +0.000 HD
ENDBRANCH  27  30
ENDBRANCH  22  26
ENDBRANCH  21  22
ENDBRANCH  20  21
ENDBRANCH   6  20
TORSDOF 7
