REMARK  Name = 
REMARK  43 active torsions:
REMARK  status: ('A' for Active; 'I' for Inactive)
REMARK    1  A    between atoms: C_1  and  C_2
REMARK    2  A    between atoms: C_1  and  C_3
REMARK    3  A    between atoms: C_1  and  N_47
REMARK    4  A    between atoms: C_2  and  C_4
REMARK    5  A    between atoms: C_3  and  O_6
REMARK    6  A    between atoms: O_6  and  C_19
REMARK    7  A    between atoms: C_7  and  C_8
REMARK    8  A    between atoms: C_8  and  C_9
REMARK    9  A    between atoms: C_9  and  C_10
REMARK   10  A    between atoms: C_10  and  C_11
REMARK   11  A    between atoms: C_11  and  C_27
REMARK   12  A    between atoms: C_13  and  C_16
REMARK   13  A    between atoms: C_14  and  O_18
REMARK   14  A    between atoms: O_18  and  S_23
REMARK   15  A    between atoms: C_27  and  C_28
REMARK   16  A    between atoms: C_28  and  C_29
REMARK   17  A    between atoms: C_29  and  C_30
REMARK   18  A    between atoms: C_30  and  C_31
REMARK   19  A    between atoms: C_31  and  C_32
REMARK   20  A    between atoms: C_32  and  C_33
REMARK   21  A    between atoms: C_33  and  C_34
REMARK   22  A    between atoms: C_36  and  C_37
REMARK   23  A    between atoms: C_36  and  C_49
REMARK   24  A    between atoms: C_37  and  C_38
REMARK   25  A    between atoms: C_38  and  C_39
REMARK   26  A    between atoms: C_39  and  C_40
REMARK   27  A    between atoms: C_40  and  C_41
REMARK   28  A    between atoms: C_41  and  C_42
REMARK   29  A    between atoms: C_42  and  C_43
REMARK   30  A    between atoms: C_43  and  C_44
REMARK   31  A    between atoms: C_44  and  C_45
REMARK   32  A    between atoms: C_45  and  C_46
REMARK   33  A    between atoms: C_46  and  C_52
REMARK   34  A    between atoms: C_48  and  C_49
REMARK   35  A    between atoms: C_52  and  C_53
REMARK   36  A    between atoms: C_53  and  C_54
REMARK   37  A    between atoms: C_54  and  C_55
REMARK   38  A    between atoms: C_55  and  C_56
REMARK   39  A    between atoms: C_56  and  C_57
REMARK   40  A    between atoms: C_57  and  C_58
REMARK   41  A    between atoms: C_58  and  C_59
REMARK   42  A    between atoms: C_59  and  C_60
REMARK   43  A    between atoms: C_60  and  C_61
REMARK                            x       y       z     vdW  Elec       q    Type
REMARK                         _______ _______ _______ _____ _____    ______ ____
ROOT
ATOM      1  C   UNL     1       3.277   0.057   0.000  0.00  0.00    +0.000 C 
ENDROOT
BRANCH   1   2
ATOM      2  N   UNL     1       3.277  -0.774   0.000  0.00  0.00    +0.000 NA
ATOM      3  C   UNL     1       3.994  -1.166   0.000  0.00  0.00    +0.000 C 
ATOM      4  O   UNL     1       4.712  -0.742   0.000  0.00  0.00    +0.000 OA
BRANCH   3   5
ATOM      5  C   UNL     1       4.011  -1.997   0.000  0.00  0.00    +0.000 C 
ATOM      6  O   UNL     1       4.728  -2.389   0.000  0.00  0.00    +0.000 OA
BRANCH   5   7
ATOM      7  C   UNL     1       3.310  -2.405   0.000  0.00  0.00    +0.000 C 
BRANCH   7   8
ATOM      8  C   UNL     1       2.592  -1.997   0.000  0.00  0.00    +0.000 C 
BRANCH   8   9
ATOM      9  C   UNL     1       1.875  -2.405   0.000  0.00  0.00    +0.000 C 
BRANCH   9  10
ATOM     10  C   UNL     1       1.174  -1.997   0.000  0.00  0.00    +0.000 C 
BRANCH  10  11
ATOM     11  C   UNL     1       0.457  -2.405   0.000  0.00  0.00    +0.000 C 
BRANCH  11  12
ATOM     12  C   UNL     1      -0.261  -1.997   0.000  0.00  0.00    +0.000 C 
BRANCH  12  13
ATOM     13  C   UNL     1      -0.962  -2.405   0.000  0.00  0.00    +0.000 C 
BRANCH  13  14
ATOM     14  C   UNL     1      -1.679  -1.997   0.000  0.00  0.00    +0.000 C 
BRANCH  14  15
ATOM     15  C   UNL     1      -2.397  -2.405   0.000  0.00  0.00    +0.000 C 
BRANCH  15  16
ATOM     16  C   UNL     1      -3.098  -1.997   0.000  0.00  0.00    +0.000 C 
BRANCH  16  17
ATOM     17  C   UNL     1      -3.815  -2.405   0.000  0.00  0.00    +0.000 C 
BRANCH  17  18
ATOM     18  C   UNL     1      -3.815  -3.236   0.000  0.00  0.00    +0.000 C 
BRANCH  18  19
ATOM     19  C   UNL     1      -3.098  -3.644   0.000  0.00  0.00    +0.000 C 
BRANCH  19  20
ATOM     20  C   UNL     1      -2.397  -3.236   0.000  0.00  0.00    +0.000 C 
BRANCH  20  21
ATOM     21  C   UNL     1      -1.679  -3.644   0.000  0.00  0.00    +0.000 C 
BRANCH  21  22
ATOM     22  C   UNL     1      -0.962  -3.236   0.000  0.00  0.00    +0.000 C 
BRANCH  22  23
ATOM     23  C   UNL     1      -0.261  -3.644   0.000  0.00  0.00    +0.000 C 
BRANCH  23  24
ATOM     24  C   UNL     1       0.457  -3.236   0.000  0.00  0.00    +0.000 C 
BRANCH  24  25
ATOM     25  C   UNL     1       1.174  -3.644   0.000  0.00  0.00    +0.000 C 
BRANCH  25  26
ATOM     26  C   UNL     1       1.875  -3.236   0.000  0.00  0.00    +0.000 C 
BRANCH  26  27
ATOM     27  C   UNL     1       2.592  -3.644   0.000  0.00  0.00    +0.000 C 
ATOM     28  C   UNL     1       3.310  -3.236   0.000  0.00  0.00    +0.000 C 
ENDBRANCH  26  27
ENDBRANCH  25  26
ENDBRANCH  24  25
ENDBRANCH  23  24
ENDBRANCH  22  23
ENDBRANCH  21  22
ENDBRANCH  20  21
ENDBRANCH  19  20
ENDBRANCH  18  19
ENDBRANCH  17  18
ENDBRANCH  16  17
ENDBRANCH  15  16
ENDBRANCH  14  15
ENDBRANCH  13  14
ENDBRANCH  12  13
ENDBRANCH  11  12
ENDBRANCH  10  11
ENDBRANCH   9  10
ENDBRANCH   8   9
ENDBRANCH   7   8
ENDBRANCH   5   7
ENDBRANCH   3   5
ENDBRANCH   1   2
BRANCH   1  29
ATOM     29  C   UNL     1       2.543   0.448   0.000  0.00  0.00    +0.000 C 
ATOM     30  O   UNL     1       2.543   1.280   0.000  0.00  0.00    +0.000 OA
BRANCH  29  31
ATOM     31  C   UNL     1       1.842   0.041   0.000  0.00  0.00    +0.000 C 
ATOM     32  C   UNL     1       1.125   0.448   0.000  0.00  0.00    +0.000 C 
BRANCH  32  33
ATOM     33  C   UNL     1       0.408   0.024   0.000  0.00  0.00    +0.000 C 
BRANCH  33  34
ATOM     34  C   UNL     1      -0.310   0.432   0.000  0.00  0.00    +0.000 C 
BRANCH  34  35
ATOM     35  C   UNL     1      -1.027   0.008   0.000  0.00  0.00    +0.000 C 
BRANCH  35  36
ATOM     36  C   UNL     1      -1.744   0.416   0.000  0.00  0.00    +0.000 C 
BRANCH  36  37
ATOM     37  C   UNL     1      -2.462   0.008   0.000  0.00  0.00    +0.000 C 
BRANCH  37  38
ATOM     38  C   UNL     1      -3.163   0.416   0.000  0.00  0.00    +0.000 C 
BRANCH  38  39
ATOM     39  C   UNL     1      -3.880   0.008   0.000  0.00  0.00    +0.000 C 
BRANCH  39  40
ATOM     40  C   UNL     1      -4.598   0.416   0.000  0.00  0.00    +0.000 C 
BRANCH  40  41
ATOM     41  C   UNL     1      -5.299   0.008   0.000  0.00  0.00    +0.000 C 
BRANCH  41  42
ATOM     42  C   UNL     1      -6.016   0.416   0.000  0.00  0.00    +0.000 C 
BRANCH  42  43
ATOM     43  C   UNL     1      -6.733   0.008   0.000  0.00  0.00    +0.000 C 
BRANCH  43  44
ATOM     44  C   UNL     1      -7.434   0.416   0.000  0.00  0.00    +0.000 C 
ATOM     45  C   UNL     1      -8.152   0.008   0.000  0.00  0.00    +0.000 C 
ENDBRANCH  43  44
ENDBRANCH  42  43
ENDBRANCH  41  42
ENDBRANCH  40  41
ENDBRANCH  39  40
ENDBRANCH  38  39
ENDBRANCH  37  38
ENDBRANCH  36  37
ENDBRANCH  35  36
ENDBRANCH  34  35
ENDBRANCH  33  34
ENDBRANCH  32  33
ENDBRANCH  29  31
ENDBRANCH   1  29
BRANCH   1  46
ATOM     46  C   UNL     1       3.978   0.481   0.000  0.00  0.00    +0.000 C 
BRANCH  46  47
ATOM     47  O   UNL     1       4.695   0.073   0.000  0.00  0.00    +0.000 OA
BRANCH  47  53
ATOM     48  C   UNL     1       6.831   1.296   0.000  0.00  0.00    +0.000 C 
ATOM     49  C   UNL     1       6.831   0.465   0.000  0.00  0.00    +0.000 C 
ATOM     50  C   UNL     1       6.130   1.704   0.000  0.00  0.00    +0.000 C 
ATOM     51  O   UNL     1       6.130   0.073   0.000  0.00  0.00    +0.000 OA
ATOM     52  C   UNL     1       5.396   1.296   0.000  0.00  0.00    +0.000 C 
ATOM     53  C   UNL     1       5.396   0.465   0.000  0.00  0.00    +0.000 C 
ATOM     54  O   UNL     1       4.695   1.704   0.000  0.00  0.00    +0.000 OA
ATOM     55  O   UNL     1       7.532   1.704   0.000  0.00  0.00    +0.000 OA
BRANCH  49  56
ATOM     56  C   UNL     1       7.532   0.073   0.000  0.00  0.00    +0.000 C 
ATOM     57  O   UNL     1       8.152   0.595   0.000  0.00  0.00    +0.000 OA
ENDBRANCH  49  56
BRANCH  50  58
ATOM     58  O   UNL     1       6.114   2.519   0.000  0.00  0.00    +0.000 OA
BRANCH  58  59
ATOM     59  S   UNL     1       5.413   2.926   0.000  0.00  0.00    +0.000 S 
ATOM     60  O   UNL     1       5.005   2.225   0.000  0.00  0.00    +0.000 OA
ATOM     61  O   UNL     1       5.820   3.644   0.000  0.00  0.00    +0.000 OA
ATOM     62  O   UNL     1       4.695   3.334   0.000  0.00  0.00    +0.000 OA
ENDBRANCH  58  59
ENDBRANCH  50  58
ENDBRANCH  47  53
ENDBRANCH  46  47
ENDBRANCH   1  46
TORSDOF 43
