REMARK  Name = 
REMARK  2 active torsions:
REMARK  status: ('A' for Active; 'I' for Inactive)
REMARK    1  A    between atoms: C_10  and  C_16
REMARK    2  A    between atoms: C_11  and  C_15
REMARK                            x       y       z     vdW  Elec       q    Type
REMARK                         _______ _______ _______ _____ _____    ______ ____
ROOT
ATOM      1  O   UNL     1       0.371   1.864   0.000  0.00  0.00    +0.000 OA
ATOM      2  C   UNL     1       1.087   1.443   0.000  0.00  0.00    +0.000 C 
ATOM      3  C   UNL     1       0.371   1.031   0.000  0.00  0.00    +0.000 C 
ATOM      4  C   UNL     1       3.220  -1.447   0.000  0.00  0.00    +0.000 C 
ATOM      5  C   UNL     1       2.511  -1.035   0.000  0.00  0.00    +0.000 C 
ATOM      6  C   UNL     1       3.932  -1.043   0.000  0.00  0.00    +0.000 C 
ATOM      7  N   UNL     1      -0.362  -1.031   0.000  0.00  0.00    +0.000 NA
ATOM      8  C   UNL     1       0.375  -1.435   0.000  0.00  0.00    +0.000 C 
ATOM      9  C   UNL     1      -0.350  -0.198   0.000  0.00  0.00    +0.000 C 
ATOM     10  C   UNL     1       1.799  -1.443   0.000  0.00  0.00    +0.000 C 
ATOM     11  C   UNL     1       0.362   0.206   0.000  0.00  0.00    +0.000 C 
ATOM     12  C   UNL     1       1.087  -1.022   0.000  0.00  0.00    +0.000 C 
ATOM     13  C   UNL     1       3.936  -0.223   0.000  0.00  0.00    +0.000 C 
ATOM     14  O   UNL     1       3.211  -2.268   0.000  0.00  0.00    +0.000 OA
ATOM     15  O   UNL     1       0.371  -2.255   0.000  0.00  0.00    +0.000 OA
ATOM     16  C   UNL     1       3.224   0.194   0.000  0.00  0.00    +0.000 C 
ATOM     17  C   UNL     1       1.799   1.027   0.000  0.00  0.00    +0.000 C 
ATOM     18  O   UNL     1       4.648   0.189   0.000  0.00  0.00    +0.000 OA
ATOM     19  O   UNL     1       1.795  -2.260   0.000  0.00  0.00    +0.000 OA
ATOM     20  C   UNL     1       1.095   2.268   0.000  0.00  0.00    +0.000 C 
ATOM     21  C   UNL     1       3.082  -0.460   0.000  0.00  0.00    +0.000 C 
ATOM     22  C   UNL     1       1.933  -0.456   0.000  0.00  0.00    +0.000 C 
ATOM     23  C   UNL     1       4.636  -1.456   0.000  0.00  0.00    +0.000 C 
ATOM     24  C   UNL     1       2.520   1.439   0.000  0.00  0.00    +0.000 C 
ATOM     25  C   UNL     1       3.232   1.018   0.000  0.00  0.00    +0.000 C 
ATOM     26  C   UNL     1       2.511  -0.210   0.000  0.00  0.00    +0.000 C 
ENDROOT
BRANCH   9  28
ATOM     27  C   UNL     1      -1.787  -0.198   0.000  0.00  0.00    +0.000 C 
ATOM     28  C   UNL     1      -1.066   0.214   0.000  0.00  0.00    +0.000 C 
ATOM     29  C   UNL     1      -1.062   1.043   0.000  0.00  0.00    +0.000 C 
BRANCH  27  31
ATOM     30  N   UNL     1      -3.265  -0.110   0.000  0.00  0.00    +0.000 NA
ATOM     31  C   UNL     1      -2.503   0.227   0.000  0.00  0.00    +0.000 A 
ATOM     32  C   UNL     1      -3.824   0.514   0.000  0.00  0.00    +0.000 A 
ATOM     33  S   UNL     1      -3.399   1.226   0.000  0.00  0.00    +0.000 S 
ATOM     34  C   UNL     1      -2.587   1.052   0.000  0.00  0.00    +0.000 A 
ATOM     35  C   UNL     1      -4.648   0.427   0.000  0.00  0.00    +0.000 C 
ENDBRANCH  27  31
ENDBRANCH   9  28
TORSDOF 2
