REMARK  Name = 
REMARK  4 active torsions:
REMARK  status: ('A' for Active; 'I' for Inactive)
REMARK    1  A    between atoms: C_6  and  C_7
REMARK    2  A    between atoms: C_14  and  C_17
REMARK    3  A    between atoms: N_19  and  C_20
REMARK    4  A    between atoms: C_20  and  C_21
REMARK                            x       y       z     vdW  Elec       q    Type
REMARK                         _______ _______ _______ _____ _____    ______ ____
ROOT
ATOM      1  C   UNL     1       0.852  -1.659   0.000  0.00  0.00    +0.000 C 
ATOM      2  C   UNL     1       0.116  -2.032   0.000  0.00  0.00    +0.000 C 
ATOM      3  C   UNL     1       0.566  -1.242   0.000  0.00  0.00    +0.000 C 
ATOM      4  C   UNL     1       0.566  -0.494   0.000  0.00  0.00    +0.000 C 
ATOM      5  C   UNL     1       1.301  -0.121   0.000  0.00  0.00    +0.000 C 
ATOM      6  C   UNL     1       0.852  -0.911   0.000  0.00  0.00    +0.000 C 
ATOM      7  C   UNL     1       2.037  -0.494   0.000  0.00  0.00    +0.000 C 
ATOM      8  C   UNL     1       2.037  -1.242   0.000  0.00  0.00    +0.000 C 
ATOM      9  C   UNL     1       1.301  -1.616   0.000  0.00  0.00    +0.000 C 
ATOM     10  C   UNL     1       1.587  -2.032   0.000  0.00  0.00    +0.000 C 
ENDROOT
BRANCH   1  16
ATOM     11  C   UNL     1       1.566  -2.896   0.000  0.00  0.00    +0.000 A 
ATOM     12  C   UNL     1       1.566  -3.721   0.000  0.00  0.00    +0.000 A 
ATOM     13  C   UNL     1       0.852  -4.133   0.000  0.00  0.00    +0.000 A 
ATOM     14  C   UNL     1       0.137  -3.721   0.000  0.00  0.00    +0.000 A 
ATOM     15  C   UNL     1       0.137  -2.896   0.000  0.00  0.00    +0.000 A 
ATOM     16  C   UNL     1       0.852  -2.483   0.000  0.00  0.00    +0.000 A 
ATOM     17 CL   UNL     1       0.852  -4.958   0.000  0.00  0.00    +0.000 Cl
ENDBRANCH   1  16
BRANCH   8  18
ATOM     18  C   UNL     1       2.834  -1.453   0.000  0.00  0.00    +0.000 C 
ATOM     19  O   UNL     1       3.416  -0.868   0.000  0.00  0.00    +0.000 OA
ATOM     20  N   UNL     1       3.050  -2.249   0.000  0.00  0.00    +0.000 NA
BRANCH  20  21
ATOM     21  C   UNL     1       3.848  -2.460   0.000  0.00  0.00    +0.000 C 
BRANCH  21  22
ATOM     22  C   UNL     1       4.064  -3.256   0.000  0.00  0.00    +0.000 A 
ATOM     23  C   UNL     1       4.862  -3.467   0.000  0.00  0.00    +0.000 A 
ATOM     24  C   UNL     1       5.078  -4.263   0.000  0.00  0.00    +0.000 A 
ATOM     25  N   UNL     1       4.496  -4.849   0.000  0.00  0.00    +0.000 NA
ATOM     26  C   UNL     1       3.699  -4.638   0.000  0.00  0.00    +0.000 A 
ATOM     27  C   UNL     1       3.483  -3.841   0.000  0.00  0.00    +0.000 A 
ENDBRANCH  21  22
ENDBRANCH  20  21
ENDBRANCH   8  18
TORSDOF 4
