REMARK  Name = 
REMARK  1 active torsions:
REMARK  status: ('A' for Active; 'I' for Inactive)
REMARK    1  A    between atoms: C_1  and  CA_2
REMARK                            x       y       z     vdW  Elec       q    Type
REMARK                         _______ _______ _______ _____ _____    ______ ____
ROOT
ATOM      1  C   GLY A   1       0.357  -0.206   0.000  0.00  0.00    +0.000 C 
ATOM      2  OXT GLY A   1       1.072  -0.619   0.000  0.00  0.00    +0.000 OA
ATOM      3  O   GLY A   1       0.357   0.619   0.000  0.00  0.00    +0.000 OA
ENDROOT
BRANCH   1   4
ATOM      4  CA  GLY A   1      -0.357  -0.619   0.000  0.00  0.00    +0.000 C 
ATOM      5  N   GLY A   1      -1.072  -0.206   0.000  0.00  0.00    +0.000 NA
ENDBRANCH   1   4
TORSDOF 1
