REMARK  Name = 
REMARK  2 active torsions:
REMARK  status: ('A' for Active; 'I' for Inactive)
REMARK    1  A    between atoms: N_2  and  C_3
REMARK    2  A    between atoms: C_6  and  O_9
REMARK                            x       y       z     vdW  Elec       q    Type
REMARK                         _______ _______ _______ _____ _____    ______ ____
ROOT
ATOM      1  C   UNL     1      -0.416  -0.329   0.000  0.00  0.00    +0.000 A 
ATOM      2  C   UNL     1      -0.009  -1.085   0.000  0.00  0.00    +0.000 A 
ATOM      3  C   UNL     1       0.815  -1.077   0.000  0.00  0.00    +0.000 A 
ATOM      4  C   UNL     1       1.239  -0.361   0.000  0.00  0.00    +0.000 A 
ATOM      5  C   UNL     1       0.832   0.343   0.000  0.00  0.00    +0.000 A 
ATOM      6  C   UNL     1       0.000   0.343   0.000  0.00  0.00    +0.000 A 
ENDROOT
BRANCH   1   8
ATOM      7  C   UNL     1      -1.667   0.378   0.000  0.00  0.00    +0.000 C 
ATOM      8  N   UNL     1      -1.239  -0.329   0.000  0.00  0.00    +0.000 NA
ATOM      9  O   UNL     1      -2.491   0.378   0.000  0.00  0.00    +0.000 OA
ATOM     10  C   UNL     1      -1.242   1.085   0.000  0.00  0.00    +0.000 C 
ENDBRANCH   1   8
BRANCH   4  11
ATOM     11  O   UNL     1       2.063  -0.361   0.000  0.00  0.00    +0.000 OA
ATOM     12  C   UNL     1       2.491   0.343   0.000  0.00  0.00    +0.000 C 
ENDBRANCH   4  11
TORSDOF 2
