REMARK  Name = 
REMARK  7 active torsions:
REMARK  status: ('A' for Active; 'I' for Inactive)
REMARK    1  A    between atoms: C_8  and  C_28
REMARK    2  A    between atoms: N_12  and  C_13
REMARK    3  A    between atoms: C_16  and  O_19
REMARK    4  A    between atoms: O_19  and  C_20
REMARK    5  A    between atoms: C_20  and  C_21
REMARK    6  A    between atoms: C_21  and  C_22
REMARK    7  A    between atoms: C_22  and  N_23
REMARK                            x       y       z     vdW  Elec       q    Type
REMARK                         _______ _______ _______ _____ _____    ______ ____
ROOT
ATOM      1  C   UNL     1       0.000   0.000   0.000  0.00  0.00    +0.000 C 
ATOM      2  C   UNL     1       0.715  -0.412   0.000  0.00  0.00    +0.000 A 
ATOM      3  N   UNL     1       1.429   0.000   0.000  0.00  0.00    +0.000 NA
ATOM      4  C   UNL     1       2.143  -0.412   0.000  0.00  0.00    +0.000 A 
ATOM      5  C   UNL     1       2.858   0.000   0.000  0.00  0.00    +0.000 A 
ATOM      6  C   UNL     1       3.572  -0.412   0.000  0.00  0.00    +0.000 A 
ATOM      7  C   UNL     1       3.572  -1.238   0.000  0.00  0.00    +0.000 A 
ATOM      8  C   UNL     1       2.858  -1.650   0.000  0.00  0.00    +0.000 A 
ATOM      9  C   UNL     1       2.143  -1.238   0.000  0.00  0.00    +0.000 A 
ATOM     10  C   UNL     1       1.429  -1.650   0.000  0.00  0.00    +0.000 A 
ATOM     11  O   UNL     1       1.429  -2.475   0.000  0.00  0.00    +0.000 OA
ATOM     12  N   UNL     1       0.715  -1.238   0.000  0.00  0.00    +0.000 N 
ENDROOT
BRANCH  12  13
ATOM     13  C   UNL     1       0.000  -1.650   0.000  0.00  0.00    +0.000 A 
ATOM     14  C   UNL     1       0.000  -2.475   0.000  0.00  0.00    +0.000 A 
ATOM     15  C   UNL     1      -0.715  -2.888   0.000  0.00  0.00    +0.000 A 
ATOM     16  C   UNL     1      -1.429  -2.475   0.000  0.00  0.00    +0.000 A 
ATOM     17  C   UNL     1      -1.429  -1.650   0.000  0.00  0.00    +0.000 A 
ATOM     18  C   UNL     1      -0.715  -1.238   0.000  0.00  0.00    +0.000 A 
BRANCH  16  19
ATOM     19  O   UNL     1      -2.143  -2.888   0.000  0.00  0.00    +0.000 OA
BRANCH  19  20
ATOM     20  C   UNL     1      -2.143  -3.712   0.000  0.00  0.00    +0.000 C 
BRANCH  20  21
ATOM     21  C   UNL     1      -2.858  -4.125   0.000  0.00  0.00    +0.000 C 
BRANCH  21  22
ATOM     22  C   UNL     1      -2.858  -4.950   0.000  0.00  0.00    +0.000 C 
BRANCH  22  23
ATOM     23  N   UNL     1      -3.572  -5.362   0.000  0.00  0.00    +0.000 NA
ATOM     24  C   UNL     1      -3.659  -6.183   0.000  0.00  0.00    +0.000 C 
ATOM     25  C   UNL     1      -4.466  -6.354   0.000  0.00  0.00    +0.000 C 
ATOM     26  C   UNL     1      -4.878  -5.640   0.000  0.00  0.00    +0.000 C 
ATOM     27  C   UNL     1      -4.326  -5.027   0.000  0.00  0.00    +0.000 C 
ENDBRANCH  22  23
ENDBRANCH  21  22
ENDBRANCH  20  21
ENDBRANCH  19  20
ENDBRANCH  16  19
ENDBRANCH  12  13
BRANCH   8  28
ATOM     28  C   UNL     1       2.858  -2.475   0.000  0.00  0.00    +0.000 C 
ATOM     29  F   UNL     1       2.858  -3.300   0.000  0.00  0.00    +0.000 F 
ATOM     30  F   UNL     1       2.033  -2.475   0.000  0.00  0.00    +0.000 F 
ATOM     31  F   UNL     1       3.683  -2.475   0.000  0.00  0.00    +0.000 F 
ENDBRANCH   8  28
TORSDOF 7
