REMARK  Name = 
REMARK  5 active torsions:
REMARK  status: ('A' for Active; 'I' for Inactive)
REMARK    1  A    between atoms: C_2  and  C_7
REMARK    2  A    between atoms: C_5  and  O_12
REMARK    3  A    between atoms: O_12  and  C_13
REMARK    4  A    between atoms: C_15  and  N_20
REMARK    5  A    between atoms: C_24  and  C_26
REMARK                            x       y       z     vdW  Elec       q    Type
REMARK                         _______ _______ _______ _____ _____    ______ ____
ROOT
ATOM      1  C   UNL     1       1.072  -0.151   0.000  0.00  0.00    +0.000 A 
ATOM      2  C   UNL     1       0.357  -0.564   0.000  0.00  0.00    +0.000 A 
ATOM      3  C   UNL     1      -0.357  -0.151   0.000  0.00  0.00    +0.000 A 
ATOM      4  C   UNL     1      -0.357   0.674   0.000  0.00  0.00    +0.000 A 
ATOM      5  C   UNL     1       0.357   1.087   0.000  0.00  0.00    +0.000 A 
ATOM      6  C   UNL     1       1.072   0.674   0.000  0.00  0.00    +0.000 A 
ATOM      7 CL   UNL     1       1.786   1.087   0.000  0.00  0.00    +0.000 Cl
ENDROOT
BRANCH   3   8
ATOM      8  N   UNL     1      -1.072  -0.564   0.000  0.00  0.00    +0.000 NA
ATOM      9  C   UNL     1      -1.786  -0.151   0.000  0.00  0.00    +0.000 C 
ATOM     10  O   UNL     1      -1.786   0.674   0.000  0.00  0.00    +0.000 OA
ATOM     11  N   UNL     1      -2.501  -0.564   0.000  0.00  0.00    +0.000 NA
ATOM     12  C   UNL     1      -3.215  -0.151   0.000  0.00  0.00    +0.000 C 
ATOM     13  O   UNL     1      -3.215   0.674   0.000  0.00  0.00    +0.000 OA
BRANCH  12  14
ATOM     14  C   UNL     1      -3.929  -0.564   0.000  0.00  0.00    +0.000 A 
ATOM     15  C   UNL     1      -4.644  -0.151   0.000  0.00  0.00    +0.000 A 
ATOM     16  C   UNL     1      -5.359  -0.564   0.000  0.00  0.00    +0.000 A 
ATOM     17  C   UNL     1      -5.359  -1.388   0.000  0.00  0.00    +0.000 A 
ATOM     18  C   UNL     1      -4.644  -1.801   0.000  0.00  0.00    +0.000 A 
ATOM     19  C   UNL     1      -3.929  -1.388   0.000  0.00  0.00    +0.000 A 
ATOM     20  F   UNL     1      -3.215  -1.801   0.000  0.00  0.00    +0.000 F 
ATOM     21  F   UNL     1      -4.644   0.674   0.000  0.00  0.00    +0.000 F 
ENDBRANCH  12  14
ENDBRANCH   3   8
BRANCH   1  22
ATOM     22  O   UNL     1       1.786  -0.564   0.000  0.00  0.00    +0.000 OA
BRANCH  22  27
ATOM     23  C   UNL     1       3.215   1.087   0.000  0.00  0.00    +0.000 A 
ATOM     24  C   UNL     1       3.929   0.674   0.000  0.00  0.00    +0.000 A 
ATOM     25  C   UNL     1       3.929  -0.151   0.000  0.00  0.00    +0.000 A 
ATOM     26  C   UNL     1       3.215  -0.564   0.000  0.00  0.00    +0.000 A 
ATOM     27  C   UNL     1       2.501  -0.151   0.000  0.00  0.00    +0.000 A 
ATOM     28  N   UNL     1       2.501   0.674   0.000  0.00  0.00    +0.000 NA
ATOM     29 CL   UNL     1       3.215  -1.388   0.000  0.00  0.00    +0.000 Cl
BRANCH  24  30
ATOM     30  C   UNL     1       4.644   1.087   0.000  0.00  0.00    +0.000 C 
ATOM     31  F   UNL     1       5.359   1.499   0.000  0.00  0.00    +0.000 F 
ATOM     32  F   UNL     1       5.056   0.372   0.000  0.00  0.00    +0.000 F 
ATOM     33  F   UNL     1       4.231   1.801   0.000  0.00  0.00    +0.000 F 
ENDBRANCH  24  30
ENDBRANCH  22  27
ENDBRANCH   1  22
TORSDOF 5
